MODEL 4
REMARK VINA RESULT: -8.777417020      2.890      7.864
REMARK  15 active torsions:
REMARK  status: ('A' for Active; 'I' for Inactive)
REMARK    1  A    between atoms: C3_3  and  C4_4
REMARK    2  A    between atoms: C6_6  and  N1_7
REMARK    3  A    between atoms: N1_7  and  C7_9
REMARK    4  A    between atoms: C10_14  and  N3_15
REMARK    5  A    between atoms: N3_15  and  C11_17
REMARK    6  A    between atoms: C15_21  and  O1_22
REMARK    7  A    between atoms: O1_22  and  C16_23
REMARK    8  A    between atoms: C16_23  and  C17_24
REMARK    9  A    between atoms: C17_24  and  C18_25
REMARK   10  A    between atoms: C18_25  and  N4_26
REMARK   11  A    between atoms: C30_40  and  O2_41
REMARK   12  A    between atoms: O2_41  and  C31_42
REMARK   13  A    between atoms: C31_42  and  C32_43
REMARK   14  A    between atoms: C32_43  and  C33_44
REMARK   15  A    between atoms: C33_44  and  N6_45
ROOT
HETATM    1  C1  UNL     1      26.247  20.263  18.692  1.00  0.00     0.112 C
HETATM    2  C2  UNL     1      25.892  21.654  18.990  1.00  0.00    -0.105 C
HETATM    3  C3  UNL     1      25.576  22.806  19.232  1.00  0.00    -0.065 C
ENDROOT
BRANCH   3   4
HETATM    4  C4  UNL     1      25.186  24.168  19.496  1.00  0.00     0.047 A
HETATM    5  C5  UNL     1      25.900  25.244  19.060  1.00  0.00     0.053 A
HETATM    6  C6  UNL     1      25.520  26.567  19.321  1.00  0.00     0.051 A
HETATM    7  C26 UNL     1      24.383  26.810  20.046  1.00  0.00     0.043 A
HETATM    8  C27 UNL     1      23.645  25.732  20.495  1.00  0.00    -0.006 A
HETATM    9  C28 UNL     1      22.493  25.921  21.225  1.00  0.00     0.018 A
HETATM   10  C39 UNL     1      24.031  24.425  20.230  1.00  0.00     0.063 A
HETATM   11  C29 UNL     1      21.763  24.817  21.665  1.00  0.00     0.057 A
HETATM   12  C30 UNL     1      22.180  23.556  21.380  1.00  0.00     0.142 A
HETATM   13  N8  UNL     1      23.320  23.394  20.659  1.00  0.00    -0.335 N
ATOM     14  H8  UNL     1      23.638  22.450  20.442  1.00  0.00     0.168 HD
BRANCH   6  15
HETATM   15  N1  UNL     1      26.305  27.637  18.832  1.00  0.00    -0.192 N
ATOM     16  H1  UNL     1      26.962  28.101  19.460  1.00  0.00     0.184 HD
BRANCH  15  17
HETATM   17  C7  UNL     1      26.210  28.040  17.614  1.00  0.00     0.684 A
HETATM   18  N2  UNL     1      27.286  28.134  16.781  1.00  0.00    -0.202 N
HETATM   19  C8  UNL     1      27.140  28.536  15.514  1.00  0.00     0.110 A
ATOM     20  H2  UNL     1      28.215  27.894  17.130  1.00  0.00     0.183 HD
HETATM   21  C9  UNL     1      25.877  28.845  15.091  1.00  0.00     0.066 A
HETATM   22  C10 UNL     1      24.746  28.757  15.925  1.00  0.00     0.122 A
HETATM   23  N5  UNL     1      24.952  28.352  17.179  1.00  0.00    -0.176 N
ATOM     24  H5  UNL     1      24.162  28.274  17.821  1.00  0.00     0.186 HD
BRANCH  22  25
HETATM   25  N3  UNL     1      23.611  29.050  15.451  1.00  0.00    -0.342 N
ATOM     26  H3  UNL     1      23.544  29.893  14.881  1.00  0.00     0.167 HD
BRANCH  25  27
HETATM   27  C11 UNL     1      22.443  28.313  15.646  1.00  0.00     0.034 A
HETATM   28  C12 UNL     1      21.423  28.323  14.686  1.00  0.00     0.039 A
HETATM   29  C13 UNL     1      20.264  27.577  14.858  1.00  0.00    -0.026 A
HETATM   30  C14 UNL     1      19.162  27.556  13.866  1.00  0.00     0.051 C
HETATM   31  C15 UNL     1      20.135  26.821  15.998  1.00  0.00     0.080 A
HETATM   32  C23 UNL     1      21.101  26.772  16.979  1.00  0.00    -0.026 A
HETATM   33  C24 UNL     1      20.873  25.934  18.175  1.00  0.00     0.051 C
HETATM   34  C25 UNL     1      22.231  27.530  16.759  1.00  0.00     0.039 A
BRANCH  31  35
HETATM   35  O1  UNL     1      18.964  26.061  16.177  1.00  0.00    -0.350 OA
BRANCH  35  36
HETATM   36  C16 UNL     1      19.149  24.665  15.812  1.00  0.00     0.177 C
BRANCH  36  37
HETATM   37  C17 UNL     1      18.179  24.259  14.774  1.00  0.00     0.057 C
BRANCH  37  38
HETATM   38  C18 UNL     1      16.948  23.539  15.212  1.00  0.00     0.274 C
BRANCH  38  39
HETATM   39  N4  UNL     1      15.860  23.450  14.323  1.00  0.00     0.088 N
HETATM   40  C19 UNL     1      14.558  23.457  14.897  1.00  0.00     0.272 C
HETATM   41  C20 UNL     1      13.810  22.277  14.285  1.00  0.00     0.032 C
HETATM   42  C21 UNL     1      14.921  21.345  13.848  1.00  0.00     0.032 C
HETATM   43  C22 UNL     1      15.979  22.336  13.417  1.00  0.00     0.272 C
ENDBRANCH  38  39
ENDBRANCH  37  38
ENDBRANCH  36  37
ENDBRANCH  35  36
ENDBRANCH  31  35
ENDBRANCH  25  27
ENDBRANCH  22  25
ENDBRANCH  15  17
ENDBRANCH   6  15
BRANCH  12  44
HETATM   44  O2  UNL     1      21.524  22.396  21.771  1.00  0.00    -0.336 OA
BRANCH  44  45
HETATM   45  C31 UNL     1      20.150  22.203  21.582  1.00  0.00     0.179 C
BRANCH  45  46
HETATM   46  C32 UNL     1      19.751  22.147  20.125  1.00  0.00     0.057 C
BRANCH  46  47
HETATM   47  C33 UNL     1      18.598  23.085  19.909  1.00  0.00     0.274 C
BRANCH  47  48
HETATM   48  N6  UNL     1      17.416  22.360  19.557  1.00  0.00     0.091 N
HETATM   49  C34 UNL     1      16.589  23.140  18.679  1.00  0.00     0.302 C
HETATM   50  C35 UNL     1      15.309  22.340  18.417  1.00  0.00     0.302 C
HETATM   51  N7  UNL     1      15.699  21.165  17.667  1.00  0.00     0.087 N
HETATM   52  C36 UNL     1      14.497  20.404  17.388  1.00  0.00     0.310 C
HETATM   53  C37 UNL     1      16.619  20.334  18.425  1.00  0.00     0.302 C
HETATM   54  C38 UNL     1      17.776  21.109  18.962  1.00  0.00     0.302 C
ENDBRANCH  47  48
ENDBRANCH  46  47
ENDBRANCH  45  46
ENDBRANCH  44  45
ENDBRANCH  12  44
ENDBRANCH   3   4
TORSDOF 15
ENDMDL