MODEL 1
REMARK VINA RESULT: -8.549208107      0.000      0.000
REMARK  14 active torsions:
REMARK  status: ('A' for Active; 'I' for Inactive)
REMARK    1  A    between atoms: O1_2  and  C2_3
REMARK    2  A    between atoms: C2_3  and  C3_4
REMARK    3  A    between atoms: C2_3  and  C23_31
REMARK    4  A    between atoms: C3_4  and  C4_5
REMARK    5  A    between atoms: C5_7  and  C6_8
REMARK    6  A    between atoms: C20_26  and  O4_27
REMARK    7  A    between atoms: C23_31  and  C24_33
REMARK    8  A    between atoms: C24_33  and  C25_34
REMARK    9  A    between atoms: C24_33  and  N3_38
REMARK   10  A    between atoms: C25_34  and  C26_35
REMARK       I    between atoms: N3_38  and  C29_40
REMARK   11  A    between atoms: C29_40  and  C30_42
REMARK   12  A    between atoms: C30_42  and  C31_43
REMARK   13  A    between atoms: C30_42  and  N4_47
REMARK   14  A    between atoms: C31_43  and  C32_44
REMARK       I    between atoms: N4_47  and  C35_49
ROOT
HETATM    1  C4  UNL     1      12.616  19.973  14.231  1.00  0.00     0.088 C
HETATM    2  O2  UNL     1      12.968  20.896  13.284  1.00  0.00    -0.313 OA
HETATM    3  C5  UNL     1      14.133  21.442  12.838  1.00  0.00     0.069 C
HETATM    4  C10 UNL     1      15.159  20.771  12.235  1.00  0.00     0.098 C
HETATM    5  C11 UNL     1      15.093  19.409  12.003  1.00  0.00    -0.069 C
HETATM    6  C12 UNL     1      14.884  18.384  11.826  1.00  0.00    -0.041 C
HETATM    7  C13 UNL     1      14.335  17.110  11.652  1.00  0.00     0.118 A
HETATM    8  N1  UNL     1      12.956  17.264  11.699  1.00  0.00    -0.329 N
ATOM      9  H1  UNL     1      12.484  18.163  11.800  1.00  0.00     0.168 HD
HETATM   10  C14 UNL     1      12.352  16.148  11.601  1.00  0.00     0.147 A
HETATM   11  O3  UNL     1      13.231  15.241  11.484  1.00  0.00    -0.297 OA
HETATM   12  C15 UNL     1      14.475  15.793  11.510  1.00  0.00     0.086 A
HETATM   13  C16 UNL     1      15.792  15.096  11.404  1.00  0.00     0.080 C
HETATM   14  C17 UNL     1      10.863  16.190  11.656  1.00  0.00     0.157 C
HETATM   15  C18 UNL     1      10.447  15.183  12.671  1.00  0.00     0.041 C
HETATM   16  N2  UNL     1      10.407  17.565  12.031  1.00  0.00    -0.354 N
HETATM   17  C19 UNL     1       9.032  17.756  11.488  1.00  0.00     0.152 C
HETATM   18  C20 UNL     1      11.013  18.596  12.716  1.00  0.00     0.147 C
HETATM   19  C21 UNL     1      11.528  18.992  14.012  1.00  0.00     0.023 C
HETATM   20  C22 UNL     1      11.584  17.781  14.945  1.00  0.00     0.056 C
ENDROOT
BRANCH   1  21
HETATM   21  C3  UNL     1      12.548  20.523  15.636  1.00  0.00     0.079 C
BRANCH  21  22
HETATM   22  C2  UNL     1      13.701  20.680  16.514  1.00  0.00     0.122 C
BRANCH  22  23
HETATM   23  O1  UNL     1      14.611  21.661  16.333  1.00  0.00    -0.352 OA
HETATM   24  C1  UNL     1      14.199  22.923  16.762  1.00  0.00     0.210 C
ENDBRANCH  22  23
BRANCH  22  25
HETATM   25  C23 UNL     1      13.555  20.277  17.936  1.00  0.00     0.227 C
HETATM   26  O5  UNL     1      12.336  20.217  18.323  1.00  0.00    -0.283 OA
BRANCH  25  27
HETATM   27  C24 UNL     1      14.465  19.919  18.996  1.00  0.00     0.065 C
BRANCH  27  28
HETATM   28  C25 UNL     1      13.987  19.339  20.246  1.00  0.00     0.065 C
BRANCH  28  29
HETATM   29  C26 UNL     1      13.906  17.844  20.358  1.00  0.00    -0.017 C
HETATM   30  C27 UNL     1      12.480  17.326  20.420  1.00  0.00     0.010 C
HETATM   31  C28 UNL     1      14.427  17.331  18.990  1.00  0.00     0.010 C
ENDBRANCH  28  29
ENDBRANCH  27  28
BRANCH  27  32
HETATM   32  N3  UNL     1      15.486  20.927  19.161  1.00  0.00    -0.325 N
HETATM   33  C29 UNL     1      16.781  20.913  18.689  1.00  0.00     0.244 C
HETATM   34  O6  UNL     1      17.295  19.995  18.038  1.00  0.00    -0.271 OA
ATOM     35  H3  UNL     1      15.215  21.753  19.694  1.00  0.00     0.168 HD
BRANCH  33  36
HETATM   36  C30 UNL     1      17.718  22.093  18.957  1.00  0.00     0.177 C
BRANCH  36  37
HETATM   37  C31 UNL     1      18.187  22.061  20.360  1.00  0.00     0.038 C
BRANCH  37  38
HETATM   38  C32 UNL     1      19.465  22.763  20.686  1.00  0.00    -0.020 C
HETATM   39  C33 UNL     1      20.037  21.989  21.909  1.00  0.00     0.009 C
HETATM   40  C34 UNL     1      19.299  24.172  21.190  1.00  0.00     0.009 C
ENDBRANCH  37  38
ENDBRANCH  36  37
BRANCH  36  41
HETATM   41  N4  UNL     1      17.114  23.325  18.540  1.00  0.00    -0.348 N
HETATM   42  C35 UNL     1      17.777  24.166  17.570  1.00  0.00     0.214 C
HETATM   43  C36 UNL     1      17.202  25.439  17.106  1.00  0.00     0.117 C
HETATM   44  O7  UNL     1      18.874  23.780  17.126  1.00  0.00    -0.274 OA
ATOM     45  H4  UNL     1      16.215  23.607  18.928  1.00  0.00     0.163 HD
ENDBRANCH  36  41
ENDBRANCH  33  36
ENDBRANCH  27  32
ENDBRANCH  25  27
ENDBRANCH  22  25
ENDBRANCH  21  22
ENDBRANCH   1  21
BRANCH   3  46
HETATM   46  C6  UNL     1      14.408  22.900  12.961  1.00  0.00    -0.001 C
HETATM   47  C7  UNL     1      14.478  23.544  11.541  1.00  0.00     0.021 C
HETATM   48  C8  UNL     1      15.733  23.240  13.550  1.00  0.00     0.021 C
HETATM   49  C9  UNL     1      13.239  23.641  13.581  1.00  0.00     0.021 C
ENDBRANCH   3  46
BRANCH  18  50
HETATM   50  O4  UNL     1      11.212  19.647  11.911  1.00  0.00    -0.346 OA
ATOM     51  H4  UNL     1      12.137  19.861  11.860  1.00  0.00     0.219 HD
ENDBRANCH  18  50
TORSDOF 14
ENDMDL