MODEL 5
REMARK VINA RESULT: -9.848524704      3.119     10.541
REMARK  13 active torsions:
REMARK  status: ('A' for Active; 'I' for Inactive)
REMARK    1  A    between atoms: O1_2  and  C2_3
REMARK    2  A    between atoms: C4_5  and  O2_6
REMARK    3  A    between atoms: O2_6  and  C5_7
REMARK    4  A    between atoms: C7_9  and  C8_10
REMARK    5  A    between atoms: C13_15  and  O3_16
REMARK    6  A    between atoms: C15_18  and  O4_19
REMARK    7  A    between atoms: O4_19  and  C16_20
REMARK    8  A    between atoms: C16_20  and  C17_21
REMARK    9  A    between atoms: C17_21  and  C18_22
REMARK   10  A    between atoms: C17_21  and  N1_27
REMARK   11  A    between atoms: C18_22  and  C19_23
REMARK   12  A    between atoms: N2_30  and  S1_31
REMARK   13  A    between atoms: S1_31  and  C25_34
ROOT
HETATM    1  C17 UNL     1      17.497  22.303  18.679  1.00  0.00     0.112 C
ENDROOT
BRANCH   1   2
HETATM    2  C16 UNL     1      16.024  21.901  18.828  1.00  0.00     0.201 C
BRANCH   2   3
HETATM    3  O4  UNL     1      15.739  20.693  18.186  1.00  0.00    -0.346 OA
BRANCH   3   4
HETATM    4  C15 UNL     1      14.488  20.111  18.470  1.00  0.00     0.103 A
HETATM    5  C4  UNL     1      13.463  20.194  17.519  1.00  0.00     0.112 A
HETATM    6  C3  UNL     1      12.253  19.626  17.804  1.00  0.00     0.077 A
HETATM    7  C2  UNL     1      12.047  18.985  19.008  1.00  0.00     0.076 A
HETATM    8  C32 UNL     1      13.027  18.881  19.969  1.00  0.00    -0.026 A
HETATM    9  C31 UNL     1      14.241  19.460  19.661  1.00  0.00     0.049 A
HETATM   10  C33 UNL     1      12.832  18.196  21.271  1.00  0.00     0.051 C
BRANCH   5  11
HETATM   11  O2  UNL     1      13.766  20.850  16.353  1.00  0.00    -0.305 OA
BRANCH  11  12
HETATM   12  C5  UNL     1      13.009  20.909  15.208  1.00  0.00     0.110 A
HETATM   13  C6  UNL     1      12.430  19.753  14.679  1.00  0.00     0.047 A
HETATM   14  C7  UNL     1      11.672  19.804  13.535  1.00  0.00    -0.052 A
HETATM   15  C11 UNL     1      11.471  21.013  12.887  1.00  0.00     0.010 A
HETATM   16  C12 UNL     1      12.040  22.157  13.407  1.00  0.00     0.040 A
HETATM   17  C13 UNL     1      12.811  22.109  14.569  1.00  0.00     0.102 A
BRANCH  14  18
HETATM   18  C8  UNL     1      11.051  18.586  12.967  1.00  0.00     0.010 C
HETATM   19  C9  UNL     1      10.606  18.738  11.546  1.00  0.00     0.015 C
HETATM   20  C10 UNL     1      12.117  17.490  13.096  1.00  0.00     0.015 C
ENDBRANCH  14  18
BRANCH  17  21
HETATM   21  O3  UNL     1      13.383  23.253  15.098  1.00  0.00    -0.353 OA
HETATM   22  C14 UNL     1      14.556  23.756  14.489  1.00  0.00     0.210 C
ENDBRANCH  17  21
ENDBRANCH  11  12
ENDBRANCH   5  11
BRANCH   7  23
HETATM   23  O1  UNL     1      10.811  18.388  19.332  1.00  0.00    -0.355 OA
HETATM   24  C1  UNL     1      10.360  17.253  18.618  1.00  0.00     0.210 C
ENDBRANCH   7  23
ENDBRANCH   3   4
ENDBRANCH   2   3
ENDBRANCH   1   2
BRANCH   1  25
HETATM   25  C18 UNL     1      17.876  22.865  20.010  1.00  0.00     0.036 C
BRANCH  25  26
HETATM   26  C19 UNL     1      19.270  22.790  20.463  1.00  0.00    -0.050 C
HETATM   27  C20 UNL     1      19.402  23.871  21.580  1.00  0.00     0.014 C
HETATM   28  C21 UNL     1      20.376  23.076  19.528  1.00  0.00     0.014 C
HETATM   29  C22 UNL     1      19.568  21.483  21.204  1.00  0.00     0.014 C
ENDBRANCH  25  26
ENDBRANCH   1  25
BRANCH   1  30
HETATM   30  N1  UNL     1      17.569  23.259  17.565  1.00  0.00    -0.339 N
HETATM   31  C23 UNL     1      17.418  24.671  17.842  1.00  0.00     0.147 C
HETATM   32  C24 UNL     1      17.277  25.381  16.483  1.00  0.00     0.161 C
HETATM   33  N2  UNL     1      18.371  24.981  15.691  1.00  0.00    -0.274 N
HETATM   34  C29 UNL     1      18.442  23.648  15.250  1.00  0.00     0.177 C
HETATM   35  C30 UNL     1      17.726  22.789  16.222  1.00  0.00     0.260 C
HETATM   36  O8  UNL     1      17.254  21.671  15.915  1.00  0.00    -0.267 OA
BRANCH  33  37
HETATM   37  S1  UNL     1      19.483  26.102  15.171  1.00  0.00     0.282 S
HETATM   38  O5  UNL     1      20.360  25.452  14.103  1.00  0.00    -0.198 OA
HETATM   39  O6  UNL     1      18.736  27.194  14.410  1.00  0.00    -0.198 OA
BRANCH  37  40
HETATM   40  C25 UNL     1      20.519  26.793  16.378  1.00  0.00     0.176 A
HETATM   41  N3  UNL     1      20.455  26.650  17.711  1.00  0.00    -0.296 N
HETATM   42  C26 UNL     1      21.434  27.343  18.310  1.00  0.00     0.325 A
ATOM     43  H3  UNL     1      19.757  26.091  18.202  1.00  0.00     0.171 HD
HETATM   44  O7  UNL     1      21.710  27.462  19.536  1.00  0.00    -0.247 OA
HETATM   45  N4  UNL     1      22.138  27.940  17.336  1.00  0.00    -0.310 N
HETATM   46  C27 UNL     1      21.594  27.616  16.149  1.00  0.00     0.050 A
ATOM     47  H4  UNL     1      22.951  28.540  17.473  1.00  0.00     0.170 HD
HETATM   48  C28 UNL     1      22.156  28.124  14.869  1.00  0.00     0.071 C
ENDBRANCH  37  40
ENDBRANCH  33  37
ENDBRANCH   1  30
TORSDOF 13
ENDMDL