MODEL 5
REMARK VINA RESULT: -7.240138359      2.052      3.078
REMARK  15 active torsions:
REMARK  status: ('A' for Active; 'I' for Inactive)
REMARK    1  A    between atoms: C2_2  and  C3_3
REMARK    2  A    between atoms: C3_3  and  C4_4
REMARK    3  A    between atoms: C4_4  and  C5_5
REMARK    4  A    between atoms: C5_5  and  C6_6
REMARK    5  A    between atoms: C6_6  and  C7_7
REMARK    6  A    between atoms: C7_7  and  C10_10
REMARK    7  A    between atoms: C11_13  and  O1_14
REMARK    8  A    between atoms: C12_16  and  C13_17
REMARK    9  A    between atoms: C13_17  and  C15_19
REMARK   10  A    between atoms: C18_23  and  O2_24
REMARK   11  A    between atoms: C19_26  and  C20_27
REMARK   12  A    between atoms: C20_27  and  C21_28
REMARK   13  A    between atoms: C29_40  and  C30_41
REMARK   14  A    between atoms: C30_41  and  C31_42
REMARK   15  A    between atoms: C31_42  and  S1_43
ROOT
HETATM    1  C10 UNL     1      20.485  25.101  17.805  1.00  0.00     0.125 C
HETATM    2  N1  UNL     1      20.193  25.762  19.071  1.00  0.00    -0.360 N
ATOM      3  H1  UNL     1      19.740  26.668  18.946  1.00  0.00     0.162 HD
HETATM    4  C11 UNL     1      20.387  25.445  20.396  1.00  0.00     0.160 C
HETATM    5  C12 UNL     1      21.583  25.285  21.267  1.00  0.00     0.067 C
HETATM    6  N2  UNL     1      22.346  24.114  20.995  1.00  0.00    -0.333 N
HETATM    7  C17 UNL     1      21.859  22.927  21.806  1.00  0.00     0.158 C
HETATM    8  C18 UNL     1      23.400  23.761  20.166  1.00  0.00     0.148 C
HETATM    9  C19 UNL     1      24.748  24.203  19.870  1.00  0.00     0.210 C
HETATM   10  O5  UNL     1      25.088  25.470  19.605  1.00  0.00    -0.306 OA
HETATM   11  C28 UNL     1      24.847  26.475  18.779  1.00  0.00     0.282 C
HETATM   12  O6  UNL     1      25.181  27.651  19.179  1.00  0.00    -0.263 OA
HETATM   13  C29 UNL     1      24.229  26.453  17.426  1.00  0.00     0.185 C
HETATM   14  N3  UNL     1      23.178  27.433  17.310  1.00  0.00    -0.344 N
ATOM     15  H3  UNL     1      23.482  28.397  17.178  1.00  0.00     0.163 HD
HETATM   16  C33 UNL     1      21.787  27.231  17.354  1.00  0.00     0.246 C
HETATM   17  O7  UNL     1      21.137  28.218  17.861  1.00  0.00    -0.268 OA
HETATM   18  C34 UNL     1      21.151  25.998  16.861  1.00  0.00     0.007 C
HETATM   19  C35 UNL     1      20.459  26.318  15.559  1.00  0.00     0.051 C
ENDROOT
BRANCH   9  20
HETATM   20  C20 UNL     1      25.760  23.645  20.924  1.00  0.00     0.079 C
BRANCH  20  21
HETATM   21  C21 UNL     1      26.716  24.667  21.328  1.00  0.00    -0.052 A
HETATM   22  C22 UNL     1      27.896  24.823  20.636  1.00  0.00     0.010 A
HETATM   23  C23 UNL     1      28.785  25.805  21.052  1.00  0.00     0.040 A
HETATM   24  C24 UNL     1      28.518  26.622  22.134  1.00  0.00     0.105 A
HETATM   25  C25 UNL     1      27.350  26.465  22.815  1.00  0.00     0.105 A
HETATM   26  O4  UNL     1      29.237  27.666  22.744  1.00  0.00    -0.323 OA
HETATM   27  C26 UNL     1      26.450  25.481  22.405  1.00  0.00     0.047 A
HETATM   28  O3  UNL     1      27.350  27.405  23.835  1.00  0.00    -0.323 OA
HETATM   29  C27 UNL     1      28.443  28.278  23.716  1.00  0.00     0.352 C
ENDBRANCH  20  21
ENDBRANCH   9  20
BRANCH   8  30
HETATM   30  O2  UNL     1      23.075  22.703  19.430  1.00  0.00    -0.347 OA
ATOM     31  H2  UNL     1      23.761  22.515  18.800  1.00  0.00     0.219 HD
ENDBRANCH   8  30
BRANCH   5  32
HETATM   32  C13 UNL     1      22.246  26.582  21.592  1.00  0.00     0.036 C
HETATM   33  C14 UNL     1      23.494  26.428  22.416  1.00  0.00     0.016 C
BRANCH  32  34
HETATM   34  C15 UNL     1      21.335  27.378  22.505  1.00  0.00     0.006 C
HETATM   35  C16 UNL     1      21.714  27.341  23.948  1.00  0.00     0.006 C
ENDBRANCH  32  34
ENDBRANCH   5  32
BRANCH  13  36
HETATM   36  C30 UNL     1      25.321  26.628  16.406  1.00  0.00     0.045 C
BRANCH  36  37
HETATM   37  C31 UNL     1      25.288  27.844  15.578  1.00  0.00     0.076 C
BRANCH  37  38
HETATM   38  S1  UNL     1      27.027  28.390  15.350  1.00  0.00    -0.173 SA
HETATM   39  C32 UNL     1      27.783  28.787  16.927  1.00  0.00     0.089 C
ENDBRANCH  37  38
ENDBRANCH  36  37
ENDBRANCH  13  36
BRANCH   4  40
HETATM   40  O1  UNL     1      19.264  25.235  21.052  1.00  0.00    -0.345 OA
ATOM     41  H1  UNL     1      19.004  25.968  21.598  1.00  0.00     0.219 HD
ENDBRANCH   4  40
BRANCH   1  42
HETATM   42  C7  UNL     1      19.217  24.395  17.353  1.00  0.00    -0.023 C
HETATM   43  C8  UNL     1      17.967  25.160  17.673  1.00  0.00     0.017 C
HETATM   44  C9  UNL     1      19.137  23.146  18.265  1.00  0.00     0.017 C
BRANCH  42  45
HETATM   45  C6  UNL     1      19.171  23.862  15.986  1.00  0.00     0.011 C
BRANCH  45  46
HETATM   46  C5  UNL     1      17.878  24.042  15.244  1.00  0.00     0.001 C
BRANCH  46  47
HETATM   47  C4  UNL     1      17.183  22.703  15.171  1.00  0.00     0.000 C
BRANCH  47  48
HETATM   48  C3  UNL     1      15.741  22.750  15.629  1.00  0.00    -0.000 C
BRANCH  48  49
HETATM   49  C2  UNL     1      15.612  22.268  17.062  1.00  0.00    -0.005 C
HETATM   50  C1  UNL     1      14.831  23.285  17.875  1.00  0.00     0.005 C
ENDBRANCH  48  49
ENDBRANCH  47  48
ENDBRANCH  46  47
ENDBRANCH  45  46
ENDBRANCH  42  45
ENDBRANCH   1  42
TORSDOF 15
ENDMDL