MODEL 5
REMARK VINA RESULT: -7.576165441      1.058      1.859
REMARK  15 active torsions:
REMARK  status: ('A' for Active; 'I' for Inactive)
REMARK    1  A    between atoms: C2_2  and  C3_3
REMARK    2  A    between atoms: C14_15  and  C15_16
REMARK    3  A    between atoms: C15_16  and  O2_17
REMARK    4  A    between atoms: C15_16  and  C16_19
REMARK    5  A    between atoms: C16_19  and  C17_20
REMARK    6  A    between atoms: C17_20  and  C18_21
REMARK    7  A    between atoms: C18_21  and  C19_22
REMARK    8  A    between atoms: C25_29  and  C26_30
REMARK    9  A    between atoms: C26_30  and  C27_31
REMARK   10  A    between atoms: C27_31  and  C28_32
REMARK   11  A    between atoms: C29_33  and  C31_35
REMARK   12  A    between atoms: C31_35  and  C32_36
REMARK   13  A    between atoms: C32_36  and  O4_37
REMARK   14  A    between atoms: O4_37  and  C33_38
REMARK   15  A    between atoms: C40_48  and  O8_49
ROOT
HETATM    1  C3  UNL     1      12.515  20.717  13.017  1.00  0.00     0.050 C
HETATM    2  C4  UNL     1      13.600  20.645  11.922  1.00  0.00     0.019 C
HETATM    3  C5  UNL     1      14.525  21.811  12.197  1.00  0.00     0.080 C
HETATM    4  C6  UNL     1      15.226  21.388  13.471  1.00  0.00     0.144 C
HETATM    5  O1  UNL     1      16.156  20.695  13.259  1.00  0.00    -0.296 OA
HETATM    6  C7  UNL     1      14.781  21.799  14.836  1.00  0.00     0.078 C
HETATM    7  C8  UNL     1      14.396  23.229  14.740  1.00  0.00    -0.066 C
HETATM    8  C9  UNL     1      13.089  23.878  14.848  1.00  0.00     0.044 C
HETATM    9  C10 UNL     1      15.404  24.093  14.540  1.00  0.00    -0.017 C
HETATM   10  C11 UNL     1      16.827  23.746  14.412  1.00  0.00     0.022 A
HETATM   11  C12 UNL     1      17.177  22.468  15.152  1.00  0.00     0.006 A
HETATM   12  C13 UNL     1      18.095  23.286  16.022  1.00  0.00     0.014 A
HETATM   13  C14 UNL     1      17.706  23.463  17.447  1.00  0.00     0.089 C
HETATM   14  C21 UNL     1      16.842  24.686  17.467  1.00  0.00     0.134 C
HETATM   15  O3  UNL     1      16.025  24.978  18.292  1.00  0.00    -0.297 OA
HETATM   16  C22 UNL     1      17.184  25.505  16.248  1.00  0.00     0.089 C
HETATM   17  C23 UNL     1      17.773  24.537  15.257  1.00  0.00    -0.025 A
HETATM   18  C24 UNL     1      18.906  25.171  14.482  1.00  0.00     0.016 C
HETATM   19  C25 UNL     1      16.020  21.824  15.767  1.00  0.00     0.026 C
HETATM   20  C35 UNL     1      13.778  20.839  15.274  1.00  0.00     0.027 C
HETATM   21  C36 UNL     1      12.948  21.244  16.436  1.00  0.00     0.188 C
HETATM   22  O6  UNL     1      13.263  22.009  17.313  1.00  0.00    -0.290 OA
HETATM   23  C37 UNL     1      11.665  20.556  16.342  1.00  0.00     0.234 A
HETATM   24  O7  UNL     1      10.786  20.782  15.292  1.00  0.00    -0.358 OA
HETATM   25  C38 UNL     1      11.700  19.766  15.121  1.00  0.00     0.127 A
HETATM   26  C39 UNL     1      11.275  18.324  15.263  1.00  0.00     0.053 C
HETATM   27  C40 UNL     1      12.918  20.136  14.289  1.00  0.00     0.127 C
ENDROOT
BRANCH  19  28
HETATM   28  C26 UNL     1      16.344  20.509  16.353  1.00  0.00     0.091 C
BRANCH  28  29
HETATM   29  C27 UNL     1      15.855  19.817  17.274  1.00  0.00    -0.155 C
BRANCH  29  30
HETATM   30  C28 UNL     1      15.302  19.034  18.313  1.00  0.00     0.053 C
HETATM   31  C29 UNL     1      14.638  19.306  19.386  1.00  0.00    -0.075 C
HETATM   32  C30 UNL     1      14.247  20.618  19.863  1.00  0.00     0.044 C
BRANCH  31  33
HETATM   33  C31 UNL     1      14.150  18.145  20.223  1.00  0.00     0.061 C
BRANCH  33  34
HETATM   34  C32 UNL     1      12.969  18.535  21.078  1.00  0.00     0.183 C
BRANCH  34  35
HETATM   35  O4  UNL     1      11.787  17.886  20.665  1.00  0.00    -0.321 OA
BRANCH  35  36
HETATM   36  C33 UNL     1      11.338  17.791  19.375  1.00  0.00     0.254 C
HETATM   37  C34 UNL     1      11.388  16.565  18.545  1.00  0.00     0.126 C
HETATM   38  O5  UNL     1      10.837  18.822  18.827  1.00  0.00    -0.266 OA
ENDBRANCH  35  36
ENDBRANCH  34  35
ENDBRANCH  33  34
ENDBRANCH  31  33
ENDBRANCH  29  30
ENDBRANCH  28  29
ENDBRANCH  19  28
BRANCH  27  39
HETATM   39  O8  UNL     1      13.447  18.857  13.910  1.00  0.00    -0.381 OA
ATOM     40  H8  UNL     1      13.890  18.565  14.699  1.00  0.00     0.211 HD
ENDBRANCH  27  39
BRANCH   1  41
HETATM   41  C2  UNL     1      11.436  19.825  12.420  1.00  0.00    -0.029 C
HETATM   42  C1  UNL     1      11.695  19.121  11.334  1.00  0.00     0.007 C
ENDBRANCH   1  41
BRANCH  13  43
HETATM   43  C15 UNL     1      18.863  23.635  18.392  1.00  0.00     0.130 C
BRANCH  43  44
HETATM   44  O2  UNL     1      19.072  22.512  19.187  1.00  0.00    -0.395 OA
ATOM     45  H2  UNL     1      18.601  22.558  20.012  1.00  0.00     0.210 HD
ENDBRANCH  43  44
BRANCH  43  46
HETATM   46  C16 UNL     1      20.111  24.213  17.786  1.00  0.00     0.032 C
BRANCH  46  47
HETATM   47  C17 UNL     1      20.907  24.916  18.878  1.00  0.00     0.002 C
BRANCH  47  48
HETATM   48  C18 UNL     1      21.338  26.274  18.431  1.00  0.00    -0.000 C
BRANCH  48  49
HETATM   49  C19 UNL     1      20.460  26.799  17.348  1.00  0.00    -0.005 C
HETATM   50  C20 UNL     1      21.320  27.539  16.308  1.00  0.00     0.005 C
ENDBRANCH  48  49
ENDBRANCH  47  48
ENDBRANCH  46  47
ENDBRANCH  43  46
ENDBRANCH  13  43
TORSDOF 15
ENDMDL