MODEL 1
REMARK VINA RESULT: -10.416345526      0.000      0.000
REMARK  14 active torsions:
REMARK  status: ('A' for Active; 'I' for Inactive)
REMARK       I    between atoms: C2_2  and  N1_4
REMARK    1  A    between atoms: C6_8  and  C7_9
REMARK    2  A    between atoms: C7_9  and  N2_10
REMARK    3  A    between atoms: C8_11  and  C9_12
REMARK    4  A    between atoms: C9_12  and  C10_13
REMARK    5  A    between atoms: C10_13  and  C11_14
REMARK    6  A    between atoms: C11_14  and  C12_15
REMARK    7  A    between atoms: C12_15  and  C13_16
REMARK    8  A    between atoms: N5_22  and  C15_24
REMARK    9  A    between atoms: C15_24  and  C17_27
REMARK   10  A    between atoms: C17_27  and  O2_29
REMARK   11  A    between atoms: O2_29  and  C19_30
REMARK       I    between atoms: C19_30  and  N7_32
REMARK   12  A    between atoms: C24_37  and  C25_38
REMARK   13  A    between atoms: C29_45  and  C30_46
REMARK   14  A    between atoms: C30_46  and  C31_47
ROOT
HETATM    1  C15 UNL     1      14.421  20.825  13.963  1.00  0.00     0.221 C
HETATM    2  C16 UNL     1      15.137  20.742  12.702  1.00  0.00     0.087 C
HETATM    3  N6  UNL     1      15.723  20.680  11.708  1.00  0.00    -0.195 NA
ENDROOT
BRANCH   1   4
HETATM    4  N5  UNL     1      14.190  22.195  14.366  1.00  0.00    -0.335 N
HETATM    5  C14 UNL     1      14.293  22.495  15.607  1.00  0.00     0.241 A
HETATM    6  N4  UNL     1      14.115  23.709  16.163  1.00  0.00    -0.263 N
HETATM    7  O6  UNL     1      14.595  21.688  16.593  1.00  0.00    -0.264 OA
HETATM    8  N3  UNL     1      14.309  23.610  17.466  1.00  0.00    -0.280 N
ATOM      9  H4  UNL     1      13.870  24.563  15.661  1.00  0.00     0.190 HD
HETATM   10  C13 UNL     1      14.616  22.314  17.727  1.00  0.00     0.142 A
ATOM     11  H3  UNL     1      14.241  24.366  18.148  1.00  0.00     0.189 HD
ATOM     12  H5  UNL     1      13.949  22.907  13.676  1.00  0.00     0.164 HD
BRANCH  10  13
HETATM   13  C12 UNL     1      14.918  21.741  19.084  1.00  0.00     0.086 C
BRANCH  13  14
HETATM   14  C11 UNL     1      16.092  20.809  18.913  1.00  0.00     0.008 C
BRANCH  14  15
HETATM   15  C10 UNL     1      17.343  21.388  19.462  1.00  0.00     0.006 C
BRANCH  15  16
HETATM   16  C9  UNL     1      18.482  21.446  18.478  1.00  0.00     0.057 C
BRANCH  16  17
HETATM   17  C8  UNL     1      18.384  22.553  17.504  1.00  0.00     0.012 A
HETATM   18  N2  UNL     1      18.757  23.855  17.682  1.00  0.00    -0.350 N
HETATM   19  C29 UNL     1      18.464  24.508  16.512  1.00  0.00     0.037 A
HETATM   20  C27 UNL     1      17.919  23.634  15.619  1.00  0.00    -0.034 A
HETATM   21  C26 UNL     1      17.870  22.402  16.245  1.00  0.00     0.034 A
HETATM   22  C28 UNL     1      17.380  23.815  14.227  1.00  0.00     0.050 C
BRANCH  18  23
HETATM   23  C7  UNL     1      19.260  24.351  18.909  1.00  0.00     0.135 C
BRANCH  23  24
HETATM   24  C6  UNL     1      20.696  24.566  19.101  1.00  0.00     0.022 C
HETATM   25  C5  UNL     1      21.239  23.388  19.952  1.00  0.00     0.009 C
HETATM   26  C4  UNL     1      20.697  23.438  21.340  1.00  0.00     0.020 C
HETATM   27  C3  UNL     1      20.825  24.784  21.992  1.00  0.00     0.125 C
HETATM   28  N1  UNL     1      21.327  25.806  21.133  1.00  0.00    -0.352 N
HETATM   29  C2  UNL     1      21.998  26.907  21.722  1.00  0.00     0.215 C
HETATM   30  C34 UNL     1      21.203  25.807  19.691  1.00  0.00     0.132 C
HETATM   31  C1  UNL     1      22.179  27.002  23.194  1.00  0.00     0.117 C
HETATM   32  O1  UNL     1      22.465  27.845  21.009  1.00  0.00    -0.274 OA
ENDBRANCH  23  24
ENDBRANCH  18  23
BRANCH  19  33
HETATM   33  C30 UNL     1      18.647  25.933  16.272  1.00  0.00     0.007 C
BRANCH  33  34
HETATM   34  C31 UNL     1      19.823  26.460  15.584  1.00  0.00     0.002 C
HETATM   35  C32 UNL     1      20.980  25.569  15.309  1.00  0.00     0.013 C
HETATM   36  C33 UNL     1      19.340  27.048  14.234  1.00  0.00     0.013 C
ENDBRANCH  33  34
ENDBRANCH  19  33
ENDBRANCH  16  17
ENDBRANCH  15  16
ENDBRANCH  14  15
ENDBRANCH  13  14
ENDBRANCH  10  13
ENDBRANCH   1   4
BRANCH   1  37
HETATM   37  C17 UNL     1      13.047  20.191  13.803  1.00  0.00     0.166 C
HETATM   38  C18 UNL     1      12.120  21.301  13.336  1.00  0.00     0.043 C
BRANCH  37  39
HETATM   39  O2  UNL     1      12.585  19.591  14.988  1.00  0.00    -0.296 OA
BRANCH  39  40
HETATM   40  C19 UNL     1      11.587  18.616  14.917  1.00  0.00     0.364 C
HETATM   41  O3  UNL     1      11.031  18.440  13.797  1.00  0.00    -0.238 OA
HETATM   42  N7  UNL     1      11.202  17.846  16.050  1.00  0.00    -0.313 N
HETATM   43  C20 UNL     1      10.166  16.857  15.906  1.00  0.00     0.129 C
HETATM   44  C24 UNL     1      11.834  18.048  17.326  1.00  0.00     0.190 C
HETATM   45  C21 UNL     1      10.682  15.538  16.392  1.00  0.00     0.020 C
HETATM   46  C22 UNL     1      11.136  15.694  17.828  1.00  0.00     0.004 C
HETATM   47  C23 UNL     1      12.219  16.733  17.968  1.00  0.00     0.037 C
BRANCH  44  48
HETATM   48  C25 UNL     1      10.983  18.848  18.225  1.00  0.00     0.197 C
HETATM   49  O4  UNL     1      10.771  18.469  19.399  1.00  0.00    -0.646 OA
HETATM   50  O5  UNL     1      10.413  20.020  17.778  1.00  0.00    -0.646 OA
ENDBRANCH  44  48
ENDBRANCH  39  40
ENDBRANCH  37  39
ENDBRANCH   1  37
TORSDOF 14
ENDMDL