MODEL 5
REMARK VINA RESULT: -8.453956644      4.357     10.903
REMARK  14 active torsions:
REMARK  status: ('A' for Active; 'I' for Inactive)
REMARK    1  A    between atoms: C15_16  and  O2_17
REMARK    2  A    between atoms: O2_17  and  C16_18
REMARK    3  A    between atoms: C16_18  and  C17_20
REMARK    4  A    between atoms: C17_20  and  C18_21
REMARK    5  A    between atoms: C18_21  and  N1_22
REMARK       I    between atoms: N1_22  and  C19_23
REMARK    6  A    between atoms: C19_23  and  C20_25
REMARK    7  A    between atoms: C20_25  and  C21_26
REMARK    8  A    between atoms: C21_26  and  C22_27
REMARK    9  A    between atoms: C22_27  and  C23_28
REMARK   10  A    between atoms: C23_28  and  C24_29
REMARK   11  A    between atoms: C24_29  and  C25_30
REMARK   12  A    between atoms: C25_30  and  C26_31
REMARK       I    between atoms: N2_32  and  C27_34
REMARK   13  A    between atoms: C27_34  and  C28_36
REMARK   14  A    between atoms: C34_46  and  O8_47
ROOT
HETATM    1  C28 UNL     1      12.947  21.163  12.696  1.00  0.00     0.226 C
HETATM    2  C29 UNL     1      13.904  22.123  12.167  1.00  0.00     0.068 C
HETATM    3  N3  UNL     1      14.678  22.911  11.765  1.00  0.00    -0.197 NA
ENDROOT
BRANCH   1   4
HETATM    4  C27 UNL     1      13.690  20.124  13.450  1.00  0.00     0.234 C
HETATM    5  N2  UNL     1      13.059  19.018  14.030  1.00  0.00    -0.340 N
HETATM    6  C26 UNL     1      11.784  18.899  14.022  1.00  0.00     0.064 C
ATOM      7  H2  UNL     1      13.626  18.292  14.468  1.00  0.00     0.167 HD
HETATM    8  O5  UNL     1      14.937  20.217  13.592  1.00  0.00    -0.272 OA
BRANCH   6   9
HETATM    9  C25 UNL     1      11.252  17.664  14.683  1.00  0.00     0.044 C
BRANCH   9  10
HETATM   10  C24 UNL     1      10.896  18.043  16.131  1.00  0.00     0.005 C
BRANCH  10  11
HETATM   11  C23 UNL     1      11.263  16.868  17.002  1.00  0.00     0.000 C
BRANCH  11  12
HETATM   12  C22 UNL     1      10.482  16.973  18.300  1.00  0.00     0.001 C
BRANCH  12  13
HETATM   13  C21 UNL     1      11.202  17.796  19.291  1.00  0.00     0.010 C
BRANCH  13  14
HETATM   14  C20 UNL     1      12.618  17.492  19.501  1.00  0.00     0.119 C
BRANCH  14  15
HETATM   15  C19 UNL     1      13.490  18.759  19.549  1.00  0.00     0.291 C
HETATM   16  N1  UNL     1      13.303  19.611  18.547  1.00  0.00    -0.383 NA
HETATM   17  O4  UNL     1      14.292  18.822  20.557  1.00  0.00    -0.257 OA
BRANCH  16  18
HETATM   18  C18 UNL     1      13.115  20.496  17.510  1.00  0.00     0.192 C
BRANCH  18  19
HETATM   19  C17 UNL     1      14.246  21.383  17.183  1.00  0.00     0.114 C
BRANCH  19  20
HETATM   20  C16 UNL     1      14.809  22.302  18.139  1.00  0.00     0.286 C
HETATM   21  O3  UNL     1      14.406  23.495  18.254  1.00  0.00    -0.260 OA
BRANCH  20  22
HETATM   22  O2  UNL     1      15.836  22.002  19.021  1.00  0.00    -0.297 OA
BRANCH  22  23
HETATM   23  C15 UNL     1      17.030  21.346  18.773  1.00  0.00     0.254 C
HETATM   24  C14 UNL     1      17.848  21.162  20.049  1.00  0.00     0.049 C
HETATM   25  C13 UNL     1      18.459  22.418  20.549  1.00  0.00     0.010 C
HETATM   26  C12 UNL     1      19.039  23.323  19.521  1.00  0.00     0.013 C
HETATM   27  C11 UNL     1      19.469  22.714  18.263  1.00  0.00     0.116 C
HETATM   28  C30 UNL     1      20.117  24.189  20.143  1.00  0.00    -0.034 C
HETATM   29  C10 UNL     1      19.810  23.830  17.312  1.00  0.00     0.021 C
HETATM   30  S1  UNL     1      18.033  21.938  17.460  1.00  0.00     0.176 S
HETATM   31  C9  UNL     1      20.790  24.827  17.797  1.00  0.00     0.008 C
HETATM   32  C8  UNL     1      20.680  25.224  19.230  1.00  0.00     0.009 C
HETATM   33  C6  UNL     1      21.986  25.854  19.662  1.00  0.00     0.010 C
HETATM   34  C5  UNL     1      22.819  26.229  18.497  1.00  0.00    -0.010 C
HETATM   35  C7  UNL     1      21.702  27.213  20.349  1.00  0.00     0.023 C
HETATM   36  C34 UNL     1      22.761  25.044  20.640  1.00  0.00     0.079 C
HETATM   37  C4  UNL     1      24.098  26.475  18.588  1.00  0.00     0.047 C
HETATM   38  C3  UNL     1      24.720  26.370  19.906  1.00  0.00     0.155 C
HETATM   39  C2  UNL     1      24.218  25.282  20.756  1.00  0.00     0.091 C
HETATM   40  O1  UNL     1      25.624  27.169  20.264  1.00  0.00    -0.293 OA
HETATM   41  C1  UNL     1      25.079  24.062  20.427  1.00  0.00     0.021 C
HETATM   42  C33 UNL     1      22.551  23.556  20.379  1.00  0.00     0.040 C
HETATM   43  C32 UNL     1      21.114  23.279  20.760  1.00  0.00     0.013 C
HETATM   44  O6  UNL     1      18.611  20.828  16.633  1.00  0.00    -0.225 OA
HETATM   45  O7  UNL     1      17.353  22.857  16.534  1.00  0.00    -0.225 OA
HETATM   46  C31 UNL     1      19.341  24.902  21.279  1.00  0.00     0.016 C
BRANCH  36  47
HETATM   47  O8  UNL     1      22.268  25.225  21.972  1.00  0.00    -0.388 OA
ATOM     48  H8  UNL     1      21.402  24.835  21.955  1.00  0.00     0.210 HD
ENDBRANCH  36  47
ENDBRANCH  22  23
ENDBRANCH  20  22
ENDBRANCH  19  20
ENDBRANCH  18  19
ENDBRANCH  16  18
ENDBRANCH  14  15
ENDBRANCH  13  14
ENDBRANCH  12  13
ENDBRANCH  11  12
ENDBRANCH  10  11
ENDBRANCH   9  10
ENDBRANCH   6   9
ENDBRANCH   1   4
TORSDOF 14
ENDMDL