MODEL 1
REMARK VINA RESULT: -10.105659191      0.000      0.000
REMARK  18 active torsions:
REMARK  status: ('A' for Active; 'I' for Inactive)
REMARK    1  A    between atoms: O1_1  and  C1_3
REMARK    2  A    between atoms: C1_3  and  C2_4
REMARK    3  A    between atoms: C1_3  and  N1_17
REMARK    4  A    between atoms: C2_4  and  C3_5
REMARK    5  A    between atoms: C7_9  and  C8_10
REMARK    6  A    between atoms: N1_17  and  C15_18
REMARK    7  A    between atoms: C16_23  and  C17_24
REMARK    8  A    between atoms: C17_24  and  C18_25
REMARK    9  A    between atoms: C18_25  and  C19_26
REMARK   10  A    between atoms: C19_26  and  C20_27
REMARK   11  A    between atoms: C20_27  and  C21_28
REMARK   12  A    between atoms: C22_33  and  N6_34
REMARK   13  A    between atoms: N6_34  and  C23_35
REMARK   14  A    between atoms: C23_35  and  O2_36
REMARK   15  A    between atoms: C23_35  and  C24_38
REMARK   16  A    between atoms: C27_41  and  C28_42
REMARK   17  A    between atoms: C28_42  and  C29_43
REMARK   18  A    between atoms: C29_43  and  C30_45
ROOT
HETATM    1  C19 UNL     1      17.957  23.546  20.472  1.00  0.00     0.008 C
ENDROOT
BRANCH   1   2
HETATM    2  C18 UNL     1      17.647  22.080  20.421  1.00  0.00     0.007 C
BRANCH   2   3
HETATM    3  C17 UNL     1      17.534  21.561  19.011  1.00  0.00     0.066 C
BRANCH   3   4
HETATM    4  C16 UNL     1      16.061  21.317  18.766  1.00  0.00     0.070 A
HETATM    5  N3  UNL     1      15.051  22.153  18.878  1.00  0.00    -0.295 N
HETATM    6  N2  UNL     1      13.878  21.820  18.635  1.00  0.00    -0.267 N
ATOM      7  H3  UNL     1      15.238  23.111  19.177  1.00  0.00     0.187 HD
HETATM    8  C15 UNL     1      13.622  20.528  18.231  1.00  0.00     0.241 A
ATOM      9  H2  UNL     1      13.118  22.493  18.733  1.00  0.00     0.190 HD
HETATM   10  S1  UNL     1      15.260  19.910  18.260  1.00  0.00    -0.023 SA
BRANCH   8  11
HETATM   11  N1  UNL     1      12.575  20.031  17.944  1.00  0.00    -0.358 NA
BRANCH  11  12
HETATM   12  C1  UNL     1      11.437  19.493  17.667  1.00  0.00     0.197 C
BRANCH  12  13
HETATM   13  O1  UNL     1      10.334  20.174  17.788  1.00  0.00    -0.339 OA
ATOM     14  H1  UNL     1      10.397  20.845  18.458  1.00  0.00     0.220 HD
ENDBRANCH  12  13
BRANCH  12  15
HETATM   15  C2  UNL     1      11.187  18.069  17.184  1.00  0.00     0.138 C
BRANCH  15  16
HETATM   16  C3  UNL     1      11.168  18.077  15.710  1.00  0.00    -0.049 A
HETATM   17  C4  UNL     1      10.663  17.032  14.976  1.00  0.00     0.007 A
HETATM   18  C5  UNL     1      10.676  17.092  13.604  1.00  0.00     0.001 A
HETATM   19  C6  UNL     1      11.182  18.171  12.914  1.00  0.00     0.012 A
HETATM   20  C7  UNL     1      11.684  19.206  13.695  1.00  0.00    -0.025 A
HETATM   21  C14 UNL     1      11.682  19.169  15.054  1.00  0.00     0.020 A
BRANCH  20  22
HETATM   22  C8  UNL     1      12.240  20.381  12.998  1.00  0.00    -0.026 A
HETATM   23  C9  UNL     1      11.640  21.614  13.172  1.00  0.00     0.012 A
HETATM   24  C10 UNL     1      12.171  22.709  12.515  1.00  0.00     0.001 A
HETATM   25  C11 UNL     1      13.276  22.608  11.696  1.00  0.00     0.000 A
HETATM   26  C12 UNL     1      13.860  21.366  11.536  1.00  0.00     0.001 A
HETATM   27  C13 UNL     1      13.343  20.244  12.188  1.00  0.00     0.012 A
ENDBRANCH  20  22
ENDBRANCH  15  16
ENDBRANCH  12  15
ENDBRANCH  11  12
ENDBRANCH   8  11
ENDBRANCH   3   4
ENDBRANCH   2   3
ENDBRANCH   1   2
BRANCH   1  28
HETATM   28  C20 UNL     1      19.416  23.863  20.281  1.00  0.00     0.078 C
BRANCH  28  29
HETATM   29  C21 UNL     1      19.629  24.731  19.099  1.00  0.00     0.096 A
HETATM   30  N4  UNL     1      20.095  25.978  19.299  1.00  0.00    -0.287 N
HETATM   31  N5  UNL     1      20.308  26.805  18.302  1.00  0.00    -0.271 N
ATOM     32  H4  UNL     1      20.290  26.288  20.251  1.00  0.00     0.188 HD
HETATM   33  C22 UNL     1      20.070  26.463  16.987  1.00  0.00     0.219 A
ATOM     34  H5  UNL     1      20.663  27.739  18.508  1.00  0.00     0.189 HD
HETATM   35  C27 UNL     1      19.583  25.159  16.793  1.00  0.00     0.078 A
HETATM   36  N7  UNL     1      19.387  24.362  17.838  1.00  0.00    -0.344 N
ATOM     37  H7  UNL     1      19.033  23.421  17.669  1.00  0.00     0.167 HD
BRANCH  33  38
HETATM   38  N6  UNL     1      20.288  27.270  16.142  1.00  0.00    -0.363 NA
BRANCH  38  39
HETATM   39  C23 UNL     1      20.597  28.115  15.188  1.00  0.00     0.196 C
BRANCH  39  40
HETATM   40  O2  UNL     1      19.643  28.810  14.638  1.00  0.00    -0.339 OA
ATOM     41  H2  UNL     1      18.937  28.349  14.202  1.00  0.00     0.220 HD
ENDBRANCH  39  40
BRANCH  39  42
HETATM   42  C24 UNL     1      21.952  28.408  14.615  1.00  0.00     0.075 A
HETATM   43  C25 UNL     1      22.849  29.142  15.634  1.00  0.00     0.015 A
HETATM   44  C26 UNL     1      23.148  27.762  15.183  1.00  0.00     0.015 A
ENDBRANCH  39  42
ENDBRANCH  38  39
ENDBRANCH  33  38
BRANCH  35  45
HETATM   45  C28 UNL     1      19.297  24.695  15.428  1.00  0.00     0.146 C
BRANCH  45  46
HETATM   46  C29 UNL     1      17.910  25.098  15.043  1.00  0.00     0.165 C
HETATM   47  O3  UNL     1      17.598  26.261  14.695  1.00  0.00    -0.292 OA
BRANCH  46  48
HETATM   48  C30 UNL     1      16.854  24.090  15.071  1.00  0.00     0.010 A
HETATM   49  C31 UNL     1      15.521  24.434  15.018  1.00  0.00     0.015 A
HETATM   50  C32 UNL     1      14.515  23.486  15.047  1.00  0.00     0.001 A
HETATM   51  C33 UNL     1      14.804  22.141  15.132  1.00  0.00     0.000 A
HETATM   52  C34 UNL     1      16.150  21.790  15.187  1.00  0.00     0.001 A
HETATM   53  C35 UNL     1      17.153  22.735  15.157  1.00  0.00     0.015 A
ENDBRANCH  46  48
ENDBRANCH  45  46
ENDBRANCH  35  45
ENDBRANCH  28  29
ENDBRANCH   1  28
TORSDOF 18
ENDMDL