MODEL 4
REMARK VINA RESULT: -9.977181272      3.563     11.800
REMARK  13 active torsions:
REMARK  status: ('A' for Active; 'I' for Inactive)
REMARK    1  A    between atoms: C5_6  and  N2_7
REMARK    2  A    between atoms: N3_10  and  C8_11
REMARK    3  A    between atoms: C8_11  and  C9_12
REMARK    4  A    between atoms: C9_12  and  C10_13
REMARK    5  A    between atoms: C10_13  and  C11_14
REMARK    6  A    between atoms: C11_14  and  N4_15
REMARK    7  A    between atoms: N4_15  and  C12_16
REMARK    8  A    between atoms: C14_18  and  C15_19
REMARK    9  A    between atoms: C15_19  and  N5_20
REMARK   10  A    between atoms: N5_20  and  C16_22
REMARK   11  A    between atoms: C16_22  and  C17_23
REMARK   12  A    between atoms: N6_31  and  C25_32
REMARK   13  A    between atoms: C25_32  and  C26_33
ROOT
HETATM    1  C12 UNL     1      14.500  20.508  17.955  1.00  0.00     0.178 A
HETATM    2  C13 UNL     1      14.657  21.040  16.671  1.00  0.00     0.072 A
HETATM    3  C14 UNL     1      14.629  22.398  16.398  1.00  0.00    -0.035 A
HETATM    4  C31 UNL     1      14.441  23.229  17.453  1.00  0.00     0.026 A
HETATM    5  C32 UNL     1      14.285  22.721  18.714  1.00  0.00     0.091 A
HETATM    6  N8  UNL     1      14.314  21.389  18.946  1.00  0.00    -0.341 N
ATOM      7  H8  UNL     1      14.192  21.047  19.900  1.00  0.00     0.167 HD
ENDROOT
BRANCH   1   8
HETATM    8  N4  UNL     1      14.499  19.311  18.177  1.00  0.00    -0.404 NA
BRANCH   8   9
HETATM    9  C11 UNL     1      14.463  18.016  18.446  1.00  0.00     0.157 C
BRANCH   9  10
HETATM   10  C10 UNL     1      13.729  17.506  19.698  1.00  0.00     0.061 C
BRANCH  10  11
HETATM   11  C9  UNL     1      12.473  18.341  19.879  1.00  0.00     0.036 C
BRANCH  11  12
HETATM   12  C8  UNL     1      11.248  17.529  19.613  1.00  0.00     0.273 C
BRANCH  12  13
HETATM   13  N3  UNL     1      10.513  18.028  18.458  1.00  0.00     0.091 N
HETATM   14  C7  UNL     1      10.989  19.369  18.114  1.00  0.00     0.292 C
HETATM   15  C6  UNL     1      10.319  19.716  16.799  1.00  0.00     0.153 C
HETATM   16  N2  UNL     1      11.040  18.956  15.791  1.00  0.00    -0.377 N
HETATM   17  C34 UNL     1      11.766  17.808  16.329  1.00  0.00     0.153 C
HETATM   18  C33 UNL     1      10.871  17.146  17.327  1.00  0.00     0.292 C
BRANCH  16  19
HETATM   19  C5  UNL     1      11.125  19.264  14.423  1.00  0.00     0.046 C
HETATM   20  C4  UNL     1      11.203  18.228  13.516  1.00  0.00     0.019 A
HETATM   21  C3  UNL     1      10.530  17.028  13.641  1.00  0.00     0.033 A
HETATM   22  C39 UNL     1      11.899  18.141  12.323  1.00  0.00     0.046 A
HETATM   23  C2  UNL     1      10.840  16.271  12.539  1.00  0.00     0.092 A
HETATM   24  N1  UNL     1      11.679  16.950  11.720  1.00  0.00    -0.360 N
HETATM   25  C1  UNL     1      12.166  16.420  10.482  1.00  0.00     0.155 C
HETATM   26  C38 UNL     1      12.701  19.105  11.765  1.00  0.00     0.034 C
HETATM   27  C37 UNL     1      12.645  20.447  11.999  1.00  0.00     0.057 C
HETATM   28  C36 UNL     1      11.853  21.131  12.948  1.00  0.00     0.174 C
HETATM   29  C35 UNL     1      11.156  20.610  14.013  1.00  0.00     0.085 C
HETATM   30  O1  UNL     1      11.793  22.355  12.784  1.00  0.00    -0.288 OA
ENDBRANCH  16  19
ENDBRANCH  12  13
ENDBRANCH  11  12
ENDBRANCH  10  11
ENDBRANCH   9  10
ENDBRANCH   8   9
ENDBRANCH   1   8
BRANCH   3  31
HETATM   31  C15 UNL     1      14.759  22.880  14.990  1.00  0.00     0.158 C
BRANCH  31  32
HETATM   32  N5  UNL     1      15.346  24.258  14.988  1.00  0.00    -0.393 N
ATOM     33  H5  UNL     1      14.861  25.143  15.133  1.00  0.00     0.159 HD
BRANCH  32  34
HETATM   34  C16 UNL     1      16.703  24.059  14.743  1.00  0.00     0.113 C
BRANCH  34  35
HETATM   35  C17 UNL     1      17.758  25.062  14.821  1.00  0.00     0.051 A
HETATM   36  C18 UNL     1      17.771  26.314  14.254  1.00  0.00     0.044 A
HETATM   37  C19 UNL     1      19.050  26.848  14.403  1.00  0.00    -0.007 A
HETATM   38  C20 UNL     1      19.686  28.015  14.034  1.00  0.00     0.014 A
HETATM   39  C24 UNL     1      19.817  25.899  15.077  1.00  0.00     0.045 A
HETATM   40  C21 UNL     1      21.019  28.277  14.285  1.00  0.00     0.001 A
HETATM   41  C22 UNL     1      21.725  27.317  14.946  1.00  0.00     0.002 A
HETATM   42  C23 UNL     1      21.154  26.139  15.344  1.00  0.00     0.030 A
HETATM   43  N6  UNL     1      18.987  24.852  15.306  1.00  0.00    -0.341 N
BRANCH  43  44
HETATM   44  C25 UNL     1      19.359  23.717  16.116  1.00  0.00     0.168 C
BRANCH  44  45
HETATM   45  C26 UNL     1      19.062  24.136  17.547  1.00  0.00    -0.037 A
HETATM   46  C27 UNL     1      17.798  24.112  18.079  1.00  0.00     0.026 A
HETATM   47  C28 UNL     1      17.611  24.534  19.385  1.00  0.00     0.088 A
HETATM   48  N7  UNL     1      18.626  24.956  20.121  1.00  0.00    -0.375 N
HETATM   49  C29 UNL     1      19.891  24.997  19.648  1.00  0.00     0.088 A
ATOM     50  H7  UNL     1      18.448  25.260  21.078  1.00  0.00     0.164 HD
HETATM   51  C30 UNL     1      20.078  24.579  18.351  1.00  0.00     0.026 A
ENDBRANCH  44  45
ENDBRANCH  43  44
ENDBRANCH  34  35
ENDBRANCH  32  34
ENDBRANCH  31  32
ENDBRANCH   3  31
TORSDOF 13
ENDMDL