MODEL 5
REMARK VINA RESULT: -8.977572598      1.283      3.418
REMARK  13 active torsions:
REMARK  status: ('A' for Active; 'I' for Inactive)
REMARK    1  A    between atoms: C2_2  and  C3_3
REMARK    2  A    between atoms: C7_7  and  C8_8
REMARK    3  A    between atoms: C8_8  and  C9_9
REMARK    4  A    between atoms: C11_11  and  C12_12
REMARK       I    between atoms: C12_12  and  N1_14
REMARK    5  A    between atoms: C13_16  and  C14_17
REMARK       I    between atoms: C14_17  and  N2_19
REMARK    6  A    between atoms: N2_19  and  C15_20
REMARK    7  A    between atoms: N2_19  and  C19_25
REMARK    8  A    between atoms: C15_20  and  C16_21
REMARK    9  A    between atoms: C16_21  and  N3_22
REMARK   10  A    between atoms: C19_25  and  C20_26
REMARK   11  A    between atoms: C26_35  and  O3_36
REMARK   12  A    between atoms: N6_40  and  C28_41
REMARK   13  A    between atoms: C28_41  and  C29_42
ROOT
HETATM    1  C9  UNL     1      15.393  23.997  14.842  1.00  0.00     0.015 A
HETATM    2  C10 UNL     1      14.269  23.344  15.241  1.00  0.00     0.044 A
HETATM    3  C11 UNL     1      14.114  22.204  14.474  1.00  0.00     0.056 A
HETATM    4  C24 UNL     1      15.176  22.188  13.600  1.00  0.00     0.021 A
HETATM    5  C25 UNL     1      15.418  21.142  12.583  1.00  0.00     0.069 C
HETATM    6  N4  UNL     1      15.927  23.285  13.852  1.00  0.00    -0.362 N
ATOM      7  H4  UNL     1      16.782  23.531  13.353  1.00  0.00     0.165 HD
ENDROOT
BRANCH   1   8
HETATM    8  C8  UNL     1      15.920  25.297  15.382  1.00  0.00     0.102 C
BRANCH   8   9
HETATM    9  C7  UNL     1      17.303  25.254  15.817  1.00  0.00     0.028 A
HETATM   10  C6  UNL     1      17.904  24.975  17.017  1.00  0.00     0.075 A
HETATM   11  C5  UNL     1      19.276  25.239  16.887  1.00  0.00     0.064 A
HETATM   12  N6  UNL     1      17.444  24.550  18.182  1.00  0.00    -0.307 N
HETATM   13  C4  UNL     1      20.170  25.079  17.931  1.00  0.00     0.045 A
HETATM   14  N5  UNL     1      19.517  25.651  15.658  1.00  0.00    -0.330 N
HETATM   15  C3  UNL     1      19.666  24.644  19.132  1.00  0.00     0.012 A
HETATM   16  C35 UNL     1      18.339  24.401  19.205  1.00  0.00     0.254 A
HETATM   17  O4  UNL     1      17.888  24.005  20.307  1.00  0.00    -0.267 OA
HETATM   18  C26 UNL     1      18.368  25.673  14.993  1.00  0.00     0.151 A
HETATM   19  C27 UNL     1      20.846  26.023  15.120  1.00  0.00     0.158 C
BRANCH  15  20
HETATM   20  C2  UNL     1      20.585  24.465  20.317  1.00  0.00     0.040 C
HETATM   21  C1  UNL     1      22.012  24.783  19.897  1.00  0.00     0.010 C
ENDBRANCH  15  20
BRANCH  18  22
HETATM   22  O3  UNL     1      18.254  26.056  13.672  1.00  0.00    -0.345 OA
ATOM     23  H3  UNL     1      18.487  25.522  12.922  1.00  0.00     0.219 HD
ENDBRANCH  18  22
BRANCH  12  24
HETATM   24  C28 UNL     1      16.093  24.112  18.358  1.00  0.00     0.171 C
BRANCH  24  25
HETATM   25  C29 UNL     1      15.921  22.630  18.173  1.00  0.00    -0.040 A
HETATM   26  C30 UNL     1      16.785  21.831  17.497  1.00  0.00     0.009 A
HETATM   27  C31 UNL     1      16.514  20.480  17.381  1.00  0.00     0.001 A
HETATM   28  C32 UNL     1      15.404  19.871  17.916  1.00  0.00     0.000 A
HETATM   29  C33 UNL     1      14.528  20.681  18.602  1.00  0.00     0.001 A
HETATM   30  C34 UNL     1      14.786  22.052  18.728  1.00  0.00     0.009 A
ENDBRANCH  24  25
ENDBRANCH  12  24
ENDBRANCH   8   9
ENDBRANCH   1   8
BRANCH   3  31
HETATM   31  C12 UNL     1      12.996  21.248  14.599  1.00  0.00     0.257 C
HETATM   32  O1  UNL     1      12.633  20.694  13.507  1.00  0.00    -0.267 OA
HETATM   33  N1  UNL     1      12.380  20.960  15.777  1.00  0.00    -0.328 N
HETATM   34  C13 UNL     1      11.729  20.059  16.314  1.00  0.00     0.165 C
ATOM     35  H1  UNL     1      12.492  21.739  16.426  1.00  0.00     0.168 HD
BRANCH  34  36
HETATM   36  C14 UNL     1      11.315  18.762  15.795  1.00  0.00     0.259 C
HETATM   37  O2  UNL     1      11.611  18.395  14.629  1.00  0.00    -0.267 OA
HETATM   38  N2  UNL     1      10.562  17.874  16.585  1.00  0.00    -0.341 N
BRANCH  38  39
HETATM   39  C15 UNL     1      10.072  16.579  16.144  1.00  0.00     0.156 C
BRANCH  39  40
HETATM   40  C16 UNL     1       9.208  15.909  17.140  1.00  0.00     0.291 C
BRANCH  40  41
HETATM   41  N3  UNL     1       9.511  14.587  17.548  1.00  0.00     0.081 N
HETATM   42  C17 UNL     1      10.408  13.889  16.631  1.00  0.00     0.309 C
HETATM   43  C18 UNL     1       8.303  13.800  17.623  1.00  0.00     0.309 C
ENDBRANCH  40  41
ENDBRANCH  39  40
ENDBRANCH  38  39
BRANCH  38  44
HETATM   44  C19 UNL     1      10.289  18.256  17.979  1.00  0.00     0.172 C
BRANCH  44  45
HETATM   45  C20 UNL     1      11.498  18.002  18.826  1.00  0.00     0.000 A
HETATM   46  C21 UNL     1      11.757  18.507  20.071  1.00  0.00     0.017 A
HETATM   47  C22 UNL     1      12.908  18.148  20.657  1.00  0.00     0.008 A
HETATM   48  C23 UNL     1      13.733  17.303  19.959  1.00  0.00     0.050 A
HETATM   49  S1  UNL     1      12.875  17.041  18.513  1.00  0.00    -0.105 SA
ENDBRANCH  44  45
ENDBRANCH  38  44
ENDBRANCH  34  36
ENDBRANCH   3  31
TORSDOF 13
ENDMDL