MODEL 1
REMARK VINA RESULT: -10.776254915      0.000      0.000
REMARK  12 active torsions:
REMARK  status: ('A' for Active; 'I' for Inactive)
REMARK    1  A    between atoms: C1_2  and  C2_3
REMARK       I    between atoms: C1_2  and  N2_16
REMARK    2  A    between atoms: C2_3  and  O2_4
REMARK    3  A    between atoms: O2_4  and  C3_5
REMARK    4  A    between atoms: N2_16  and  C12_18
REMARK    5  A    between atoms: C15_21  and  C16_22
REMARK    6  A    between atoms: C16_22  and  C17_23
REMARK       I    between atoms: C17_23  and  N3_25
REMARK    7  A    between atoms: N3_25  and  C18_26
REMARK    8  A    between atoms: N3_25  and  C28_41
REMARK    9  A    between atoms: C18_26  and  C19_27
REMARK   10  A    between atoms: C19_27  and  C20_28
REMARK   11  A    between atoms: C20_28  and  N4_29
REMARK   12  A    between atoms: C33_46  and  C34_47
ROOT
HETATM    1  C17 UNL     1      15.355  22.839  14.542  1.00  0.00     0.228 C
HETATM    2  O3  UNL     1      16.029  22.851  13.462  1.00  0.00    -0.273 OA
HETATM    3  N3  UNL     1      14.293  21.911  14.691  1.00  0.00    -0.317 N
ENDROOT
BRANCH   1   4
HETATM    4  C16 UNL     1      15.721  23.805  15.591  1.00  0.00     0.141 C
BRANCH   4   5
HETATM    5  C15 UNL     1      16.988  24.525  15.249  1.00  0.00    -0.049 A
HETATM    6  C14 UNL     1      18.226  24.066  15.607  1.00  0.00     0.010 A
HETATM    7  C13 UNL     1      19.393  24.722  15.280  1.00  0.00     0.030 A
HETATM    8  C12 UNL     1      19.344  25.924  14.544  1.00  0.00     0.034 A
HETATM    9  C36 UNL     1      18.102  26.387  14.183  1.00  0.00     0.030 A
HETATM   10  C35 UNL     1      16.939  25.693  14.534  1.00  0.00     0.010 A
BRANCH   8  11
HETATM   11  N2  UNL     1      20.541  26.583  14.252  1.00  0.00    -0.325 N
HETATM   12  C1  UNL     1      20.808  27.923  14.541  1.00  0.00     0.246 C
HETATM   13  O1  UNL     1      19.885  28.615  15.097  1.00  0.00    -0.271 OA
ATOM     14  H2  UNL     1      21.275  26.044  13.795  1.00  0.00     0.169 HD
BRANCH  12  15
HETATM   15  C2  UNL     1      22.097  28.624  14.247  1.00  0.00     0.278 C
BRANCH  15  16
HETATM   16  O2  UNL     1      22.809  28.872  15.397  1.00  0.00    -0.341 OA
BRANCH  16  17
HETATM   17  C3  UNL     1      23.142  27.910  16.314  1.00  0.00     0.083 A
HETATM   18  C4  UNL     1      22.275  27.431  17.272  1.00  0.00     0.054 A
HETATM   19  C5  UNL     1      22.761  26.459  18.133  1.00  0.00     0.091 A
HETATM   20  N1  UNL     1      24.005  25.973  18.079  1.00  0.00    -0.365 N
HETATM   21  C6  UNL     1      24.860  26.438  17.143  1.00  0.00     0.045 A
ATOM     22  H1  UNL     1      24.306  25.257  18.740  1.00  0.00     0.165 HD
HETATM   23  C7  UNL     1      26.158  25.948  17.070  1.00  0.00     0.030 A
HETATM   24  C11 UNL     1      24.436  27.406  16.258  1.00  0.00     0.024 A
HETATM   25  C8  UNL     1      27.026  26.414  16.127  1.00  0.00     0.002 A
HETATM   26  C9  UNL     1      26.581  27.384  15.248  1.00  0.00     0.001 A
HETATM   27  C10 UNL     1      25.304  27.875  15.311  1.00  0.00     0.016 A
ENDBRANCH  16  17
ENDBRANCH  15  16
ENDBRANCH  12  15
ENDBRANCH   8  11
ENDBRANCH   4   5
ENDBRANCH   1   4
BRANCH   3  28
HETATM   28  C18 UNL     1      13.643  21.727  15.975  1.00  0.00     0.134 C
BRANCH  28  29
HETATM   29  C19 UNL     1      13.613  20.376  16.548  1.00  0.00     0.041 C
BRANCH  29  30
HETATM   30  C20 UNL     1      14.931  19.808  16.946  1.00  0.00     0.137 C
BRANCH  30  31
HETATM   31  N4  UNL     1      15.794  20.660  17.685  1.00  0.00    -0.279 N
HETATM   32  C21 UNL     1      17.181  20.934  17.394  1.00  0.00     0.263 A
HETATM   33  O4  UNL     1      17.839  20.474  16.442  1.00  0.00    -0.267 OA
HETATM   34  C22 UNL     1      17.726  21.846  18.390  1.00  0.00     0.065 A
HETATM   35  C23 UNL     1      18.952  22.434  18.611  1.00  0.00     0.021 A
HETATM   36  C26 UNL     1      16.716  22.139  19.282  1.00  0.00     0.117 A
HETATM   37  C24 UNL     1      19.171  23.280  19.674  1.00  0.00     0.018 A
HETATM   38  C25 UNL     1      18.140  23.552  20.547  1.00  0.00     0.088 A
HETATM   39  N5  UNL     1      16.949  22.974  20.323  1.00  0.00    -0.361 N
ATOM     40  H5  UNL     1      16.184  23.172  20.967  1.00  0.00     0.165 HD
HETATM   41  C27 UNL     1      15.520  21.411  18.855  1.00  0.00     0.278 A
HETATM   42  O5  UNL     1      14.432  21.487  19.486  1.00  0.00    -0.265 OA
ENDBRANCH  30  31
ENDBRANCH  29  30
ENDBRANCH  28  29
ENDBRANCH   3  28
BRANCH   3  43
HETATM   43  C28 UNL     1      13.888  21.060  13.627  1.00  0.00     0.054 A
HETATM   44  C29 UNL     1      14.700  19.939  13.340  1.00  0.00     0.031 A
HETATM   45  C30 UNL     1      14.394  19.061  12.335  1.00  0.00     0.002 A
HETATM   46  C31 UNL     1      13.268  19.256  11.571  1.00  0.00     0.001 A
HETATM   47  C32 UNL     1      12.471  20.334  11.833  1.00  0.00     0.021 A
HETATM   48  C33 UNL     1      12.779  21.259  12.879  1.00  0.00     0.067 A
BRANCH  48  49
HETATM   49  C34 UNL     1      11.864  22.352  13.050  1.00  0.00     0.211 C
HETATM   50  O6  UNL     1      12.250  23.524  12.719  1.00  0.00    -0.644 OA
HETATM   51  O7  UNL     1      10.601  22.282  13.539  1.00  0.00    -0.644 OA
ENDBRANCH  48  49
ENDBRANCH   3  43
TORSDOF 12
ENDMDL