MODEL 4
REMARK VINA RESULT: -10.118798832      2.166      3.928
REMARK  12 active torsions:
REMARK  status: ('A' for Active; 'I' for Inactive)
REMARK    1  A    between atoms: C2_2  and  N1_3
REMARK    2  A    between atoms: N1_3  and  C4_5
REMARK    3  A    between atoms: C4_5  and  C5_6
REMARK    4  A    between atoms: C5_6  and  N2_7
REMARK       I    between atoms: N2_7  and  C6_9
REMARK    5  A    between atoms: C6_9  and  C7_11
REMARK    6  A    between atoms: C10_14  and  C11_15
REMARK    7  A    between atoms: C11_15  and  N3_16
REMARK    8  A    between atoms: C16_23  and  N5_24
REMARK       I    between atoms: N5_24  and  C17_26
REMARK    9  A    between atoms: C17_26  and  C18_28
REMARK   10  A    between atoms: C18_28  and  N6_29
REMARK   11  A    between atoms: C21_32  and  C22_33
REMARK   12  A    between atoms: C22_33  and  C23_35
ROOT
HETATM    1  N3  UNL     1      18.080  24.428  17.256  1.00  0.00    -0.299 N
HETATM    2  C12 UNL     1      18.048  23.778  18.425  1.00  0.00     0.099 C
HETATM    3  C13 UNL     1      18.005  22.438  18.769  1.00  0.00     0.020 C
HETATM    4  C14 UNL     1      17.151  21.519  18.164  1.00  0.00     0.032 C
HETATM    5  C15 UNL     1      16.541  21.646  16.912  1.00  0.00     0.049 A
HETATM    6  N4  UNL     1      15.640  20.804  16.389  1.00  0.00    -0.342 N
ATOM      7  H4  UNL     1      15.280  19.961  16.837  1.00  0.00     0.167 HD
HETATM    8  C16 UNL     1      15.291  21.265  15.161  1.00  0.00     0.109 A
HETATM    9  C30 UNL     1      15.976  22.425  14.886  1.00  0.00     0.068 A
HETATM   10  C31 UNL     1      16.783  22.717  15.961  1.00  0.00     0.063 A
HETATM   11  C32 UNL     1      17.629  23.824  16.106  1.00  0.00     0.264 C
HETATM   12  O4  UNL     1      17.995  24.289  15.041  1.00  0.00    -0.267 OA
ENDROOT
BRANCH   1  13
HETATM   13  C11 UNL     1      18.493  25.778  17.199  1.00  0.00     0.112 C
BRANCH  13  14
HETATM   14  C10 UNL     1      19.883  26.181  17.058  1.00  0.00    -0.009 A
HETATM   15  C9  UNL     1      20.822  25.882  18.046  1.00  0.00     0.014 A
HETATM   16  C8  UNL     1      22.107  26.267  17.998  1.00  0.00     0.019 A
HETATM   17  C7  UNL     1      22.596  26.999  16.939  1.00  0.00     0.043 A
HETATM   18  C38 UNL     1      21.712  27.316  15.942  1.00  0.00    -0.009 A
HETATM   19  C33 UNL     1      20.364  26.913  15.992  1.00  0.00    -0.013 A
HETATM   20  C37 UNL     1      22.127  28.048  14.844  1.00  0.00     0.013 A
HETATM   21  C34 UNL     1      19.582  27.278  14.919  1.00  0.00     0.013 A
HETATM   22  C35 UNL     1      19.995  28.002  13.827  1.00  0.00     0.001 A
HETATM   23  C36 UNL     1      21.300  28.402  13.785  1.00  0.00     0.001 A
BRANCH  17  24
HETATM   24  C6  UNL     1      24.025  27.293  16.807  1.00  0.00     0.252 C
HETATM   25  N2  UNL     1      24.526  28.494  17.394  1.00  0.00    -0.355 N
ATOM     26  H2  UNL     1      23.856  29.089  17.882  1.00  0.00     0.162 HD
HETATM   27  O1  UNL     1      24.733  26.481  16.176  1.00  0.00    -0.268 OA
BRANCH  25  28
HETATM   28  C5  UNL     1      25.891  28.937  17.359  1.00  0.00     0.153 C
BRANCH  28  29
HETATM   29  C4  UNL     1      26.717  28.440  18.539  1.00  0.00     0.291 C
BRANCH  29  30
HETATM   30  N1  UNL     1      25.819  28.238  19.693  1.00  0.00     0.085 N
HETATM   31  C3  UNL     1      26.164  29.326  20.617  1.00  0.00     0.309 C
BRANCH  30  32
HETATM   32  C2  UNL     1      26.246  26.988  20.333  1.00  0.00     0.267 C
HETATM   33  C1  UNL     1      25.337  25.842  19.958  1.00  0.00     0.037 C
ENDBRANCH  30  32
ENDBRANCH  29  30
ENDBRANCH  28  29
ENDBRANCH  25  28
ENDBRANCH  17  24
ENDBRANCH  13  14
ENDBRANCH   1  13
BRANCH   8  34
HETATM   34  N5  UNL     1      14.313  20.626  14.309  1.00  0.00    -0.312 N
HETATM   35  C17 UNL     1      12.980  21.088  14.254  1.00  0.00     0.241 C
HETATM   36  O2  UNL     1      12.643  22.087  14.932  1.00  0.00    -0.271 OA
ATOM     37  H5  UNL     1      14.591  19.827  13.737  1.00  0.00     0.170 HD
BRANCH  35  38
HETATM   38  C18 UNL     1      12.015  20.363  13.384  1.00  0.00     0.230 C
BRANCH  38  39
HETATM   39  N6  UNL     1      11.536  19.169  14.089  1.00  0.00    -0.357 N
HETATM   40  C19 UNL     1      11.095  18.008  13.577  1.00  0.00     0.092 A
HETATM   41  C20 UNL     1      10.754  17.196  14.619  1.00  0.00     0.034 A
HETATM   42  C21 UNL     1      10.994  17.878  15.834  1.00  0.00     0.032 A
HETATM   43  C29 UNL     1      11.482  19.105  15.436  1.00  0.00     0.106 A
BRANCH  42  44
HETATM   44  C22 UNL     1      10.773  17.317  17.151  1.00  0.00     0.193 C
HETATM   45  O3  UNL     1       9.703  16.651  17.310  1.00  0.00    -0.287 OA
BRANCH  44  46
HETATM   46  C23 UNL     1      11.689  17.479  18.249  1.00  0.00     0.015 A
HETATM   47  C24 UNL     1      13.027  17.191  18.191  1.00  0.00     0.015 A
HETATM   48  C25 UNL     1      13.858  17.384  19.274  1.00  0.00     0.001 A
HETATM   49  C26 UNL     1      13.383  17.878  20.461  1.00  0.00     0.000 A
HETATM   50  C27 UNL     1      12.046  18.182  20.558  1.00  0.00     0.001 A
HETATM   51  C28 UNL     1      11.231  17.983  19.476  1.00  0.00     0.015 A
ENDBRANCH  44  46
ENDBRANCH  42  44
ENDBRANCH  38  39
ENDBRANCH  35  38
ENDBRANCH   8  34
TORSDOF 12
ENDMDL