MODEL 1
REMARK VINA RESULT: -9.990209310      0.000      0.000
REMARK  13 active torsions:
REMARK  status: ('A' for Active; 'I' for Inactive)
REMARK    1  A    between atoms: N1_1  and  C1_5
REMARK    2  A    between atoms: C1_5  and  C2_6
REMARK    3  A    between atoms: C2_6  and  C3_7
REMARK    4  A    between atoms: C3_7  and  C4_8
REMARK    5  A    between atoms: C4_8  and  C5_9
REMARK    6  A    between atoms: C5_9  and  C6_10
REMARK    7  A    between atoms: C6_10  and  C7_11
REMARK    8  A    between atoms: C7_11  and  C8_12
REMARK    9  A    between atoms: C10_14  and  C11_15
REMARK   10  A    between atoms: C11_15  and  N2_16
REMARK   11  A    between atoms: N4_19  and  C12_20
REMARK   12  A    between atoms: C12_20  and  C13_21
REMARK   13  A    between atoms: C20_35  and  C21_36
ROOT
HETATM    1  N2  UNL     1      12.604  19.336  17.580  1.00  0.00    -0.254 N
HETATM    2  N3  UNL     1      11.775  18.269  17.363  1.00  0.00    -0.225 N
ATOM      3  H3  UNL     1      11.419  18.060  16.431  1.00  0.00     0.209 HD
HETATM    4  N4  UNL     1      11.441  17.492  18.439  1.00  0.00    -0.182 N
HETATM    5  S1  UNL     1      12.162  17.912  19.916  1.00  0.00     0.341 S
HETATM    6  O3  UNL     1      12.536  16.654  20.652  1.00  0.00    -0.181 OA
HETATM    7  O4  UNL     1      11.221  18.761  20.737  1.00  0.00    -0.181 OA
HETATM    8  N5  UNL     1      13.625  18.746  19.587  1.00  0.00    -0.249 N
ATOM      9  H5  UNL     1      14.395  18.745  20.255  1.00  0.00     0.182 HD
HETATM   10  C20 UNL     1      13.716  19.376  18.463  1.00  0.00     0.144 C
ENDROOT
BRANCH   1  11
HETATM   11  C11 UNL     1      12.314  20.564  16.817  1.00  0.00     0.211 C
BRANCH  11  12
HETATM   12  C10 UNL     1      13.255  20.689  15.660  1.00  0.00     0.054 A
HETATM   13  C9  UNL     1      13.953  21.789  15.220  1.00  0.00     0.063 A
HETATM   14  C8  UNL     1      14.706  21.411  14.100  1.00  0.00     0.078 A
HETATM   15  O5  UNL     1      14.428  20.153  13.934  1.00  0.00    -0.242 OA
HETATM   16  N6  UNL     1      13.604  19.697  14.802  1.00  0.00    -0.264 N
ATOM     17  H6  UNL     1      13.263  18.736  14.843  1.00  0.00     0.194 HD
BRANCH  14  18
HETATM   18  C7  UNL     1      15.590  22.340  13.351  1.00  0.00     0.067 C
BRANCH  18  19
HETATM   19  C6  UNL     1      16.532  23.078  14.240  1.00  0.00     0.007 C
BRANCH  19  20
HETATM   20  C5  UNL     1      16.026  24.275  14.918  1.00  0.00     0.000 C
BRANCH  20  21
HETATM   21  C4  UNL     1      16.897  25.310  15.469  1.00  0.00     0.000 C
BRANCH  21  22
HETATM   22  C3  UNL     1      18.270  25.512  14.975  1.00  0.00     0.002 C
BRANCH  22  23
HETATM   23  C2  UNL     1      19.249  25.969  15.989  1.00  0.00     0.027 C
BRANCH  23  24
HETATM   24  C1  UNL     1      20.632  26.184  15.321  1.00  0.00     0.229 C
BRANCH  24  25
HETATM   25  N1  UNL     1      21.033  24.926  14.766  1.00  0.00    -0.079 N
ATOM     26  H13 UNL     1      22.026  24.888  14.536  1.00  0.00     0.274 HD
ATOM     27  H12 UNL     1      21.028  24.168  15.449  1.00  0.00     0.274 HD
ATOM     28  H11 UNL     1      20.430  24.745  13.964  1.00  0.00     0.274 HD
ENDBRANCH  24  25
ENDBRANCH  23  24
ENDBRANCH  22  23
ENDBRANCH  21  22
ENDBRANCH  20  21
ENDBRANCH  19  20
ENDBRANCH  18  19
ENDBRANCH  14  18
ENDBRANCH  11  12
ENDBRANCH   1  11
BRANCH  10  29
HETATM   29  C21 UNL     1      14.945  20.110  18.127  1.00  0.00     0.011 A
HETATM   30  C22 UNL     1      15.985  19.562  17.424  1.00  0.00     0.016 A
HETATM   31  C23 UNL     1      17.084  20.349  17.173  1.00  0.00     0.009 A
HETATM   32  C24 UNL     1      17.179  21.656  17.596  1.00  0.00    -0.047 A
HETATM   33  C25 UNL     1      16.141  22.223  18.304  1.00  0.00    -0.046 A
HETATM   34  C34 UNL     1      18.369  22.507  17.323  1.00  0.00     0.078 C
HETATM   35  C26 UNL     1      15.052  21.416  18.544  1.00  0.00     0.023 A
HETATM   36  C27 UNL     1      16.210  23.646  18.782  1.00  0.00     0.078 C
HETATM   37  C28 UNL     1      17.595  23.843  19.289  1.00  0.00    -0.047 A
HETATM   38  C29 UNL     1      17.856  24.564  20.449  1.00  0.00     0.008 A
HETATM   39  C33 UNL     1      18.633  23.287  18.574  1.00  0.00    -0.047 A
HETATM   40  C30 UNL     1      19.148  24.742  20.911  1.00  0.00     0.001 A
HETATM   41  C31 UNL     1      20.199  24.180  20.189  1.00  0.00     0.001 A
HETATM   42  C32 UNL     1      19.908  23.466  19.036  1.00  0.00     0.008 A
ENDBRANCH  10  29
BRANCH   4  43
HETATM   43  C12 UNL     1      10.089  17.065  18.501  1.00  0.00     0.203 C
BRANCH  43  44
HETATM   44  C13 UNL     1       9.875  15.703  17.889  1.00  0.00    -0.035 A
HETATM   45  C14 UNL     1       8.861  14.883  18.319  1.00  0.00     0.012 A
HETATM   46  C15 UNL     1       8.697  13.648  17.736  1.00  0.00     0.040 A
HETATM   47  C16 UNL     1       9.543  13.228  16.725  1.00  0.00     0.105 A
HETATM   48  C17 UNL     1      10.550  14.062  16.308  1.00  0.00     0.105 A
HETATM   49  O2  UNL     1       9.638  12.071  15.953  1.00  0.00    -0.323 OA
HETATM   50  C18 UNL     1      10.721  15.296  16.886  1.00  0.00     0.048 A
HETATM   51  O1  UNL     1      11.249  13.401  15.287  1.00  0.00    -0.323 OA
HETATM   52  C19 UNL     1      10.489  12.268  14.862  1.00  0.00     0.352 C
ENDBRANCH  43  44
ENDBRANCH   4  43
TORSDOF 13
ENDMDL