MODEL 5
REMARK VINA RESULT: -9.825487410      3.552      6.282
REMARK  13 active torsions:
REMARK  status: ('A' for Active; 'I' for Inactive)
REMARK    1  A    between atoms: C2_3  and  C3_4
REMARK    2  A    between atoms: C3_4  and  N2_5
REMARK    3  A    between atoms: N2_5  and  C4_7
REMARK    4  A    between atoms: C8_13  and  O1_14
REMARK    5  A    between atoms: O1_14  and  C9_15
REMARK    6  A    between atoms: C9_15  and  C10_16
REMARK    7  A    between atoms: C10_16  and  O2_17
REMARK    8  A    between atoms: O2_17  and  C11_18
REMARK    9  A    between atoms: C15_22  and  C16_23
REMARK   10  A    between atoms: C16_23  and  N4_24
REMARK   11  A    between atoms: N6_41  and  C28_42
REMARK   12  A    between atoms: C28_42  and  C29_43
REMARK   13  A    between atoms: C29_43  and  C30_44
ROOT
HETATM    1  N1  UNL     1      14.804  15.511   8.566  1.00  0.00    -0.197 NA
HETATM    2  C1  UNL     1      15.658  16.277   8.708  1.00  0.00     0.060 C
HETATM    3  C2  UNL     1      16.753  17.231   8.906  1.00  0.00     0.144 C
ENDROOT
BRANCH   3   4
HETATM    4  C3  UNL     1      16.354  18.219  10.011  1.00  0.00     0.152 C
BRANCH   4   5
HETATM    5  N2  UNL     1      15.129  17.786  10.624  1.00  0.00    -0.225 N
ATOM      6  H2  UNL     1      14.729  16.921  10.261  1.00  0.00     0.177 HD
BRANCH   5   7
HETATM    7  C4  UNL     1      14.484  18.343  11.560  1.00  0.00     0.681 A
HETATM    8  N3  UNL     1      14.890  19.309  12.386  1.00  0.00    -0.190 N
HETATM    9  C5  UNL     1      13.875  19.606  13.236  1.00  0.00     0.076 A
ATOM     10  H3  UNL     1      15.809  19.750  12.380  1.00  0.00     0.184 HD
HETATM   11  C6  UNL     1      13.751  20.501  14.246  1.00  0.00     0.035 A
HETATM   12  C27 UNL     1      12.812  18.777  12.901  1.00  0.00     0.081 A
HETATM   13  C7  UNL     1      12.544  20.604  14.969  1.00  0.00     0.039 A
HETATM   14  C8  UNL     1      11.462  19.780  14.652  1.00  0.00     0.071 A
HETATM   15  C26 UNL     1      11.629  18.895  13.630  1.00  0.00     0.069 A
HETATM   16  N6  UNL     1      13.193  18.011  11.878  1.00  0.00    -0.181 N
BRANCH  14  17
HETATM   17  O1  UNL     1      10.305  19.932  15.390  1.00  0.00    -0.349 OA
BRANCH  17  18
HETATM   18  C9  UNL     1      10.188  19.969  16.765  1.00  0.00     0.202 C
BRANCH  18  19
HETATM   19  C10 UNL     1      10.250  18.685  17.515  1.00  0.00     0.202 C
BRANCH  19  20
HETATM   20  O2  UNL     1      11.047  18.813  18.701  1.00  0.00    -0.349 OA
BRANCH  20  21
HETATM   21  C11 UNL     1      12.423  18.765  18.561  1.00  0.00     0.069 A
HETATM   22  C12 UNL     1      13.119  17.604  18.226  1.00  0.00     0.037 A
HETATM   23  C13 UNL     1      14.481  17.553  18.096  1.00  0.00     0.004 A
HETATM   24  C14 UNL     1      15.224  18.696  18.301  1.00  0.00     0.013 A
HETATM   25  C15 UNL     1      14.605  19.868  18.632  1.00  0.00    -0.017 A
HETATM   26  C25 UNL     1      13.221  19.877  18.753  1.00  0.00     0.049 A
BRANCH  25  27
HETATM   27  C16 UNL     1      15.346  21.077  18.914  1.00  0.00     0.122 C
BRANCH  27  28
HETATM   28  N4  UNL     1      15.854  21.849  17.810  1.00  0.00    -0.229 N
HETATM   29  C17 UNL     1      14.965  22.690  17.146  1.00  0.00     0.150 A
HETATM   30  C18 UNL     1      15.332  23.679  16.251  1.00  0.00     0.091 A
HETATM   31  N5  UNL     1      13.941  23.492  16.528  1.00  0.00    -0.336 N
HETATM   32  C19 UNL     1      16.711  23.927  15.919  1.00  0.00     0.018 A
HETATM   33  C20 UNL     1      17.022  25.048  15.104  1.00  0.00     0.015 A
HETATM   34  C24 UNL     1      17.771  23.244  16.409  1.00  0.00     0.092 A
HETATM   35  C21 UNL     1      18.297  25.447  14.812  1.00  0.00     0.001 A
HETATM   36  C22 UNL     1      19.348  24.709  15.347  1.00  0.00     0.002 A
HETATM   37  C23 UNL     1      19.058  23.619  16.137  1.00  0.00     0.026 A
HETATM   38  S1  UNL     1      17.505  21.790  17.334  1.00  0.00     0.271 S
HETATM   39  O3  UNL     1      17.729  20.541  16.541  1.00  0.00    -0.200 OA
HETATM   40  O4  UNL     1      18.425  21.717  18.520  1.00  0.00    -0.200 OA
ATOM     41  H5  UNL     1      12.960  23.740  16.392  1.00  0.00     0.168 HD
ENDBRANCH  27  28
ENDBRANCH  25  27
ENDBRANCH  20  21
ENDBRANCH  19  20
ENDBRANCH  18  19
ENDBRANCH  17  18
ENDBRANCH  14  17
BRANCH  16  42
HETATM   42  C28 UNL     1      12.412  17.014  11.190  1.00  0.00     0.152 C
BRANCH  42  43
HETATM   43  C29 UNL     1      12.711  15.608  11.657  1.00  0.00     0.059 C
BRANCH  43  44
HETATM   44  C30 UNL     1      11.531  14.927  12.222  1.00  0.00    -0.057 A
HETATM   45  C31 UNL     1      10.720  14.126  11.430  1.00  0.00     0.007 A
HETATM   46  C32 UNL     1       9.628  13.496  11.982  1.00  0.00     0.001 A
HETATM   47  C33 UNL     1       9.368  13.678  13.315  1.00  0.00     0.000 A
HETATM   48  C34 UNL     1      10.162  14.465  14.104  1.00  0.00     0.001 A
HETATM   49  C35 UNL     1      11.249  15.099  13.577  1.00  0.00     0.007 A
ENDBRANCH  43  44
ENDBRANCH  42  43
ENDBRANCH  16  42
ENDBRANCH   5   7
ENDBRANCH   4   5
ENDBRANCH   3   4
TORSDOF 13
ENDMDL