MODEL 2
REMARK VINA RESULT: -8.665137209      1.416      1.931
REMARK  13 active torsions:
REMARK  status: ('A' for Active; 'I' for Inactive)
REMARK    1  A    between atoms: C2_2  and  C3_3
REMARK    2  A    between atoms: C3_3  and  C4_4
REMARK    3  A    between atoms: C4_4  and  C5_5
REMARK    4  A    between atoms: N1_8  and  C7_9
REMARK    5  A    between atoms: C7_9  and  C8_10
REMARK    6  A    between atoms: C11_13  and  C12_14
REMARK    7  A    between atoms: C17_19  and  C18_20
REMARK    8  A    between atoms: C21_30  and  C22_31
REMARK    9  A    between atoms: C22_31  and  C23_32
REMARK   10  A    between atoms: N6_39  and  C30_40
REMARK   11  A    between atoms: C30_40  and  O2_41
REMARK   12  A    between atoms: N7_44  and  C32_45
REMARK   13  A    between atoms: C32_45  and  C33_46
ROOT
HETATM    1  C5  UNL     1      12.788  18.516  13.072  1.00  0.00     0.317 C
HETATM    2  C6  UNL     1      13.241  19.927  13.318  1.00  0.00     0.258 C
HETATM    3  O1  UNL     1      13.628  20.563  12.321  1.00  0.00    -0.271 OA
HETATM    4  N1  UNL     1      13.326  20.737  14.503  1.00  0.00    -0.319 N
HETATM    5  C21 UNL     1      13.331  20.352  15.910  1.00  0.00     0.125 C
HETATM    6  C29 UNL     1      12.052  19.697  16.314  1.00  0.00     0.303 C
HETATM    7  N6  UNL     1      11.541  18.664  15.490  1.00  0.00     0.141 N
HETATM    8  C31 UNL     1      10.863  19.092  14.282  1.00  0.00     0.547 C
HETATM    9  N7  UNL     1      11.342  18.440  13.080  1.00  0.00     0.134 N
ENDROOT
BRANCH   4  10
HETATM   10  C7  UNL     1      13.340  22.119  14.237  1.00  0.00     0.106 C
BRANCH  10  11
HETATM   11  C8  UNL     1      14.547  22.898  14.414  1.00  0.00    -0.021 A
HETATM   12  C9  UNL     1      15.843  22.482  14.374  1.00  0.00     0.013 A
HETATM   13  C10 UNL     1      16.889  23.350  14.551  1.00  0.00     0.013 A
HETATM   14  C11 UNL     1      16.715  24.703  14.782  1.00  0.00    -0.025 A
HETATM   15  C19 UNL     1      15.402  25.132  14.825  1.00  0.00     0.013 A
HETATM   16  C20 UNL     1      14.349  24.269  14.648  1.00  0.00     0.013 A
BRANCH  14  17
HETATM   17  C12 UNL     1      17.815  25.620  14.960  1.00  0.00    -0.012 A
HETATM   18  C13 UNL     1      18.424  26.138  13.830  1.00  0.00     0.013 A
HETATM   19  C14 UNL     1      19.496  27.023  13.935  1.00  0.00     0.001 A
HETATM   20  C15 UNL     1      19.958  27.389  15.174  1.00  0.00     0.001 A
HETATM   21  C16 UNL     1      19.369  26.886  16.292  1.00  0.00     0.016 A
HETATM   22  C17 UNL     1      18.287  25.994  16.180  1.00  0.00     0.021 A
BRANCH  22  23
HETATM   23  C18 UNL     1      17.688  25.488  17.395  1.00  0.00     0.145 A
HETATM   24  N2  UNL     1      16.379  25.625  17.745  1.00  0.00    -0.271 N
HETATM   25  N3  UNL     1      16.190  25.039  18.910  1.00  0.00    -0.225 N
ATOM     26  H2  UNL     1      15.663  26.103  17.197  1.00  0.00     0.190 HD
HETATM   27  N4  UNL     1      17.328  24.522  19.337  1.00  0.00    -0.005 NA
ATOM     28  H3  UNL     1      15.300  24.990  19.407  1.00  0.00     0.205 HD
HETATM   29  N5  UNL     1      18.224  24.802  18.408  1.00  0.00    -0.266 N
ATOM     30  H5  UNL     1      19.206  24.529  18.458  1.00  0.00     0.186 HD
ENDBRANCH  22  23
ENDBRANCH  14  17
ENDBRANCH  10  11
ENDBRANCH   4  10
BRANCH   5  31
HETATM   31  C22 UNL     1      14.583  19.642  16.233  1.00  0.00     0.066 C
BRANCH  31  32
HETATM   32  C23 UNL     1      15.474  20.249  17.216  1.00  0.00    -0.056 A
HETATM   33  C24 UNL     1      14.995  20.627  18.436  1.00  0.00     0.007 A
HETATM   34  C25 UNL     1      15.789  21.207  19.405  1.00  0.00     0.001 A
HETATM   35  C26 UNL     1      17.123  21.404  19.108  1.00  0.00     0.000 A
HETATM   36  C27 UNL     1      17.643  21.034  17.883  1.00  0.00     0.001 A
HETATM   37  C28 UNL     1      16.802  20.453  16.938  1.00  0.00     0.007 A
ENDBRANCH  31  32
ENDBRANCH   5  31
BRANCH   1  38
HETATM   38  C4  UNL     1      13.419  17.953  11.827  1.00  0.00     0.046 C
BRANCH  38  39
HETATM   39  C3  UNL     1      13.050  16.487  11.762  1.00  0.00     0.002 C
BRANCH  39  40
HETATM   40  C2  UNL     1      12.774  16.065  10.320  1.00  0.00    -0.004 C
HETATM   41  C1  UNL     1      11.526  15.236  10.223  1.00  0.00     0.005 C
ENDBRANCH  39  40
ENDBRANCH  38  39
ENDBRANCH   1  38
BRANCH   9  42
HETATM   42  C32 UNL     1      10.833  19.175  11.942  1.00  0.00     0.315 C
BRANCH  42  43
HETATM   43  C33 UNL     1       9.856  18.411  11.132  1.00  0.00    -0.015 A
HETATM   44  C34 UNL     1       9.847  18.588   9.766  1.00  0.00     0.011 A
HETATM   45  C35 UNL     1       8.968  17.916   8.938  1.00  0.00     0.018 A
HETATM   46  C36 UNL     1       8.090  17.045   9.570  1.00  0.00     0.087 A
HETATM   47  N8  UNL     1       8.093  16.867  10.894  1.00  0.00    -0.375 N
HETATM   48  C37 UNL     1       8.947  17.526  11.665  1.00  0.00     0.096 A
ATOM     49  H8  UNL     1       7.431  16.217  11.317  1.00  0.00     0.164 HD
ENDBRANCH  42  43
ENDBRANCH   9  42
BRANCH   7  50
HETATM   50  C30 UNL     1      10.475  18.001  16.271  1.00  0.00     0.439 C
BRANCH  50  51
HETATM   51  O2  UNL     1       9.737  18.843  17.043  1.00  0.00    -0.373 OA
ATOM     52  H2  UNL     1       8.823  18.906  16.793  1.00  0.00     0.211 HD
ENDBRANCH  50  51
ENDBRANCH   7  50
TORSDOF 13
ENDMDL