MODEL 1
REMARK VINA RESULT: -10.670411550      0.000      0.000
REMARK  11 active torsions:
REMARK  status: ('A' for Active; 'I' for Inactive)
REMARK    1  A    between atoms: C2_3  and  N2_4
REMARK    2  A    between atoms: N2_4  and  C3_5
REMARK    3  A    between atoms: N2_4  and  C20_26
REMARK    4  A    between atoms: C3_5  and  C4_6
REMARK    5  A    between atoms: C4_6  and  S1_7
REMARK    6  A    between atoms: S1_7  and  C5_10
REMARK    7  A    between atoms: C5_10  and  C6_11
REMARK    8  A    between atoms: C6_11  and  N3_12
REMARK    9  A    between atoms: C20_26  and  C21_27
REMARK   10  A    between atoms: N5_39  and  C29_40
REMARK   11  A    between atoms: C29_40  and  C30_41
ROOT
HETATM    1  N2  UNL     1      15.938  21.778  17.979  1.00  0.00    -0.369 N
ENDROOT
BRANCH   1   2
HETATM    2  C2  UNL     1      15.162  22.312  16.874  1.00  0.00     0.141 A
HETATM    3  C1  UNL     1      15.300  21.871  15.581  1.00  0.00     0.155 A
HETATM    4  N1  UNL     1      16.205  20.817  15.281  1.00  0.00    -0.080 NA
HETATM    5  N5  UNL     1      14.582  22.400  14.544  1.00  0.00    -0.281 N
HETATM    6  C28 UNL     1      13.712  23.393  14.821  1.00  0.00     0.331 A
HETATM    7  N4  UNL     1      13.568  23.834  16.087  1.00  0.00    -0.273 N
HETATM    8  O4  UNL     1      13.021  23.929  13.890  1.00  0.00    -0.246 OA
HETATM    9  C27 UNL     1      14.264  23.326  17.125  1.00  0.00     0.279 A
ATOM     10  H4  UNL     1      12.902  24.586  16.268  1.00  0.00     0.173 HD
HETATM   11  O3  UNL     1      14.117  23.747  18.293  1.00  0.00    -0.265 OA
BRANCH   5  12
HETATM   12  C29 UNL     1      14.776  21.922  13.215  1.00  0.00     0.173 C
BRANCH  12  13
HETATM   13  C30 UNL     1      14.029  20.754  12.784  1.00  0.00    -0.040 A
HETATM   14  C31 UNL     1      14.671  19.638  12.261  1.00  0.00     0.009 A
HETATM   15  C32 UNL     1      13.959  18.516  11.863  1.00  0.00     0.001 A
HETATM   16  C33 UNL     1      12.602  18.473  11.970  1.00  0.00     0.000 A
HETATM   17  C34 UNL     1      11.934  19.557  12.479  1.00  0.00     0.001 A
HETATM   18  C35 UNL     1      12.669  20.678  12.876  1.00  0.00     0.009 A
ENDBRANCH  12  13
ENDBRANCH   5  12
ENDBRANCH   1   2
BRANCH   1  19
HETATM   19  C3  UNL     1      17.351  21.975  17.897  1.00  0.00     0.138 C
BRANCH  19  20
HETATM   20  C4  UNL     1      18.194  21.999  19.089  1.00  0.00     0.160 C
BRANCH  20  21
HETATM   21  S1  UNL     1      18.787  23.485  19.747  1.00  0.00     0.147 S
HETATM   22  O1  UNL     1      19.479  23.279  21.093  1.00  0.00    -0.228 OA
HETATM   23  O2  UNL     1      17.810  24.608  19.813  1.00  0.00    -0.228 OA
BRANCH  21  24
HETATM   24  C5  UNL     1      20.162  24.121  18.726  1.00  0.00     0.160 C
BRANCH  24  25
HETATM   25  C6  UNL     1      19.839  25.583  18.520  1.00  0.00     0.144 C
BRANCH  25  26
HETATM   26  N3  UNL     1      20.098  26.077  17.209  1.00  0.00    -0.345 N
HETATM   27  C7  UNL     1      19.037  26.005  16.227  1.00  0.00     0.041 A
HETATM   28  C8  UNL     1      17.806  25.436  16.506  1.00  0.00     0.030 A
HETATM   29  C12 UNL     1      19.332  26.530  14.984  1.00  0.00    -0.027 A
HETATM   30  C9  UNL     1      16.834  25.387  15.522  1.00  0.00     0.002 A
HETATM   31  C10 UNL     1      17.106  25.905  14.275  1.00  0.00     0.001 A
HETATM   32  C11 UNL     1      18.336  26.467  14.013  1.00  0.00     0.010 A
HETATM   33  C13 UNL     1      20.601  27.146  14.584  1.00  0.00     0.082 A
HETATM   34  C14 UNL     1      21.608  27.159  15.653  1.00  0.00    -0.027 A
HETATM   35  C15 UNL     1      22.838  27.732  15.316  1.00  0.00     0.010 A
HETATM   36  C19 UNL     1      21.366  26.648  16.920  1.00  0.00     0.041 A
HETATM   37  C16 UNL     1      23.851  27.807  16.236  1.00  0.00     0.001 A
HETATM   38  C17 UNL     1      23.594  27.295  17.489  1.00  0.00     0.002 A
HETATM   39  C18 UNL     1      22.391  26.730  17.835  1.00  0.00     0.030 A
ENDBRANCH  25  26
ENDBRANCH  24  25
ENDBRANCH  21  24
ENDBRANCH  20  21
ENDBRANCH  19  20
ENDBRANCH   1  19
BRANCH   1  40
HETATM   40  C20 UNL     1      15.327  21.060  19.044  1.00  0.00     0.161 C
BRANCH  40  41
HETATM   41  C21 UNL     1      14.475  19.917  18.665  1.00  0.00    -0.040 A
HETATM   42  C22 UNL     1      13.107  19.962  18.622  1.00  0.00     0.009 A
HETATM   43  C23 UNL     1      12.343  18.854  18.273  1.00  0.00     0.001 A
HETATM   44  C24 UNL     1      12.951  17.661  17.956  1.00  0.00     0.000 A
HETATM   45  C25 UNL     1      14.324  17.602  17.996  1.00  0.00     0.001 A
HETATM   46  C26 UNL     1      15.070  18.719  18.346  1.00  0.00     0.009 A
ENDBRANCH  40  41
ENDBRANCH   1  40
TORSDOF 11
ENDMDL