MODEL 1
REMARK VINA RESULT: -8.916430659      0.000      0.000
REMARK  13 active torsions:
REMARK  status: ('A' for Active; 'I' for Inactive)
REMARK    1  A    between atoms: C5_6  and  C6_7
REMARK    2  A    between atoms: C6_7  and  N2_8
REMARK    3  A    between atoms: C8_11  and  C9_12
REMARK    4  A    between atoms: C9_12  and  C10_13
REMARK    5  A    between atoms: C13_16  and  O2_17
REMARK    6  A    between atoms: C16_22  and  C17_23
REMARK    7  A    between atoms: C21_27  and  C22_28
REMARK    8  A    between atoms: C22_28  and  N4_29
REMARK    9  A    between atoms: N5_37  and  C26_38
REMARK   10  A    between atoms: C26_38  and  C27_39
REMARK   11  A    between atoms: C27_39  and  C28_40
REMARK   12  A    between atoms: C28_40  and  C29_41
REMARK   13  A    between atoms: C29_41  and  C30_42
ROOT
HETATM    1  N1  UNL     1      19.868  25.680  21.097  1.00  0.00    -0.191 NA
HETATM    2  C1  UNL     1      19.460  24.802  20.468  1.00  0.00     0.099 C
HETATM    3  C2  UNL     1      18.962  23.693  19.663  1.00  0.00     0.044 A
HETATM    4  C3  UNL     1      18.230  22.680  20.230  1.00  0.00     0.023 A
HETATM    5  C4  UNL     1      17.759  21.623  19.449  1.00  0.00     0.010 A
HETATM    6  C5  UNL     1      18.006  21.554  18.101  1.00  0.00    -0.040 A
HETATM    7  C35 UNL     1      18.745  22.584  17.550  1.00  0.00     0.010 A
HETATM    8  C36 UNL     1      19.215  23.634  18.311  1.00  0.00     0.023 A
ENDROOT
BRANCH   6   9
HETATM    9  C6  UNL     1      17.537  20.458  17.234  1.00  0.00     0.169 C
BRANCH   9  10
HETATM   10  N2  UNL     1      16.165  20.576  16.804  1.00  0.00    -0.288 N
HETATM   11  C7  UNL     1      15.113  19.676  17.230  1.00  0.00     0.247 C
HETATM   12  O1  UNL     1      15.222  18.753  18.072  1.00  0.00    -0.271 OA
HETATM   13  C8  UNL     1      13.874  20.019  16.508  1.00  0.00     0.185 C
HETATM   14  N3  UNL     1      14.306  21.002  15.605  1.00  0.00    -0.319 N
HETATM   15  C16 UNL     1      13.670  21.247  14.423  1.00  0.00     0.103 C
HETATM   16  C24 UNL     1      15.562  21.540  15.907  1.00  0.00     0.310 C
HETATM   17  O3  UNL     1      16.410  21.662  14.811  1.00  0.00    -0.316 OA
HETATM   18  C34 UNL     1      15.399  22.884  16.477  1.00  0.00     0.300 C
HETATM   19  C25 UNL     1      16.608  22.980  14.514  1.00  0.00     0.301 C
HETATM   20  N5  UNL     1      15.796  23.767  15.411  1.00  0.00    -0.325 N
HETATM   21  O4  UNL     1      15.021  23.318  17.586  1.00  0.00    -0.265 OA
BRANCH  13  22
HETATM   22  C9  UNL     1      12.736  20.398  17.383  1.00  0.00     0.073 C
BRANCH  22  23
HETATM   23  C10 UNL     1      11.815  19.309  17.759  1.00  0.00    -0.056 A
HETATM   24  C11 UNL     1      11.015  18.736  16.766  1.00  0.00     0.010 A
HETATM   25  C12 UNL     1      10.124  17.737  17.074  1.00  0.00     0.037 A
HETATM   26  C13 UNL     1      10.005  17.274  18.391  1.00  0.00     0.065 A
HETATM   27  C14 UNL     1      10.788  17.831  19.376  1.00  0.00     0.037 A
HETATM   28  C15 UNL     1      11.676  18.832  19.054  1.00  0.00     0.010 A
BRANCH  26  29
HETATM   29  O2  UNL     1       9.101  16.263  18.693  1.00  0.00    -0.361 OA
ATOM     30  H2  UNL     1       8.545  16.336  19.460  1.00  0.00     0.217 HD
ENDBRANCH  26  29
ENDBRANCH  22  23
ENDBRANCH  13  22
BRANCH  15  31
HETATM   31  C17 UNL     1      13.627  20.147  13.430  1.00  0.00    -0.020 A
HETATM   32  C18 UNL     1      14.654  19.881  12.551  1.00  0.00     0.013 A
HETATM   33  C19 UNL     1      14.622  18.861  11.626  1.00  0.00     0.002 A
HETATM   34  C20 UNL     1      13.501  18.065  11.581  1.00  0.00     0.009 A
HETATM   35  C21 UNL     1      12.430  18.273  12.436  1.00  0.00    -0.032 A
HETATM   36  C23 UNL     1      12.514  19.302  13.336  1.00  0.00     0.021 A
BRANCH  35  37
HETATM   37  C22 UNL     1      11.230  17.389  12.357  1.00  0.00     0.268 C
BRANCH  37  38
HETATM   38  N4  UNL     1      11.203  16.524  13.514  1.00  0.00    -0.075 N
ATOM     39  H43 UNL     1      11.423  15.555  13.279  1.00  0.00     0.274 HD
ATOM     40  H42 UNL     1      11.983  16.699  14.147  1.00  0.00     0.274 HD
ATOM     41  H41 UNL     1      10.300  16.614  13.978  1.00  0.00     0.274 HD
ENDBRANCH  37  38
ENDBRANCH  35  37
ENDBRANCH  15  31
BRANCH  20  42
HETATM   42  C26 UNL     1      15.482  25.166  15.215  1.00  0.00     0.128 C
BRANCH  42  43
HETATM   43  C27 UNL     1      16.662  25.986  14.840  1.00  0.00     0.020 C
BRANCH  43  44
HETATM   44  C28 UNL     1      17.803  25.789  15.791  1.00  0.00     0.006 C
BRANCH  44  45
HETATM   45  C29 UNL     1      19.113  25.707  15.058  1.00  0.00     0.039 C
BRANCH  45  46
HETATM   46  C30 UNL     1      20.192  26.375  15.901  1.00  0.00    -0.051 A
HETATM   47  C31 UNL     1      19.953  26.868  17.121  1.00  0.00     0.014 A
HETATM   48  C32 UNL     1      21.003  27.447  17.783  1.00  0.00     0.050 A
HETATM   49  S1  UNL     1      22.289  27.281  16.675  1.00  0.00    -0.113 SA
HETATM   50  C33 UNL     1      21.464  26.488  15.412  1.00  0.00     0.056 A
ENDBRANCH  45  46
ENDBRANCH  44  45
ENDBRANCH  43  44
ENDBRANCH  42  43
ENDBRANCH  20  42
ENDBRANCH   9  10
ENDBRANCH   6   9
TORSDOF 13
ENDMDL