MODEL 3
REMARK VINA RESULT: -7.190649538      2.551      5.156
REMARK  5 active torsions:
REMARK  status: ('A' for Active; 'I' for Inactive)
REMARK    1  A    between atoms: C13_14  and  C14_15
REMARK    2  A    between atoms: C14_15  and  C15_16
REMARK    3  A    between atoms: C15_16  and  O2_17
REMARK    4  A    between atoms: O2_17  and  S1_18
REMARK    5  A    between atoms: C20_26  and  O6_27
ROOT
HETATM    1  C1  UNL     1     -11.402 -50.991 -18.155  1.00  0.00     0.011 C
HETATM    2  C2  UNL     1     -12.680 -51.440 -18.729  1.00  0.00    -0.007 C
HETATM    3  C3  UNL     1     -13.528 -50.391 -19.366  1.00  0.00     0.017 C
HETATM    4  C4  UNL     1     -14.874 -51.060 -19.449  1.00  0.00    -0.007 C
HETATM    5  C5  UNL     1     -14.913 -51.365 -20.907  1.00  0.00     0.019 C
HETATM    6  C6  UNL     1     -16.071 -50.358 -18.923  1.00  0.00     0.009 C
HETATM    7  C7  UNL     1     -15.990 -48.915 -18.821  1.00  0.00     0.024 C
HETATM    8  C8  UNL     1     -15.707 -48.277 -17.493  1.00  0.00     0.024 C
HETATM    9  C9  UNL     1     -14.870 -47.015 -17.834  1.00  0.00     0.024 C
HETATM   10  C10 UNL     1     -16.974 -47.729 -16.975  1.00  0.00     0.136 C
HETATM   11  O1  UNL     1     -17.914 -47.713 -17.744  1.00  0.00    -0.297 OA
HETATM   12  C11 UNL     1     -17.343 -47.175 -15.671  1.00  0.00     0.079 C
HETATM   13  C12 UNL     1     -16.533 -47.975 -14.671  1.00  0.00     0.013 C
HETATM   14  C13 UNL     1     -15.149 -48.004 -15.248  1.00  0.00    -0.003 C
HETATM   15  C16 UNL     1     -15.106 -49.055 -16.384  1.00  0.00     0.027 C
HETATM   16  C17 UNL     1     -13.871 -49.841 -16.439  1.00  0.00    -0.024 C
HETATM   17  C18 UNL     1     -13.775 -51.297 -16.526  1.00  0.00    -0.022 C
HETATM   18  C19 UNL     1     -13.647 -52.074 -17.805  1.00  0.00     0.047 C
HETATM   19  C20 UNL     1     -14.843 -52.255 -18.530  1.00  0.00     0.079 C
HETATM   20  C21 UNL     1     -15.526 -53.227 -19.340  1.00  0.00     0.118 C
HETATM   21  C22 UNL     1     -16.914 -52.593 -19.508  1.00  0.00     0.134 C
HETATM   22  O7  UNL     1     -17.863 -53.336 -19.549  1.00  0.00    -0.297 OA
HETATM   23  C23 UNL     1     -17.143 -51.119 -19.626  1.00  0.00     0.056 C
HETATM   24  C24 UNL     1     -18.547 -50.914 -19.153  1.00  0.00     0.018 C
ENDROOT
BRANCH  14  25
HETATM   25  C14 UNL     1     -14.142 -48.077 -14.197  1.00  0.00     0.033 C
BRANCH  25  26
HETATM   26  C15 UNL     1     -13.030 -47.097 -14.490  1.00  0.00     0.193 C
BRANCH  26  27
HETATM   27  O2  UNL     1     -11.978 -47.220 -13.586  1.00  0.00    -0.257 OA
BRANCH  27  28
HETATM   28  S1  UNL     1     -10.793 -48.249 -14.100  1.00  0.00     0.251 S
HETATM   29  O3  UNL     1     -10.995 -48.537 -15.561  1.00  0.00    -0.572 OA
HETATM   30  O4  UNL     1     -10.795 -49.559 -13.373  1.00  0.00    -0.572 OA
HETATM   31  O5  UNL     1      -9.302 -47.467 -13.953  1.00  0.00    -0.572 OA
ENDBRANCH  27  28
ENDBRANCH  26  27
ENDBRANCH  25  26
ENDBRANCH  14  25
BRANCH  19  32
HETATM   32  O6  UNL     1     -15.775 -52.303 -17.441  1.00  0.00    -0.388 OA
ATOM     33  H6  UNL     1     -16.685 -52.500 -17.633  1.00  0.00     0.210 HD
ENDBRANCH  19  32
TORSDOF 5
ENDMDL