MODEL 2
REMARK VINA RESULT: -8.935125942      1.668      3.268
REMARK  5 active torsions:
REMARK  status: ('A' for Active; 'I' for Inactive)
REMARK    1  A    between atoms: O1_2  and  C2_3
REMARK    2  A    between atoms: C4_5  and  N1_6
REMARK       I    between atoms: N1_6  and  C5_8
REMARK    3  A    between atoms: C5_8  and  O3_10
REMARK    4  A    between atoms: O3_10  and  C6_11
REMARK    5  A    between atoms: C12_19  and  C13_20
ROOT
HETATM    1  N1  UNL     1     -14.080 -53.559 -20.422  1.00  0.00    -0.328 N
ATOM      2  H1  UNL     1     -14.188 -54.038 -19.528  1.00  0.00     0.165 HD
HETATM    3  C5  UNL     1     -13.879 -52.160 -20.445  1.00  0.00     0.361 C
HETATM    4  O2  UNL     1     -13.749 -51.592 -21.557  1.00  0.00    -0.238 OA
ENDROOT
BRANCH   3   5
HETATM    5  O3  UNL     1     -13.821 -51.391 -19.296  1.00  0.00    -0.296 OA
BRANCH   5   6
HETATM    6  C6  UNL     1     -14.325 -51.936 -18.092  1.00  0.00     0.164 C
HETATM    7  C7  UNL     1     -15.720 -51.513 -17.794  1.00  0.00     0.201 C
HETATM    8  O4  UNL     1     -15.767 -50.895 -16.576  1.00  0.00    -0.382 OA
HETATM    9  C8  UNL     1     -14.505 -50.608 -16.139  1.00  0.00     0.133 C
HETATM   10  C9  UNL     1     -13.516 -51.400 -16.960  1.00  0.00     0.053 C
HETATM   11  C16 UNL     1     -13.991 -49.332 -16.822  1.00  0.00     0.028 C
HETATM   12  C10 UNL     1     -12.794 -50.098 -17.231  1.00  0.00     0.026 C
HETATM   13  C11 UNL     1     -11.577 -49.919 -16.407  1.00  0.00     0.174 C
HETATM   14  O5  UNL     1     -11.518 -48.756 -15.680  1.00  0.00    -0.374 OA
HETATM   15  C12 UNL     1     -12.623 -48.540 -14.882  1.00  0.00     0.226 C
HETATM   16  C14 UNL     1     -13.787 -48.259 -15.823  1.00  0.00     0.028 C
HETATM   17  C15 UNL     1     -15.026 -47.948 -15.011  1.00  0.00     0.014 C
BRANCH  15  18
HETATM   18  C13 UNL     1     -12.413 -47.321 -14.066  1.00  0.00     0.203 C
HETATM   19  O6  UNL     1     -11.552 -47.325 -13.155  1.00  0.00    -0.646 OA
HETATM   20  O7  UNL     1     -13.129 -46.151 -14.253  1.00  0.00    -0.646 OA
ENDBRANCH  15  18
ENDBRANCH   5   6
ENDBRANCH   3   5
BRANCH   1  21
HETATM   21  C4  UNL     1     -14.135 -54.332 -21.674  1.00  0.00     0.038 C
HETATM   22  C3  UNL     1     -12.770 -54.635 -22.143  1.00  0.00     0.063 C
HETATM   23  C2  UNL     1     -12.724 -56.148 -22.343  1.00  0.00     0.127 C
HETATM   24  C25 UNL     1     -14.121 -56.656 -22.142  1.00  0.00     0.017 C
HETATM   25  C24 UNL     1     -14.849 -57.126 -23.326  1.00  0.00     0.012 C
HETATM   26  C26 UNL     1     -14.761 -55.672 -21.247  1.00  0.00     0.038 C
HETATM   27  C22 UNL     1     -15.346 -56.255 -24.379  1.00  0.00    -0.014 C
HETATM   28  C21 UNL     1     -16.835 -55.891 -24.262  1.00  0.00     0.005 C
HETATM   29  C23 UNL     1     -14.631 -55.010 -24.714  1.00  0.00     0.009 C
HETATM   30  C20 UNL     1     -17.138 -54.632 -25.068  1.00  0.00     0.001 C
HETATM   31  C19 UNL     1     -16.433 -53.415 -24.544  1.00  0.00     0.005 C
HETATM   32  C18 UNL     1     -15.030 -53.778 -24.009  1.00  0.00    -0.012 C
HETATM   33  C17 UNL     1     -15.080 -53.670 -22.573  1.00  0.00     0.035 C
BRANCH  23  34
HETATM   34  O1  UNL     1     -11.863 -56.646 -21.345  1.00  0.00    -0.390 OA
HETATM   35  C1  UNL     1     -10.738 -55.872 -21.173  1.00  0.00     0.202 C
ENDBRANCH  23  34
ENDBRANCH   1  21
TORSDOF 5
ENDMDL