MODEL 5
REMARK VINA RESULT: -8.131955515      1.860      4.956
REMARK  7 active torsions:
REMARK  status: ('A' for Active; 'I' for Inactive)
REMARK    1  A    between atoms: C2_2  and  O1_3
REMARK    2  A    between atoms: C2_2  and  C3_5
REMARK    3  A    between atoms: C3_5  and  N1_6
REMARK    4  A    between atoms: C6_9  and  C7_10
REMARK    5  A    between atoms: C7_10  and  O3_12
REMARK    6  A    between atoms: O3_12  and  C8_13
REMARK    7  A    between atoms: C14_20  and  O5_21
ROOT
HETATM    1  C8  UNL     1     -16.969 -49.810 -17.936  1.00  0.00     0.137 C
HETATM    2  C9  UNL     1     -16.371 -51.180 -18.239  1.00  0.00     0.043 C
HETATM    3  C10 UNL     1     -16.252 -51.439 -19.705  1.00  0.00     0.062 C
HETATM    4  C11 UNL     1     -16.695 -52.869 -19.998  1.00  0.00     0.093 A
HETATM    5  C12 UNL     1     -15.880 -53.753 -20.854  1.00  0.00     0.049 C
HETATM    6  O4  UNL     1     -17.954 -53.192 -19.547  1.00  0.00    -0.366 OA
HETATM    7  C13 UNL     1     -17.998 -52.327 -20.601  1.00  0.00     0.192 A
HETATM    8  C14 UNL     1     -17.341 -50.970 -20.562  1.00  0.00     0.097 C
HETATM    9  C15 UNL     1     -18.183 -49.829 -20.097  1.00  0.00     0.030 C
HETATM   10  C16 UNL     1     -19.566 -49.971 -20.691  1.00  0.00     0.009 C
HETATM   11  C17 UNL     1     -20.655 -49.752 -19.687  1.00  0.00     0.010 C
HETATM   12  C18 UNL     1     -20.398 -48.476 -18.915  1.00  0.00    -0.037 C
HETATM   13  C19 UNL     1     -20.589 -47.319 -19.873  1.00  0.00     0.016 C
HETATM   14  C20 UNL     1     -21.388 -48.311 -17.810  1.00  0.00    -0.010 C
HETATM   15  C21 UNL     1     -21.819 -49.615 -17.178  1.00  0.00     0.011 C
HETATM   16  C22 UNL     1     -20.604 -47.545 -16.781  1.00  0.00     0.005 C
HETATM   17  C23 UNL     1     -19.294 -48.309 -16.779  1.00  0.00     0.006 C
HETATM   18  C24 UNL     1     -19.031 -48.457 -18.266  1.00  0.00     0.001 C
HETATM   19  C25 UNL     1     -18.305 -49.705 -18.613  1.00  0.00     0.027 C
ENDROOT
BRANCH   1  20
HETATM   20  O3  UNL     1     -16.052 -48.808 -18.281  1.00  0.00    -0.315 OA
BRANCH  20  21
HETATM   21  C7  UNL     1     -15.472 -47.993 -17.319  1.00  0.00     0.263 C
HETATM   22  O2  UNL     1     -15.281 -46.790 -17.617  1.00  0.00    -0.265 OA
BRANCH  21  23
HETATM   23  C6  UNL     1     -15.081 -48.478 -15.987  1.00  0.00     0.092 C
HETATM   24  C5  UNL     1     -15.031 -47.238 -15.081  1.00  0.00     0.045 C
HETATM   25  C4  UNL     1     -14.101 -47.493 -13.881  1.00  0.00     0.273 C
HETATM   26  N1  UNL     1     -12.768 -47.517 -14.333  1.00  0.00     0.091 N
HETATM   27  C28 UNL     1     -12.650 -48.027 -15.702  1.00  0.00     0.277 C
HETATM   28  C26 UNL     1     -13.723 -49.083 -15.937  1.00  0.00     0.023 C
HETATM   29  C27 UNL     1     -13.327 -49.908 -17.121  1.00  0.00     0.012 C
BRANCH  26  30
HETATM   30  C3  UNL     1     -11.794 -48.051 -13.473  1.00  0.00     0.303 C
BRANCH  30  31
HETATM   31  C2  UNL     1     -10.541 -48.488 -14.162  1.00  0.00     0.142 C
HETATM   32  C1  UNL     1      -9.328 -47.625 -13.955  1.00  0.00     0.041 C
BRANCH  31  33
HETATM   33  O1  UNL     1     -10.149 -49.765 -13.637  1.00  0.00    -0.394 OA
ATOM     34  H1  UNL     1     -10.844 -49.983 -13.028  1.00  0.00     0.210 HD
ENDBRANCH  31  33
ENDBRANCH  30  31
ENDBRANCH  26  30
ENDBRANCH  21  23
ENDBRANCH  20  21
ENDBRANCH   1  20
BRANCH   8  35
HETATM   35  O5  UNL     1     -16.863 -50.676 -21.863  1.00  0.00    -0.386 OA
ATOM     36  H5  UNL     1     -17.580 -50.640 -22.484  1.00  0.00     0.210 HD
ENDBRANCH   8  35
TORSDOF 7
ENDMDL