MODEL 3
REMARK VINA RESULT: -6.657266124      2.068      3.137
REMARK  8 active torsions:
REMARK  status: ('A' for Active; 'I' for Inactive)
REMARK    1  A    between atoms: C2_2  and  C3_3
REMARK    2  A    between atoms: C3_3  and  O1_4
REMARK    3  A    between atoms: O1_4  and  C4_5
REMARK    4  A    between atoms: C4_5  and  C5_6
REMARK    5  A    between atoms: C6_8  and  O3_9
REMARK    6  A    between atoms: C17_22  and  C18_23
REMARK    7  A    between atoms: C18_23  and  C19_25
REMARK    8  A    between atoms: C20_26  and  C21_27
ROOT
HETATM    1  C5  UNL     1     -17.208 -50.260 -20.073  1.00  0.00     0.153 A
HETATM    2  O2  UNL     1     -17.345 -49.504 -21.228  1.00  0.00    -0.332 OA
HETATM    3  C6  UNL     1     -18.537 -49.795 -20.411  1.00  0.00     0.202 A
HETATM    4  C7  UNL     1     -19.339 -50.911 -21.031  1.00  0.00     0.066 A
HETATM    5  C8  UNL     1     -18.692 -51.808 -22.031  1.00  0.00     0.005 A
HETATM    6  C9  UNL     1     -19.413 -52.737 -22.900  1.00  0.00     0.007 C
HETATM    7  C10 UNL     1     -18.700 -53.944 -23.400  1.00  0.00     0.011 C
HETATM    8  C11 UNL     1     -17.341 -53.767 -23.916  1.00  0.00    -0.029 C
HETATM    9  C12 UNL     1     -17.105 -52.515 -24.712  1.00  0.00     0.016 C
HETATM   10  C13 UNL     1     -16.955 -54.873 -24.934  1.00  0.00     0.017 C
HETATM   11  C14 UNL     1     -15.444 -54.582 -25.036  1.00  0.00     0.080 C
HETATM   12  C15 UNL     1     -15.108 -53.773 -23.791  1.00  0.00     0.136 C
HETATM   13  O4  UNL     1     -14.112 -53.091 -23.737  1.00  0.00    -0.297 OA
HETATM   14  C16 UNL     1     -16.226 -54.103 -22.936  1.00  0.00     0.105 C
HETATM   15  C17 UNL     1     -16.357 -53.721 -21.557  1.00  0.00     0.059 C
HETATM   16  C25 UNL     1     -16.280 -52.326 -21.126  1.00  0.00     0.169 C
HETATM   17  O6  UNL     1     -15.428 -51.591 -21.583  1.00  0.00    -0.292 OA
HETATM   18  C26 UNL     1     -17.228 -51.756 -20.125  1.00  0.00     0.112 C
HETATM   19  C27 UNL     1     -18.603 -52.121 -20.609  1.00  0.00    -0.017 A
HETATM   20  C28 UNL     1     -19.451 -53.104 -19.875  1.00  0.00     0.017 C
ENDROOT
BRANCH  15  21
HETATM   21  C18 UNL     1     -15.583 -54.647 -20.686  1.00  0.00     0.236 C
HETATM   22  O5  UNL     1     -16.094 -55.064 -19.584  1.00  0.00    -0.278 OA
BRANCH  21  23
HETATM   23  C19 UNL     1     -14.267 -55.100 -21.034  1.00  0.00    -0.023 C
HETATM   24  C20 UNL     1     -13.151 -55.516 -21.329  1.00  0.00    -0.089 C
BRANCH  24  25
HETATM   25  C21 UNL     1     -11.821 -55.990 -21.693  1.00  0.00     0.013 C
HETATM   26  C22 UNL     1     -10.787 -55.058 -21.141  1.00  0.00     0.028 C
HETATM   27  C23 UNL     1     -11.645 -56.101 -23.191  1.00  0.00     0.028 C
HETATM   28  C24 UNL     1     -11.652 -57.371 -21.108  1.00  0.00     0.028 C
ENDBRANCH  24  25
ENDBRANCH  21  23
ENDBRANCH  15  21
BRANCH   1  29
HETATM   29  C4  UNL     1     -16.519 -49.564 -18.917  1.00  0.00     0.212 C
BRANCH  29  30
HETATM   30  O1  UNL     1     -15.250 -49.113 -19.326  1.00  0.00    -0.388 OA
BRANCH  30  31
HETATM   31  C3  UNL     1     -14.238 -49.837 -18.726  1.00  0.00     0.167 C
BRANCH  31  32
HETATM   32  C2  UNL     1     -14.633 -50.126 -17.312  1.00  0.00     0.022 C
HETATM   33  C1  UNL     1     -13.556 -49.792 -16.315  1.00  0.00     0.007 C
ENDBRANCH  31  32
ENDBRANCH  30  31
ENDBRANCH  29  30
ENDBRANCH   1  29
BRANCH   3  34
HETATM   34  O3  UNL     1     -19.128 -48.644 -19.994  1.00  0.00    -0.362 OA
ATOM     35  H3  UNL     1     -19.635 -48.040 -20.524  1.00  0.00     0.213 HD
ENDBRANCH   3  34
TORSDOF 8
ENDMDL