MODEL 4
REMARK VINA RESULT: -7.363601078      1.585      1.966
REMARK  6 active torsions:
REMARK  status: ('A' for Active; 'I' for Inactive)
REMARK    1  A    between atoms: C2_2  and  C3_3
REMARK    2  A    between atoms: C3_3  and  C4_4
REMARK    3  A    between atoms: C7_9  and  C8_10
REMARK    4  A    between atoms: C24_28  and  O5_29
REMARK    5  A    between atoms: C24_28  and  C25_31
REMARK    6  A    between atoms: C25_31  and  O6_34
ROOT
HETATM    1  C8  UNL     1     -14.651 -50.680 -19.139  1.00  0.00     0.010 C
HETATM    2  C9  UNL     1     -14.247 -51.477 -20.098  1.00  0.00    -0.072 C
HETATM    3  C10 UNL     1     -12.799 -51.995 -20.040  1.00  0.00     0.011 C
HETATM    4  C11 UNL     1     -12.028 -51.479 -18.917  1.00  0.00     0.015 C
HETATM    5  C12 UNL     1     -12.756 -53.509 -20.121  1.00  0.00     0.017 C
HETATM    6  C13 UNL     1     -13.316 -53.905 -21.450  1.00  0.00     0.041 C
HETATM    7  C14 UNL     1     -14.763 -53.532 -21.464  1.00  0.00     0.046 C
HETATM    8  C15 UNL     1     -15.611 -54.150 -20.489  1.00  0.00     0.204 C
HETATM    9  O3  UNL     1     -15.375 -55.085 -19.677  1.00  0.00    -0.288 OA
HETATM   10  C16 UNL     1     -17.004 -53.653 -20.368  1.00  0.00     0.196 C
HETATM   11  O4  UNL     1     -17.880 -54.238 -19.685  1.00  0.00    -0.289 OA
HETATM   12  C17 UNL     1     -17.393 -52.431 -21.068  1.00  0.00     0.092 C
HETATM   13  C18 UNL     1     -16.237 -51.760 -21.692  1.00  0.00     0.003 C
HETATM   14  C19 UNL     1     -16.165 -52.437 -23.101  1.00  0.00     0.011 C
HETATM   15  C20 UNL     1     -15.192 -53.551 -22.910  1.00  0.00     0.003 C
HETATM   16  C21 UNL     1     -15.530 -54.870 -23.455  1.00  0.00     0.006 C
HETATM   17  C22 UNL     1     -14.340 -55.519 -24.116  1.00  0.00     0.004 C
HETATM   18  C23 UNL     1     -13.006 -55.131 -23.550  1.00  0.00     0.041 C
HETATM   19  C24 UNL     1     -12.988 -55.222 -22.012  1.00  0.00     0.093 C
HETATM   20  C28 UNL     1     -14.876 -52.011 -21.271  1.00  0.00     0.036 C
ENDROOT
BRANCH   1  21
HETATM   21  C7  UNL     1     -15.913 -50.021 -18.883  1.00  0.00     0.173 C
HETATM   22  C4  UNL     1     -16.040 -49.205 -17.616  1.00  0.00     0.074 C
HETATM   23  C5  UNL     1     -17.441 -48.695 -17.499  1.00  0.00     0.029 C
HETATM   24  C6  UNL     1     -16.003 -50.605 -17.053  1.00  0.00     0.270 C
HETATM   25  O1  UNL     1     -15.479 -51.127 -16.047  1.00  0.00    -0.264 OA
HETATM   26  O2  UNL     1     -16.787 -50.918 -18.167  1.00  0.00    -0.310 OA
BRANCH  22  27
HETATM   27  C3  UNL     1     -14.943 -48.336 -17.220  1.00  0.00     0.022 C
BRANCH  27  28
HETATM   28  C2  UNL     1     -15.315 -47.106 -16.495  1.00  0.00    -0.003 C
HETATM   29  C1  UNL     1     -15.093 -47.085 -15.010  1.00  0.00     0.005 C
ENDBRANCH  27  28
ENDBRANCH  22  27
ENDBRANCH   1  21
BRANCH  19  30
HETATM   30  O5  UNL     1     -13.898 -56.259 -21.767  1.00  0.00    -0.386 OA
ATOM     31  H5  UNL     1     -13.593 -57.144 -21.926  1.00  0.00     0.210 HD
ENDBRANCH  19  30
BRANCH  19  32
HETATM   32  C25 UNL     1     -11.662 -55.805 -21.649  1.00  0.00     0.082 C
HETATM   33  C26 UNL     1     -10.602 -54.796 -21.308  1.00  0.00     0.049 C
HETATM   34  C27 UNL     1     -11.188 -56.881 -22.610  1.00  0.00     0.049 C
BRANCH  32  35
HETATM   35  O6  UNL     1     -11.883 -56.513 -20.434  1.00  0.00    -0.388 OA
ATOM     36  H6  UNL     1     -12.169 -55.856 -19.809  1.00  0.00     0.210 HD
ENDBRANCH  32  35
ENDBRANCH  19  32
TORSDOF 6
ENDMDL