MODEL 5
REMARK VINA RESULT: -7.536980498      2.237      3.779
REMARK  6 active torsions:
REMARK  status: ('A' for Active; 'I' for Inactive)
REMARK    1  A    between atoms: C2_2  and  N1_4
REMARK    2  A    between atoms: N1_4  and  C5_6
REMARK    3  A    between atoms: C5_6  and  C6_7
REMARK    4  A    between atoms: C6_7  and  C7_9
REMARK    5  A    between atoms: C27_31  and  O4_32
REMARK    6  A    between atoms: C28_34  and  O5_35
ROOT
HETATM    1  C7  UNL     1     -13.493 -47.873 -15.830  1.00  0.00     0.208 C
HETATM    2  O2  UNL     1     -13.126 -49.053 -16.533  1.00  0.00    -0.368 OA
HETATM    3  C8  UNL     1     -14.280 -49.629 -16.124  1.00  0.00     0.171 C
HETATM    4  C9  UNL     1     -14.948 -48.333 -15.946  1.00  0.00     0.019 C
HETATM    5  C10 UNL     1     -15.741 -48.280 -14.666  1.00  0.00     0.021 C
HETATM    6  C11 UNL     1     -15.669 -47.800 -17.133  1.00  0.00     0.015 C
HETATM    7  C12 UNL     1     -15.299 -48.510 -18.437  1.00  0.00     0.009 C
HETATM    8  C13 UNL     1     -15.618 -49.945 -18.249  1.00  0.00     0.034 C
HETATM    9  C14 UNL     1     -15.527 -50.770 -19.539  1.00  0.00    -0.030 C
HETATM   10  C15 UNL     1     -14.287 -50.462 -20.326  1.00  0.00     0.016 C
HETATM   11  C16 UNL     1     -16.710 -50.342 -20.376  1.00  0.00     0.037 C
HETATM   12  C17 UNL     1     -17.437 -51.409 -21.036  1.00  0.00    -0.022 C
HETATM   13  C18 UNL     1     -17.143 -52.710 -21.007  1.00  0.00    -0.068 C
HETATM   14  C19 UNL     1     -18.000 -53.679 -21.746  1.00  0.00     0.113 C
HETATM   15  C20 UNL     1     -17.817 -55.086 -21.366  1.00  0.00     0.130 C
HETATM   16  O3  UNL     1     -18.611 -55.940 -21.771  1.00  0.00    -0.298 OA
HETATM   17  C21 UNL     1     -16.701 -55.552 -20.498  1.00  0.00     0.079 C
HETATM   18  C22 UNL     1     -16.260 -54.488 -19.552  1.00  0.00     0.021 C
HETATM   19  C23 UNL     1     -15.977 -53.163 -20.258  1.00  0.00    -0.016 C
HETATM   20  C24 UNL     1     -14.863 -53.439 -21.225  1.00  0.00     0.020 C
HETATM   21  C25 UNL     1     -15.644 -52.203 -19.152  1.00  0.00     0.009 C
HETATM   22  C26 UNL     1     -14.491 -52.658 -18.322  1.00  0.00     0.041 C
HETATM   23  C27 UNL     1     -13.880 -51.594 -17.477  1.00  0.00     0.156 C
HETATM   24  C28 UNL     1     -14.961 -50.579 -17.076  1.00  0.00     0.115 C
ENDROOT
BRANCH   1  25
HETATM   25  C6  UNL     1     -12.950 -47.796 -14.480  1.00  0.00     0.194 C
HETATM   26  O1  UNL     1     -13.330 -46.784 -13.818  1.00  0.00    -0.289 OA
BRANCH  25  27
HETATM   27  C5  UNL     1     -12.039 -48.743 -13.833  1.00  0.00     0.138 C
BRANCH  27  28
HETATM   28  N1  UNL     1     -10.661 -48.525 -13.801  1.00  0.00    -0.387 N
HETATM   29  C4  UNL     1     -10.334 -47.154 -13.387  1.00  0.00     0.149 C
BRANCH  28  30
HETATM   30  C2  UNL     1      -9.774 -49.029 -14.759  1.00  0.00     0.075 C
HETATM   31  C1  UNL     1     -10.235 -50.466 -15.099  1.00  0.00     0.032 C
HETATM   32  C3  UNL     1      -8.325 -49.127 -14.365  1.00  0.00     0.032 C
ENDBRANCH  28  30
ENDBRANCH  27  28
ENDBRANCH  25  27
ENDBRANCH   1  25
BRANCH  24  33
HETATM   33  O5  UNL     1     -15.871 -51.306 -16.295  1.00  0.00    -0.384 OA
ATOM     34  H5  UNL     1     -15.921 -52.166 -16.696  1.00  0.00     0.210 HD
ENDBRANCH  24  33
BRANCH  23  35
HETATM   35  O4  UNL     1     -13.472 -52.177 -16.256  1.00  0.00    -0.392 OA
ATOM     36  H4  UNL     1     -12.956 -51.538 -15.778  1.00  0.00     0.210 HD
ENDBRANCH  23  35
TORSDOF 6
ENDMDL