MODEL 3
REMARK VINA RESULT: -7.027469859      4.252      8.031
REMARK  9 active torsions:
REMARK  status: ('A' for Active; 'I' for Inactive)
REMARK    1  A    between atoms: C2_2  and  O2_4
REMARK    2  A    between atoms: O2_4  and  C3_5
REMARK    3  A    between atoms: C5_7  and  C6_8
REMARK    4  A    between atoms: C7_9  and  C8_10
REMARK    5  A    between atoms: C8_10  and  C9_11
REMARK    6  A    between atoms: C9_11  and  O3_12
REMARK    7  A    between atoms: C20_26  and  C22_28
REMARK    8  A    between atoms: C23_29  and  C24_30
REMARK    9  A    between atoms: C24_30  and  N1_31
ROOT
HETATM    1  C9  UNL     1     -20.077 -51.341 -20.811  1.00  0.00     0.176 C
HETATM    2  O4  UNL     1     -19.054 -50.956 -21.640  1.00  0.00    -0.342 OA
HETATM    3  C10 UNL     1     -18.736 -52.274 -21.965  1.00  0.00     0.078 C
HETATM    4  C11 UNL     1     -19.305 -52.672 -23.304  1.00  0.00     0.047 C
HETATM    5  C12 UNL     1     -17.286 -52.565 -21.763  1.00  0.00     0.033 C
HETATM    6  C13 UNL     1     -16.444 -52.080 -22.904  1.00  0.00     0.087 C
HETATM    7  C14 UNL     1     -15.110 -52.740 -22.974  1.00  0.00     0.138 C
HETATM    8  O5  UNL     1     -14.125 -52.082 -23.202  1.00  0.00    -0.297 OA
HETATM    9  C15 UNL     1     -15.089 -54.170 -22.756  1.00  0.00     0.046 C
HETATM   10  C16 UNL     1     -15.938 -54.971 -23.720  1.00  0.00     0.026 C
HETATM   11  C17 UNL     1     -15.698 -54.401 -21.358  1.00  0.00     0.030 C
HETATM   12  C18 UNL     1     -15.404 -55.828 -21.199  1.00  0.00    -0.023 C
HETATM   13  C19 UNL     1     -14.270 -56.102 -21.874  1.00  0.00    -0.007 C
HETATM   14  C20 UNL     1     -13.771 -54.823 -22.518  1.00  0.00     0.052 C
HETATM   15  C21 UNL     1     -12.987 -55.105 -23.760  1.00  0.00     0.035 C
HETATM   16  C25 UNL     1     -17.135 -54.028 -21.458  1.00  0.00     0.002 C
HETATM   17  C26 UNL     1     -17.773 -54.272 -20.104  1.00  0.00     0.007 C
HETATM   18  C27 UNL     1     -18.647 -53.119 -19.659  1.00  0.00     0.018 C
HETATM   19  C28 UNL     1     -19.537 -52.725 -20.790  1.00  0.00     0.044 C
HETATM   20  C29 UNL     1     -20.608 -53.746 -21.065  1.00  0.00     0.024 C
ENDROOT
BRANCH   1  21
HETATM   21  C8  UNL     1     -20.174 -50.621 -19.488  1.00  0.00     0.096 C
BRANCH  21  22
HETATM   22  C7  UNL     1     -18.873 -49.908 -19.295  1.00  0.00    -0.021 C
HETATM   23  C6  UNL     1     -18.449 -49.553 -18.112  1.00  0.00    -0.001 C
BRANCH  23  24
HETATM   24  C5  UNL     1     -17.192 -48.868 -17.948  1.00  0.00     0.032 C
HETATM   25  C3  UNL     1     -16.990 -47.917 -17.054  1.00  0.00     0.052 C
HETATM   26  C4  UNL     1     -18.097 -47.505 -16.147  1.00  0.00     0.077 C
BRANCH  25  27
HETATM   27  O2  UNL     1     -15.772 -47.270 -16.914  1.00  0.00    -0.284 OA
BRANCH  27  28
HETATM   28  C2  UNL     1     -14.978 -47.347 -15.791  1.00  0.00     0.259 C
HETATM   29  C1  UNL     1     -14.027 -48.488 -15.563  1.00  0.00     0.126 C
HETATM   30  O1  UNL     1     -15.059 -46.435 -14.940  1.00  0.00    -0.265 OA
ENDBRANCH  27  28
ENDBRANCH  25  27
ENDBRANCH  23  24
ENDBRANCH  21  22
ENDBRANCH   1  21
BRANCH   1  31
HETATM   31  O3  UNL     1     -21.310 -51.256 -21.465  1.00  0.00    -0.364 OA
ATOM     32  H3  UNL     1     -21.878 -51.945 -21.142  1.00  0.00     0.213 HD
ENDBRANCH   1  31
BRANCH  14  33
HETATM   33  C22 UNL     1     -13.021 -54.018 -21.550  1.00  0.00    -0.090 C
HETATM   34  C23 UNL     1     -12.399 -53.370 -20.742  1.00  0.00    -0.078 C
BRANCH  34  35
HETATM   35  C24 UNL     1     -11.664 -52.573 -19.752  1.00  0.00     0.323 C
BRANCH  35  36
HETATM   36  N1  UNL     1     -10.257 -52.749 -19.997  1.00  0.00    -0.069 N
ATOM     37  H13 UNL     1      -9.777 -51.870 -20.191  1.00  0.00     0.275 HD
ATOM     38  H12 UNL     1      -9.738 -53.003 -19.157  1.00  0.00     0.275 HD
ATOM     39  H11 UNL     1     -10.151 -53.431 -20.748  1.00  0.00     0.275 HD
ENDBRANCH  35  36
ENDBRANCH  34  35
ENDBRANCH  14  33
TORSDOF 9
ENDMDL