MODEL 3
REMARK VINA RESULT: -8.399934962      2.824      6.713
REMARK  6 active torsions:
REMARK  status: ('A' for Active; 'I' for Inactive)
REMARK    1  A    between atoms: C2_2  and  C3_3
REMARK    2  A    between atoms: C3_3  and  O2_5
REMARK    3  A    between atoms: O2_5  and  C4_6
REMARK    4  A    between atoms: C4_6  and  C5_7
REMARK    5  A    between atoms: C19_22  and  O4_23
REMARK    6  A    between atoms: C24_29  and  O5_30
ROOT
HETATM    1  C5  UNL     1     -12.942 -51.175 -18.003  1.00  0.00     0.081 C
HETATM    2  C6  UNL     1     -12.214 -51.770 -16.805  1.00  0.00     0.048 C
HETATM    3  C7  UNL     1     -14.375 -51.675 -18.059  1.00  0.00     0.048 C
HETATM    4  C8  UNL     1     -15.157 -50.645 -17.355  1.00  0.00     0.032 C
HETATM    5  C9  UNL     1     -16.009 -49.715 -18.183  1.00  0.00    -0.030 C
HETATM    6  C10 UNL     1     -15.904 -50.163 -19.654  1.00  0.00     0.016 C
HETATM    7  C11 UNL     1     -17.427 -49.807 -17.774  1.00  0.00     0.020 C
HETATM    8  C12 UNL     1     -18.235 -48.535 -17.983  1.00  0.00     0.027 C
HETATM    9  C13 UNL     1     -17.978 -47.699 -16.808  1.00  0.00    -0.043 C
HETATM   10  C14 UNL     1     -18.877 -46.938 -16.270  1.00  0.00     0.056 C
HETATM   11  C15 UNL     1     -20.194 -46.900 -16.839  1.00  0.00     0.155 C
HETATM   12  O3  UNL     1     -21.000 -45.964 -16.533  1.00  0.00    -0.293 OA
HETATM   13  C16 UNL     1     -20.690 -47.918 -17.792  1.00  0.00     0.074 C
HETATM   14  C17 UNL     1     -21.586 -47.197 -18.767  1.00  0.00     0.022 C
HETATM   15  C18 UNL     1     -20.969 -45.976 -19.364  1.00  0.00     0.013 C
HETATM   16  C19 UNL     1     -22.100 -48.098 -19.864  1.00  0.00     0.122 C
HETATM   17  C20 UNL     1     -20.992 -48.878 -20.524  1.00  0.00     0.033 C
HETATM   18  C21 UNL     1     -19.645 -48.625 -19.949  1.00  0.00     0.013 C
HETATM   19  C22 UNL     1     -19.630 -48.746 -18.412  1.00  0.00    -0.025 C
HETATM   20  C23 UNL     1     -20.021 -50.218 -18.196  1.00  0.00     0.016 C
HETATM   21  C24 UNL     1     -16.696 -47.591 -16.080  1.00  0.00     0.148 C
HETATM   22  C25 UNL     1     -15.629 -47.430 -17.109  1.00  0.00     0.044 C
HETATM   23  C26 UNL     1     -15.161 -48.600 -17.846  1.00  0.00     0.032 C
HETATM   24  C27 UNL     1     -14.192 -49.527 -17.139  1.00  0.00     0.067 C
HETATM   25  C28 UNL     1     -13.929 -49.283 -15.705  1.00  0.00     0.047 C
HETATM   26  O6  UNL     1     -13.030 -49.837 -17.824  1.00  0.00    -0.367 OA
ENDROOT
BRANCH   1  27
HETATM   27  C4  UNL     1     -12.167 -51.617 -19.215  1.00  0.00     0.216 C
BRANCH  27  28
HETATM   28  O2  UNL     1     -12.585 -52.782 -19.822  1.00  0.00    -0.315 OA
BRANCH  28  29
HETATM   29  C3  UNL     1     -12.935 -53.072 -21.107  1.00  0.00     0.282 C
HETATM   30  O1  UNL     1     -12.480 -54.134 -21.604  1.00  0.00    -0.260 OA
BRANCH  29  31
HETATM   31  C2  UNL     1     -13.810 -52.190 -21.903  1.00  0.00     0.072 C
HETATM   32  C1  UNL     1     -14.185 -52.539 -23.103  1.00  0.00     0.017 C
ENDBRANCH  29  31
ENDBRANCH  28  29
ENDBRANCH  27  28
ENDBRANCH   1  27
BRANCH  21  33
HETATM   33  O5  UNL     1     -16.726 -46.435 -15.310  1.00  0.00    -0.391 OA
ATOM     34  H5  UNL     1     -16.147 -46.555 -14.566  1.00  0.00     0.210 HD
ENDBRANCH  21  33
BRANCH  16  35
HETATM   35  O4  UNL     1     -22.801 -47.292 -20.761  1.00  0.00    -0.395 OA
ATOM     36  H4  UNL     1     -22.986 -46.473 -20.316  1.00  0.00     0.210 HD
ENDBRANCH  16  35
TORSDOF 6
ENDMDL