MODEL 5
REMARK VINA RESULT: -7.655260781      1.780      7.225
REMARK  7 active torsions:
REMARK  status: ('A' for Active; 'I' for Inactive)
REMARK    1  A    between atoms: C2_2  and  C3_3
REMARK    2  A    between atoms: C2_2  and  C15_17
REMARK    3  A    between atoms: C3_3  and  C4_4
REMARK    4  A    between atoms: C4_4  and  C5_5
REMARK    5  A    between atoms: C18_21  and  C19_22
REMARK    6  A    between atoms: C19_22  and  C20_24
REMARK    7  A    between atoms: C27_33  and  O7_34
ROOT
HETATM    1  C15 UNL     1     -13.709 -50.754 -18.672  1.00  0.00     0.057 C
HETATM    2  C16 UNL     1     -14.391 -51.395 -17.489  1.00  0.00     0.045 C
HETATM    3  C17 UNL     1     -14.374 -50.332 -16.410  1.00  0.00     0.132 C
HETATM    4  O3  UNL     1     -13.071 -49.931 -16.202  1.00  0.00    -0.371 OA
HETATM    5  C18 UNL     1     -13.051 -48.540 -16.019  1.00  0.00     0.211 C
HETATM    6  C21 UNL     1     -14.475 -48.089 -15.947  1.00  0.00    -0.004 C
HETATM    7  C22 UNL     1     -14.959 -48.204 -14.539  1.00  0.00     0.019 C
HETATM    8  C23 UNL     1     -14.728 -46.718 -16.474  1.00  0.00     0.019 C
HETATM    9  C24 UNL     1     -15.145 -49.146 -16.849  1.00  0.00    -0.006 C
HETATM   10  C25 UNL     1     -16.604 -49.279 -16.408  1.00  0.00     0.019 C
HETATM   11  C26 UNL     1     -15.133 -48.762 -18.260  1.00  0.00     0.045 C
HETATM   12  C27 UNL     1     -14.618 -49.786 -19.263  1.00  0.00     0.128 C
ENDROOT
BRANCH   1  13
HETATM   13  C2  UNL     1     -13.049 -51.760 -19.581  1.00  0.00    -0.020 C
HETATM   14  C1  UNL     1     -11.848 -52.233 -19.129  1.00  0.00     0.028 C
BRANCH  13  15
HETATM   15  C3  UNL     1     -13.489 -52.176 -20.779  1.00  0.00    -0.148 C
BRANCH  15  16
HETATM   16  C4  UNL     1     -13.922 -52.586 -21.961  1.00  0.00     0.091 C
BRANCH  16  17
HETATM   17  C5  UNL     1     -15.161 -53.323 -22.279  1.00  0.00     0.018 C
HETATM   18  C6  UNL     1     -15.886 -53.906 -21.106  1.00  0.00     0.058 C
HETATM   19  C7  UNL     1     -15.292 -55.231 -20.710  1.00  0.00     0.018 C
HETATM   20  C8  UNL     1     -17.338 -54.116 -21.390  1.00  0.00     0.146 C
HETATM   21  O1  UNL     1     -17.810 -55.211 -21.356  1.00  0.00    -0.296 OA
HETATM   22  C9  UNL     1     -18.140 -52.923 -21.705  1.00  0.00     0.074 C
HETATM   23  C10 UNL     1     -18.768 -52.430 -20.392  1.00  0.00     0.031 C
HETATM   24  C11 UNL     1     -19.259 -53.187 -22.672  1.00  0.00     0.031 C
HETATM   25  C12 UNL     1     -17.196 -51.856 -22.215  1.00  0.00     0.146 C
HETATM   26  O2  UNL     1     -17.396 -50.718 -21.943  1.00  0.00    -0.296 OA
HETATM   27  C13 UNL     1     -16.071 -52.348 -23.037  1.00  0.00     0.058 C
HETATM   28  C14 UNL     1     -16.569 -53.017 -24.286  1.00  0.00     0.018 C
ENDBRANCH  16  17
ENDBRANCH  15  16
ENDBRANCH  13  15
ENDBRANCH   1  13
BRANCH  12  29
HETATM   29  O7  UNL     1     -15.794 -50.431 -19.713  1.00  0.00    -0.395 OA
ATOM     30  H7  UNL     1     -15.841 -50.405 -20.661  1.00  0.00     0.210 HD
ENDBRANCH  12  29
BRANCH   5  31
HETATM   31  C19 UNL     1     -12.238 -48.279 -14.822  1.00  0.00     0.254 C
HETATM   32  O4  UNL     1     -12.468 -47.209 -14.142  1.00  0.00    -0.283 OA
BRANCH  31  33
HETATM   33  C20 UNL     1     -11.181 -49.108 -14.299  1.00  0.00     0.249 C
HETATM   34  O5  UNL     1     -11.159 -49.434 -13.101  1.00  0.00    -0.642 OA
HETATM   35  O6  UNL     1     -10.163 -49.571 -15.103  1.00  0.00    -0.642 OA
ENDBRANCH  31  33
ENDBRANCH   5  31
TORSDOF 7
ENDMDL