MODEL 1
REMARK VINA RESULT: -7.925897946      0.000      0.000
REMARK  6 active torsions:
REMARK  status: ('A' for Active; 'I' for Inactive)
REMARK    1  A    between atoms: C2_2  and  O1_3
REMARK    2  A    between atoms: C2_2  and  C3_5
REMARK    3  A    between atoms: C2_2  and  C7_11
REMARK    4  A    between atoms: C10_14  and  C11_15
REMARK    5  A    between atoms: C22_27  and  O5_28
REMARK    6  A    between atoms: C26_33  and  C28_35
ROOT
HETATM    1  C7  UNL     1     -15.816 -52.658 -21.565  1.00  0.00     0.036 C
HETATM    2  C8  UNL     1     -14.441 -51.979 -21.754  1.00  0.00     0.009 C
HETATM    3  C9  UNL     1     -14.060 -52.118 -20.258  1.00  0.00     0.007 C
HETATM    4  C10 UNL     1     -15.210 -51.246 -19.660  1.00  0.00     0.006 C
HETATM    5  C26 UNL     1     -16.375 -51.798 -20.451  1.00  0.00     0.020 C
HETATM    6  C27 UNL     1     -17.320 -52.661 -19.698  1.00  0.00     0.023 C
ENDROOT
BRANCH   4   7
HETATM    7  C11 UNL     1     -15.248 -51.438 -18.183  1.00  0.00    -0.001 C
HETATM    8  C12 UNL     1     -14.149 -52.473 -17.782  1.00  0.00     0.006 C
HETATM    9  C13 UNL     1     -13.428 -51.857 -16.583  1.00  0.00     0.006 C
HETATM   10  C14 UNL     1     -13.422 -50.438 -17.124  1.00  0.00     0.003 C
HETATM   11  C15 UNL     1     -12.713 -49.454 -16.328  1.00  0.00    -0.033 C
HETATM   12  C24 UNL     1     -14.925 -50.308 -17.288  1.00  0.00    -0.033 C
HETATM   13  C16 UNL     1     -11.431 -49.081 -17.123  1.00  0.00     0.016 C
HETATM   14  C17 UNL     1     -12.092 -50.107 -15.081  1.00  0.00     0.017 C
HETATM   15  C21 UNL     1     -13.381 -48.161 -16.024  1.00  0.00     0.030 C
HETATM   16  C18 UNL     1     -11.144 -49.144 -14.371  1.00  0.00     0.079 C
HETATM   17  C19 UNL     1     -11.921 -47.928 -14.030  1.00  0.00     0.127 C
HETATM   18  O4  UNL     1     -11.428 -47.071 -13.349  1.00  0.00    -0.298 OA
HETATM   19  C20 UNL     1     -13.285 -47.814 -14.543  1.00  0.00     0.086 C
HETATM   20  C22 UNL     1     -14.821 -48.072 -16.390  1.00  0.00     0.124 C
HETATM   21  C23 UNL     1     -15.140 -48.910 -17.655  1.00  0.00     0.042 C
HETATM   22  C25 UNL     1     -15.643 -50.608 -15.979  1.00  0.00     0.016 C
BRANCH  20  23
HETATM   23  O5  UNL     1     -15.184 -46.768 -16.740  1.00  0.00    -0.395 OA
ATOM     24  H5  UNL     1     -16.128 -46.659 -16.752  1.00  0.00     0.210 HD
ENDBRANCH  20  23
ENDBRANCH   4   7
BRANCH   5  25
HETATM   25  C28 UNL     1     -17.106 -50.623 -21.011  1.00  0.00     0.241 C
HETATM   26  O6  UNL     1     -16.926 -49.467 -20.679  1.00  0.00    -0.306 OA
ENDBRANCH   5  25
BRANCH   1  27
HETATM   27  C2  UNL     1     -16.556 -52.725 -22.829  1.00  0.00     0.071 C
HETATM   28  C1  UNL     1     -17.880 -52.031 -22.763  1.00  0.00     0.047 C
BRANCH  27  29
HETATM   29  O1  UNL     1     -15.878 -52.168 -23.919  1.00  0.00    -0.389 OA
ATOM     30  H1  UNL     1     -15.989 -52.778 -24.639  1.00  0.00     0.210 HD
ENDBRANCH  27  29
BRANCH  27  31
HETATM   31  C3  UNL     1     -16.797 -54.180 -23.223  1.00  0.00     0.122 C
HETATM   32  C4  UNL     1     -18.079 -54.400 -23.940  1.00  0.00     0.044 C
HETATM   33  C5  UNL     1     -17.758 -55.106 -25.238  1.00  0.00     0.179 C
HETATM   34  O2  UNL     1     -16.362 -54.963 -25.403  1.00  0.00    -0.321 OA
HETATM   35  C6  UNL     1     -15.765 -54.552 -24.212  1.00  0.00     0.266 C
HETATM   36  O3  UNL     1     -14.517 -54.506 -24.012  1.00  0.00    -0.265 OA
ENDBRANCH  27  31
ENDBRANCH   1  27
TORSDOF 6
ENDMDL