MODEL 3
REMARK VINA RESULT: -8.194892945      1.060      1.910
REMARK  7 active torsions:
REMARK  status: ('A' for Active; 'I' for Inactive)
REMARK    1  A    between atoms: O1_2  and  N1_3
REMARK    2  A    between atoms: C2_5  and  O2_6
REMARK    3  A    between atoms: C2_5  and  C3_8
REMARK    4  A    between atoms: C3_8  and  O3_10
REMARK    5  A    between atoms: O3_10  and  C4_11
REMARK    6  A    between atoms: C6_13  and  O4_14
REMARK    7  A    between atoms: C8_16  and  C9_17
ROOT
HETATM    1  C4  UNL     1      24.740  -2.321  17.505  1.00  0.00     0.117 A
HETATM    2  C5  UNL     1      24.333  -1.695  18.705  1.00  0.00     0.078 A
HETATM    3  C6  UNL     1      23.467  -2.269  19.594  1.00  0.00     0.086 A
HETATM    4  C8  UNL     1      22.964  -3.526  19.299  1.00  0.00     0.066 A
HETATM    5  C17 UNL     1      23.345  -4.155  18.138  1.00  0.00     0.172 A
HETATM    6  F2  UNL     1      22.919  -5.402  17.767  1.00  0.00    -0.202 F
HETATM    7  C18 UNL     1      24.231  -3.560  17.235  1.00  0.00     0.189 A
HETATM    8  F3  UNL     1      24.546  -4.277  16.102  1.00  0.00    -0.200 F
ENDROOT
BRANCH   4   9
HETATM    9  C9  UNL     1      22.056  -4.197  20.250  1.00  0.00     0.051 A
HETATM   10  C10 UNL     1      20.724  -3.915  20.477  1.00  0.00     0.062 A
HETATM   11  C11 UNL     1      20.233  -4.755  21.488  1.00  0.00     0.073 A
HETATM   12  C12 UNL     1      21.268  -5.536  21.865  1.00  0.00     0.129 A
HETATM   13  N4  UNL     1      19.044  -4.905  22.087  1.00  0.00    -0.301 N
HETATM   14  N2  UNL     1      22.348  -5.184  21.109  1.00  0.00    -0.349 N
HETATM   15  C13 UNL     1      21.061  -6.474  22.865  1.00  0.00     0.280 A
ATOM     16  H2  UNL     1      23.267  -5.619  21.188  1.00  0.00     0.166 HD
HETATM   17  O5  UNL     1      21.999  -7.208  23.231  1.00  0.00    -0.265 OA
HETATM   18  N3  UNL     1      19.871  -6.625  23.465  1.00  0.00    -0.269 N
HETATM   19  C14 UNL     1      19.642  -7.604  24.514  1.00  0.00     0.164 C
HETATM   20  C15 UNL     1      18.860  -5.832  23.069  1.00  0.00     0.331 A
HETATM   21  O6  UNL     1      17.736  -5.974  23.634  1.00  0.00    -0.246 OA
HETATM   22  C16 UNL     1      17.954  -4.053  21.663  1.00  0.00     0.161 C
ENDBRANCH   4   9
BRANCH   3  23
HETATM   23  O4  UNL     1      23.119  -1.564  20.761  1.00  0.00    -0.355 OA
HETATM   24  C7  UNL     1      22.243  -0.471  20.628  1.00  0.00     0.210 C
ENDBRANCH   3  23
BRANCH   1  25
HETATM   25  O3  UNL     1      25.602  -1.658  16.699  1.00  0.00    -0.305 OA
BRANCH  25  26
HETATM   26  C3  UNL     1      26.428  -0.601  16.807  1.00  0.00     0.389 C
HETATM   27  F1  UNL     1      25.821   0.507  17.445  1.00  0.00    -0.210 F
BRANCH  26  28
HETATM   28  C2  UNL     1      27.616  -0.879  17.715  1.00  0.00     0.197 C
HETATM   29  N1  UNL     1      27.857  -0.012  18.628  1.00  0.00    -0.245 N
ATOM     30  H1  UNL     1      27.241   0.799  18.685  1.00  0.00     0.196 HD
BRANCH  29  31
HETATM   31  O1  UNL     1      28.869  -0.096  19.523  1.00  0.00    -0.283 OA
HETATM   32  C1  UNL     1      29.252   0.990  20.357  1.00  0.00     0.237 C
ENDBRANCH  29  31
BRANCH  28  33
HETATM   33  O2  UNL     1      28.394  -1.994  17.574  1.00  0.00    -0.344 OA
ATOM     34  H2  UNL     1      28.731  -2.255  16.725  1.00  0.00     0.219 HD
ENDBRANCH  28  33
ENDBRANCH  26  28
ENDBRANCH  25  26
ENDBRANCH   1  25
TORSDOF 7
ENDMDL