MODEL 1
REMARK VINA RESULT: -9.933854749      0.000      0.000
REMARK  5 active torsions:
REMARK  status: ('A' for Active; 'I' for Inactive)
REMARK    1  A    between atoms: N2_5  and  C3_6
REMARK    2  A    between atoms: N3_11  and  C5_12
REMARK    3  A    between atoms: C7_14  and  C8_15
REMARK    4  A    between atoms: C15_25  and  C16_26
REMARK       I    between atoms: N4_27  and  C17_29
REMARK    5  A    between atoms: N6_31  and  O4_33
ROOT
HETATM    1  C5  UNL     1      23.702  -1.897  19.222  1.00  0.00     0.253 C
HETATM    2  C6  UNL     1      24.405  -3.225  19.389  1.00  0.00     0.070 C
HETATM    3  C7  UNL     1      23.556  -4.019  20.391  1.00  0.00     0.083 C
HETATM    4  C14 UNL     1      22.273  -4.374  19.699  1.00  0.00     0.319 C
HETATM    5  F4  UNL     1      22.442  -4.516  18.340  1.00  0.00    -0.219 F
HETATM    6  O3  UNL     1      21.247  -3.483  19.928  1.00  0.00    -0.321 OA
HETATM    7  C15 UNL     1      21.476  -2.210  19.455  1.00  0.00     0.305 C
HETATM    8  O5  UNL     1      22.519  -2.127  18.562  1.00  0.00    -0.330 OA
ENDROOT
BRANCH   1   9
HETATM    9  N3  UNL     1      24.534  -0.908  18.583  1.00  0.00    -0.206 N
HETATM   10  N1  UNL     1      24.409   0.410  18.625  1.00  0.00    -0.238 N
HETATM   11  C1  UNL     1      23.400   1.174  19.325  1.00  0.00     0.183 C
HETATM   12  C2  UNL     1      25.412   0.915  17.880  1.00  0.00     0.351 A
HETATM   13  O1  UNL     1      25.638   2.149  17.670  1.00  0.00    -0.245 OA
HETATM   14  N2  UNL     1      26.169  -0.058  17.369  1.00  0.00    -0.189 N
HETATM   15  C4  UNL     1      25.603  -1.213  17.822  1.00  0.00     0.354 A
HETATM   16  O2  UNL     1      26.064  -2.346  17.530  1.00  0.00    -0.244 OA
BRANCH  14  17
HETATM   17  C3  UNL     1      27.343   0.052  16.515  1.00  0.00     0.472 C
HETATM   18  F1  UNL     1      27.150  -0.564  15.298  1.00  0.00    -0.190 F
HETATM   19  F2  UNL     1      28.457  -0.471  17.127  1.00  0.00    -0.190 F
ENDBRANCH  14  17
ENDBRANCH   1   9
BRANCH   3  20
HETATM   20  C8  UNL     1      24.273  -5.246  20.808  1.00  0.00    -0.049 A
HETATM   21  C9  UNL     1      23.629  -6.161  21.608  1.00  0.00     0.011 A
HETATM   22  C10 UNL     1      24.241  -7.303  22.019  1.00  0.00     0.043 A
HETATM   23  C11 UNL     1      25.530  -7.578  21.648  1.00  0.00     0.116 A
HETATM   24  F3  UNL     1      26.119  -8.722  22.071  1.00  0.00    -0.206 F
HETATM   25  C12 UNL     1      26.186  -6.672  20.849  1.00  0.00     0.043 A
HETATM   26  C13 UNL     1      25.578  -5.511  20.425  1.00  0.00     0.011 A
ENDBRANCH   3  20
BRANCH   7  27
HETATM   27  C16 UNL     1      20.248  -1.752  18.767  1.00  0.00     0.123 C
HETATM   28  N4  UNL     1      20.165  -0.522  18.431  1.00  0.00    -0.338 N
HETATM   29  C17 UNL     1      19.047   0.055  17.766  1.00  0.00     0.211 C
ATOM     30  H4  UNL     1      20.952   0.088  18.654  1.00  0.00     0.167 HD
HETATM   31  N5  UNL     1      19.188   0.996  16.717  1.00  0.00    -0.061 NA
HETATM   32  N6  UNL     1      17.879  -0.327  18.170  1.00  0.00    -0.241 N
ATOM     33  H6  UNL     1      17.787  -1.005  18.926  1.00  0.00     0.197 HD
BRANCH  32  34
HETATM   34  O4  UNL     1      16.756   0.202  17.558  1.00  0.00    -0.287 OA
ATOM     35  H4  UNL     1      16.677   0.140  16.613  1.00  0.00     0.244 HD
ENDBRANCH  32  34
ENDBRANCH   7  27
TORSDOF 5
ENDMDL