MODEL 5
REMARK VINA RESULT: -7.530227222      4.619      6.313
REMARK  7 active torsions:
REMARK  status: ('A' for Active; 'I' for Inactive)
REMARK    1  A    between atoms: O1_2  and  C2_3
REMARK    2  A    between atoms: C2_3  and  C3_5
REMARK    3  A    between atoms: C4_6  and  C5_7
REMARK       I    between atoms: C5_7  and  N1_9
REMARK       I    between atoms: N1_9  and  C6_11
REMARK    4  A    between atoms: N5_18  and  C7_19
REMARK    5  A    between atoms: C7_19  and  C13_29
REMARK    6  A    between atoms: N6_20  and  O5_22
REMARK    7  A    between atoms: O5_22  and  C8_23
ROOT
HETATM    1  C3  UNL     1      23.429  -0.848  19.721  1.00  0.00     0.168 A
HETATM    2  C4  UNL     1      22.073  -1.075  19.706  1.00  0.00     0.152 A
HETATM    3  N3  UNL     1      21.883  -1.843  18.563  1.00  0.00    -0.278 N
ATOM      4  H3  UNL     1      20.985  -2.198  18.235  1.00  0.00     0.189 HD
HETATM    5  N4  UNL     1      23.029  -2.040  17.974  1.00  0.00    -0.233 N
ATOM      6  H4  UNL     1      23.156  -2.575  17.116  1.00  0.00     0.209 HD
HETATM    7  N5  UNL     1      24.002  -1.453  18.642  1.00  0.00    -0.215 N
ENDROOT
BRANCH   7   8
HETATM    8  C7  UNL     1      25.348  -1.481  18.266  1.00  0.00     0.180 C
HETATM    9  N6  UNL     1      26.050  -2.558  18.331  1.00  0.00    -0.248 N
ATOM     10  H6  UNL     1      27.021  -2.478  18.032  1.00  0.00     0.196 HD
BRANCH   9  11
HETATM   11  O5  UNL     1      25.656  -3.779  18.745  1.00  0.00    -0.271 OA
BRANCH  11  12
HETATM   12  C8  UNL     1      25.680  -4.953  17.994  1.00  0.00     0.186 C
HETATM   13  C9  UNL     1      24.390  -5.231  17.271  1.00  0.00     0.037 C
HETATM   14  C10 UNL     1      23.583  -6.110  18.183  1.00  0.00     0.006 C
HETATM   15  C11 UNL     1      24.451  -6.389  19.397  1.00  0.00     0.040 C
HETATM   16  C12 UNL     1      25.833  -6.203  18.854  1.00  0.00     0.201 C
HETATM   17  F1  UNL     1      26.156  -7.230  17.965  1.00  0.00    -0.247 F
ENDBRANCH  11  12
ENDBRANCH   9  11
BRANCH   8  18
HETATM   18  C13 UNL     1      26.093  -0.253  17.820  1.00  0.00     0.250 C
HETATM   19 CL1  UNL     1      25.051   1.135  17.520  1.00  0.00    -0.075 Cl
HETATM   20 CL2  UNL     1      27.228   0.242  19.129  1.00  0.00    -0.075 Cl
HETATM   21 CL3  UNL     1      27.129  -0.608  16.409  1.00  0.00    -0.075 Cl
ENDBRANCH   8  18
ENDBRANCH   7   8
BRANCH   1  22
HETATM   22  C2  UNL     1      24.148  -0.089  20.718  1.00  0.00     0.314 C
HETATM   23  O2  UNL     1      24.778  -0.684  21.634  1.00  0.00    -0.257 OA
BRANCH  22  24
HETATM   24  O1  UNL     1      24.205   1.265  20.751  1.00  0.00    -0.321 OA
HETATM   25  C1  UNL     1      23.133   2.065  20.337  1.00  0.00     0.213 C
ENDBRANCH  22  24
ENDBRANCH   1  22
BRANCH   2  26
HETATM   26  C5  UNL     1      20.988  -0.686  20.578  1.00  0.00     0.279 C
HETATM   27  O3  UNL     1      21.002  -0.679  21.811  1.00  0.00    -0.265 OA
HETATM   28  N1  UNL     1      19.764  -0.261  19.970  1.00  0.00    -0.276 N
HETATM   29  C6  UNL     1      18.668   0.131  20.761  1.00  0.00     0.335 C
ATOM     30  H1  UNL     1      19.684  -0.243  18.953  1.00  0.00     0.173 HD
HETATM   31  N2  UNL     1      17.472   0.546  20.135  1.00  0.00    -0.040 NA
HETATM   32  O4  UNL     1      18.738   0.118  22.017  1.00  0.00    -0.251 OA
ENDBRANCH   2  26
TORSDOF 7
ENDMDL