MODEL 1
REMARK VINA RESULT: -8.590958562      0.000      0.000
REMARK  8 active torsions:
REMARK  status: ('A' for Active; 'I' for Inactive)
REMARK    1  A    between atoms: O1_2  and  S1_3
REMARK    2  A    between atoms: S1_3  and  N1_6
REMARK    3  A    between atoms: N1_6  and  C2_8
REMARK    4  A    between atoms: C3_13  and  S2_14
REMARK    5  A    between atoms: S2_14  and  C4_15
REMARK    6  A    between atoms: C4_15  and  C5_16
REMARK    7  A    between atoms: C5_16  and  C6_18
REMARK    8  A    between atoms: C12_29  and  N5_30
ROOT
HETATM    1  C2  UNL     1      24.955  -2.368  18.309  1.00  0.00     0.177 A
HETATM    2  N2  UNL     1      25.195  -2.280  19.622  1.00  0.00    -0.280 N
ATOM      3  H2  UNL     1      25.316  -1.356  20.035  1.00  0.00     0.188 HD
HETATM    4  N3  UNL     1      25.282  -3.359  20.418  1.00  0.00    -0.277 N
ATOM      5  H3  UNL     1      25.469  -3.221  21.411  1.00  0.00     0.189 HD
HETATM    6  C3  UNL     1      25.134  -4.605  19.961  1.00  0.00     0.178 A
HETATM    7  N4  UNL     1      24.890  -4.730  18.647  1.00  0.00    -0.212 N
HETATM    8 CL2  UNL     1      24.691  -6.348  18.033  1.00  0.00     0.022 Cl
HETATM    9  C12 UNL     1      24.796  -3.694  17.818  1.00  0.00     0.165 A
ENDROOT
BRANCH   6  10
HETATM   10  S2  UNL     1      25.233  -6.049  20.993  1.00  0.00    -0.083 SA
BRANCH  10  11
HETATM   11  C4  UNL     1      23.876  -6.203  22.152  1.00  0.00     0.166 C
BRANCH  11  12
HETATM   12  C5  UNL     1      22.623  -6.669  21.575  1.00  0.00     0.171 C
HETATM   13  O4  UNL     1      22.552  -7.110  20.424  1.00  0.00    -0.291 OA
BRANCH  12  14
HETATM   14  C6  UNL     1      21.417  -6.601  22.409  1.00  0.00     0.035 A
HETATM   15  C7  UNL     1      21.259  -7.479  23.486  1.00  0.00     0.020 A
HETATM   16  C8  UNL     1      20.139  -7.453  24.290  1.00  0.00     0.046 A
HETATM   17  C9  UNL     1      19.134  -6.544  24.047  1.00  0.00     0.156 A
HETATM   18  F1  UNL     1      18.060  -6.563  24.872  1.00  0.00    -0.203 F
HETATM   19  C10 UNL     1      19.276  -5.665  22.983  1.00  0.00     0.177 A
HETATM   20  F2  UNL     1      18.287  -4.772  22.748  1.00  0.00    -0.201 F
HETATM   21  C11 UNL     1      20.399  -5.702  22.187  1.00  0.00     0.089 A
HETATM   22 CL1  UNL     1      20.618  -4.609  20.833  1.00  0.00    -0.080 Cl
ENDBRANCH  12  14
ENDBRANCH  11  12
ENDBRANCH  10  11
ENDBRANCH   6  10
BRANCH   9  23
HETATM   23  N5  UNL     1      24.548  -3.829  16.551  1.00  0.00    -0.381 N
ATOM     24  H52 UNL     1      23.691  -3.486  16.117  1.00  0.00     0.157 HD
ATOM     25  H51 UNL     1      25.259  -4.292  15.986  1.00  0.00     0.157 HD
ENDBRANCH   9  23
BRANCH   1  26
HETATM   26  N1  UNL     1      24.879  -1.421  17.470  1.00  0.00    -0.243 N
ATOM     27  H1  UNL     1      23.947  -1.192  17.126  1.00  0.00     0.182 HD
BRANCH  26  28
HETATM   28  S1  UNL     1      26.145  -0.503  16.864  1.00  0.00     0.362 S
HETATM   29  O2  UNL     1      26.389  -0.818  15.420  1.00  0.00    -0.175 OA
HETATM   30  O3  UNL     1      27.370  -0.770  17.727  1.00  0.00    -0.175 OA
BRANCH  28  31
HETATM   31  O1  UNL     1      25.794   1.165  16.909  1.00  0.00    -0.264 OA
HETATM   32  C1  UNL     1      24.991   1.367  18.017  1.00  0.00     0.227 C
ENDBRANCH  28  31
ENDBRANCH  26  28
ENDBRANCH   1  26
TORSDOF 8
ENDMDL