MODEL 2
REMARK VINA RESULT: -8.254093408      1.953      2.379
REMARK  7 active torsions:
REMARK  status: ('A' for Active; 'I' for Inactive)
REMARK    1  A    between atoms: C2_2  and  N1_4
REMARK    2  A    between atoms: N1_4  and  C5_6
REMARK    3  A    between atoms: C5_6  and  O1_7
REMARK    4  A    between atoms: C5_6  and  C6_9
REMARK    5  A    between atoms: N2_15  and  S2_16
REMARK    6  A    between atoms: S2_16  and  C9_19
REMARK    7  A    between atoms: C15_29  and  O6_30
ROOT
HETATM    1  C6  UNL     1      24.029  -0.916  19.718  1.00  0.00     0.097 A
HETATM    2  S1  UNL     1      22.350  -0.642  19.863  1.00  0.00    -0.038 SA
HETATM    3  C7  UNL     1      21.438  -1.957  19.268  1.00  0.00     0.282 A
HETATM    4  O2  UNL     1      20.178  -1.975  19.274  1.00  0.00    -0.274 OA
HETATM    5  C8  UNL     1      22.199  -2.995  18.783  1.00  0.00     0.321 A
HETATM    6  O3  UNL     1      21.498  -3.978  18.338  1.00  0.00    -0.262 OA
HETATM    7  N2  UNL     1      23.535  -3.047  18.744  1.00  0.00    -0.174 N
HETATM    8  C15 UNL     1      24.395  -2.122  19.160  1.00  0.00     0.178 A
ENDROOT
BRANCH   7   9
HETATM    9  S2  UNL     1      24.211  -4.507  18.058  1.00  0.00     0.277 S
HETATM   10  O4  UNL     1      25.291  -4.162  17.073  1.00  0.00    -0.199 OA
HETATM   11  O5  UNL     1      23.183  -5.292  17.314  1.00  0.00    -0.199 OA
BRANCH   9  12
HETATM   12  C9  UNL     1      24.876  -5.527  19.282  1.00  0.00     0.125 A
HETATM   13  C10 UNL     1      26.225  -5.719  19.334  1.00  0.00     0.074 A
HETATM   14  C11 UNL     1      26.851  -6.517  20.276  1.00  0.00     0.159 A
HETATM   15  F1  UNL     1      28.210  -6.664  20.270  1.00  0.00    -0.203 F
HETATM   16  C12 UNL     1      26.085  -7.154  21.211  1.00  0.00     0.196 A
HETATM   17  F2  UNL     1      26.674  -7.937  22.139  1.00  0.00    -0.199 F
HETATM   18  C13 UNL     1      24.712  -6.973  21.175  1.00  0.00     0.198 A
HETATM   19  F3  UNL     1      23.954  -7.606  22.104  1.00  0.00    -0.199 F
HETATM   20  C14 UNL     1      24.105  -6.174  20.230  1.00  0.00     0.181 A
HETATM   21  F4  UNL     1      22.771  -5.980  20.169  1.00  0.00    -0.201 F
ENDBRANCH   9  12
ENDBRANCH   7   9
BRANCH   8  22
HETATM   22  O6  UNL     1      25.772  -2.344  19.044  1.00  0.00    -0.344 OA
ATOM     23  H6  UNL     1      26.024  -3.188  18.689  1.00  0.00     0.219 HD
ENDBRANCH   8  22
BRANCH   1  24
HETATM   24  C5  UNL     1      25.038   0.075  20.153  1.00  0.00     0.402 C
BRANCH  24  25
HETATM   25  N1  UNL     1      25.153   1.056  19.106  1.00  0.00     0.121 N
HETATM   26  C4  UNL     1      24.736   2.367  19.507  1.00  0.00     0.314 C
BRANCH  25  27
HETATM   27  C2  UNL     1      26.431   1.061  18.451  1.00  0.00     0.218 C
HETATM   28  C1  UNL     1      26.889   2.525  18.409  1.00  0.00     0.042 C
HETATM   29  C3  UNL     1      26.389   0.577  17.045  1.00  0.00     0.042 C
ENDBRANCH  25  27
ENDBRANCH  24  25
BRANCH  24  30
HETATM   30  O1  UNL     1      24.789   0.588  21.395  1.00  0.00    -0.364 OA
ATOM     31  H1  UNL     1      24.290   1.396  21.401  1.00  0.00     0.212 HD
ENDBRANCH  24  30
ENDBRANCH   1  24
TORSDOF 7
ENDMDL