MODEL 2
REMARK VINA RESULT: -7.188071221      3.045      6.471
REMARK  9 active torsions:
REMARK  status: ('A' for Active; 'I' for Inactive)
REMARK    1  A    between atoms: C2_2  and  O1_3
REMARK    2  A    between atoms: O1_3  and  C3_4
REMARK    3  A    between atoms: C3_4  and  C4_6
REMARK    4  A    between atoms: C4_6  and  O3_7
REMARK    5  A    between atoms: O3_7  and  N1_8
REMARK    6  A    between atoms: N1_8  and  C5_10
REMARK    7  A    between atoms: C8_13  and  O4_14
REMARK    8  A    between atoms: C13_20  and  C14_22
REMARK    9  A    between atoms: C15_31  and  N4_32
ROOT
HETATM    1  C5  UNL     1      21.839  -1.963  20.536  1.00  0.00     0.078 C
HETATM    2  C6  UNL     1      23.237  -2.359  20.388  1.00  0.00     0.101 C
HETATM    3  C7  UNL     1      23.592  -3.480  19.488  1.00  0.00     0.182 C
HETATM    4  C8  UNL     1      24.688  -2.962  18.615  1.00  0.00     0.073 C
HETATM    5  C10 UNL     1      25.514  -3.945  18.371  1.00  0.00     0.030 C
HETATM    6  C11 UNL     1      25.094  -5.206  19.029  1.00  0.00     0.169 C
HETATM    7  C12 UNL     1      26.275  -5.842  19.625  1.00  0.00     0.071 C
HETATM    8  N2  UNL     1      27.200  -6.344  20.093  1.00  0.00    -0.196 NA
HETATM    9  C13 UNL     1      24.238  -4.630  20.134  1.00  0.00     0.248 C
HETATM   10  F1  UNL     1      25.179  -4.082  21.035  1.00  0.00    -0.229 F
HETATM   11  S1  UNL     1      22.320  -3.869  18.330  1.00  0.00     0.251 S
HETATM   12  O5  UNL     1      22.485  -5.120  17.589  1.00  0.00    -0.204 OA
HETATM   13  O6  UNL     1      22.272  -2.738  17.310  1.00  0.00    -0.204 OA
HETATM   14  N3  UNL     1      20.797  -3.756  19.172  1.00  0.00    -0.268 N
ATOM     15  H3  UNL     1      20.024  -4.390  18.965  1.00  0.00     0.180 HD
HETATM   16  C15 UNL     1      20.682  -2.742  20.156  1.00  0.00     0.133 C
ENDROOT
BRANCH   9  17
HETATM   17  C14 UNL     1      23.484  -5.623  20.891  1.00  0.00     0.427 C
HETATM   18  F2  UNL     1      22.376  -5.079  21.511  1.00  0.00    -0.167 F
HETATM   19  F3  UNL     1      23.183  -6.793  20.230  1.00  0.00    -0.167 F
HETATM   20  F4  UNL     1      24.311  -6.028  21.958  1.00  0.00    -0.167 F
ENDBRANCH   9  17
BRANCH   4  21
HETATM   21  O4  UNL     1      24.829  -1.657  18.130  1.00  0.00    -0.358 OA
HETATM   22  C9  UNL     1      26.048  -1.148  17.679  1.00  0.00     0.209 C
ENDBRANCH   4  21
BRANCH   1  23
HETATM   23  N1  UNL     1      21.628  -0.804  21.060  1.00  0.00    -0.267 N
ATOM     24  H1  UNL     1      22.127  -0.545  21.911  1.00  0.00     0.194 HD
BRANCH  23  25
HETATM   25  O3  UNL     1      20.773   0.065  20.517  1.00  0.00    -0.270 OA
BRANCH  25  26
HETATM   26  C4  UNL     1      21.079   1.279  19.886  1.00  0.00     0.312 C
BRANCH  26  27
HETATM   27  C3  UNL     1      21.999   2.140  20.637  1.00  0.00     0.285 C
HETATM   28  O2  UNL     1      21.798   2.451  21.827  1.00  0.00    -0.263 OA
BRANCH  27  29
HETATM   29  O1  UNL     1      23.128   2.633  20.019  1.00  0.00    -0.320 OA
BRANCH  29  30
HETATM   30  C2  UNL     1      24.146   1.795  19.499  1.00  0.00     0.174 C
HETATM   31  C1  UNL     1      24.806   0.963  20.566  1.00  0.00     0.034 C
ENDBRANCH  29  30
ENDBRANCH  27  29
ENDBRANCH  26  27
ENDBRANCH  25  26
ENDBRANCH  23  25
ENDBRANCH   1  23
BRANCH  16  32
HETATM   32  N4  UNL     1      19.562  -2.522  20.708  1.00  0.00    -0.383 N
ATOM     33  H42 UNL     1      18.943  -1.802  20.332  1.00  0.00     0.157 HD
ATOM     34  H41 UNL     1      19.280  -3.066  21.523  1.00  0.00     0.157 HD
ENDBRANCH  16  32
TORSDOF 9
ENDMDL