MODEL 5
REMARK VINA RESULT: -7.922998879      2.418      2.999
REMARK  8 active torsions:
REMARK  status: ('A' for Active; 'I' for Inactive)
REMARK    1  A    between atoms: S1_2  and  C2_5
REMARK    2  A    between atoms: C5_10  and  C6_11
REMARK    3  A    between atoms: C6_11  and  N1_12
REMARK    4  A    between atoms: N1_12  and  N2_14
REMARK    5  A    between atoms: N2_14  and  C7_16
REMARK    6  A    between atoms: C7_16  and  N3_18
REMARK       I    between atoms: N3_18  and  C8_20
REMARK    7  A    between atoms: C8_20  and  C9_22
REMARK    8  A    between atoms: C11_24  and  C12_25
ROOT
HETATM    1  C7  UNL     1      25.036  -5.932  21.446  1.00  0.00     0.193 C
HETATM    2  S3  UNL     1      26.058  -7.246  21.236  1.00  0.00    -0.039 SA
ENDROOT
BRANCH   1   3
HETATM    3  N2  UNL     1      25.518  -4.725  20.924  1.00  0.00    -0.276 N
ATOM      4  H2  UNL     1      26.184  -4.200  21.489  1.00  0.00     0.189 HD
BRANCH   3   5
HETATM    5  N1  UNL     1      25.162  -4.200  19.714  1.00  0.00    -0.309 N
ATOM      6  H1  UNL     1      25.983  -3.945  19.165  1.00  0.00     0.186 HD
BRANCH   5   7
HETATM    7  C6  UNL     1      24.115  -3.948  19.101  1.00  0.00     0.120 C
BRANCH   7   8
HETATM    8  C5  UNL     1      22.937  -3.158  19.562  1.00  0.00     0.011 A
HETATM    9  C2  UNL     1      23.068  -1.863  20.019  1.00  0.00     0.112 A
HETATM   10  S2  UNL     1      21.467  -1.403  20.380  1.00  0.00    -0.065 SA
HETATM   11  C3  UNL     1      20.666  -2.835  19.956  1.00  0.00     0.076 A
HETATM   12 CL1  UNL     1      18.929  -3.223  20.023  1.00  0.00    -0.076 Cl
HETATM   13  C4  UNL     1      21.677  -3.653  19.534  1.00  0.00     0.046 A
BRANCH   9  14
HETATM   14  S1  UNL     1      24.544  -0.889  20.187  1.00  0.00     0.179 S
HETATM   15  C1  UNL     1      24.147   0.747  20.670  1.00  0.00     0.167 C
HETATM   16  O1  UNL     1      25.298  -1.539  21.335  1.00  0.00    -0.222 OA
HETATM   17  O2  UNL     1      25.299  -0.950  18.930  1.00  0.00    -0.222 OA
ENDBRANCH   9  14
ENDBRANCH   7   8
ENDBRANCH   5   7
ENDBRANCH   3   5
ENDBRANCH   1   3
BRANCH   1  18
HETATM   18  N3  UNL     1      23.847  -6.165  22.100  1.00  0.00    -0.297 N
HETATM   19  C8  UNL     1      22.655  -6.666  21.570  1.00  0.00     0.275 C
HETATM   20  O3  UNL     1      22.590  -6.963  20.344  1.00  0.00    -0.266 OA
ATOM     21  H3  UNL     1      23.835  -5.944  23.096  1.00  0.00     0.171 HD
BRANCH  19  22
HETATM   22  C9  UNL     1      21.427  -6.874  22.383  1.00  0.00     0.119 A
HETATM   23  C10 UNL     1      20.265  -6.288  22.013  1.00  0.00     0.069 A
HETATM   24  C11 UNL     1      19.123  -6.502  22.796  1.00  0.00     0.093 A
HETATM   25  N4  UNL     1      19.244  -7.281  23.877  1.00  0.00    -0.285 N
HETATM   26  N5  UNL     1      20.397  -7.832  24.200  1.00  0.00    -0.242 N
ATOM     27  H4  UNL     1      18.427  -7.452  24.464  1.00  0.00     0.188 HD
HETATM   28  N6  UNL     1      21.476  -7.640  23.473  1.00  0.00    -0.281 N
ATOM     29  H5  UNL     1      20.454  -8.421  25.031  1.00  0.00     0.208 HD
ATOM     30  H6  UNL     1      22.356  -8.079  23.745  1.00  0.00     0.188 HD
BRANCH  24  31
HETATM   31  C12 UNL     1      17.819  -5.864  22.407  1.00  0.00     0.404 C
HETATM   32  F1  UNL     1      17.441  -6.372  21.164  1.00  0.00    -0.207 F
HETATM   33  F2  UNL     1      16.843  -6.211  23.333  1.00  0.00    -0.207 F
ENDBRANCH  24  31
ENDBRANCH  19  22
ENDBRANCH   1  18
TORSDOF 8
ENDMDL