MODEL 2
REMARK VINA RESULT: -8.067932035      3.483      4.534
REMARK  9 active torsions:
REMARK  status: ('A' for Active; 'I' for Inactive)
REMARK    1  A    between atoms: O1_2  and  C2_3
REMARK    2  A    between atoms: C2_3  and  O3_5
REMARK    3  A    between atoms: O3_5  and  C3_6
REMARK    4  A    between atoms: C4_7  and  C5_8
REMARK    5  A    between atoms: C5_8  and  O4_9
REMARK    6  A    between atoms: C5_8  and  C6_11
REMARK    7  A    between atoms: C6_11  and  O5_12
REMARK    8  A    between atoms: O5_12  and  C7_13
REMARK    9  A    between atoms: C15_27  and  O8_28
ROOT
HETATM    1  C3  UNL     1      19.449  -0.086  19.110  1.00  0.00     0.201 C
HETATM    2  C4  UNL     1      20.003  -0.986  20.192  1.00  0.00     0.223 C
HETATM    3  O6  UNL     1      20.688  -0.153  21.093  1.00  0.00    -0.229 OA
HETATM    4  O7  UNL     1      19.873   0.852  21.389  1.00  0.00    -0.224 OA
HETATM    5  C13 UNL     1      20.095   1.840  20.456  1.00  0.00     0.149 C
HETATM    6  C14 UNL     1      19.039   2.910  20.449  1.00  0.00     0.055 C
HETATM    7  C15 UNL     1      21.432   2.523  20.649  1.00  0.00     0.186 C
HETATM    8  C16 UNL     1      22.321   1.922  19.592  1.00  0.00     0.150 C
HETATM    9  C17 UNL     1      22.595   3.013  18.567  1.00  0.00     0.042 C
HETATM   10  O9  UNL     1      21.617   0.862  19.026  1.00  0.00    -0.372 OA
HETATM   11  C18 UNL     1      20.276   1.181  19.110  1.00  0.00     0.194 C
ENDROOT
BRANCH   2  12
HETATM   12  C5  UNL     1      20.925  -2.041  19.625  1.00  0.00     0.177 C
BRANCH  12  13
HETATM   13  O4  UNL     1      21.063  -1.785  18.262  1.00  0.00    -0.391 OA
ATOM     14  H4  UNL     1      21.659  -2.436  17.909  1.00  0.00     0.210 HD
ENDBRANCH  12  13
BRANCH  12  15
HETATM   15  C6  UNL     1      20.407  -3.437  19.888  1.00  0.00     0.210 C
BRANCH  15  16
HETATM   16  O5  UNL     1      20.549  -3.692  21.263  1.00  0.00    -0.343 OA
BRANCH  16  17
HETATM   17  C7  UNL     1      19.985  -4.765  21.920  1.00  0.00     0.152 A
HETATM   18  C8  UNL     1      18.642  -4.949  22.111  1.00  0.00     0.191 A
HETATM   19  F1  UNL     1      17.794  -4.023  21.627  1.00  0.00    -0.200 F
HETATM   20  C9  UNL     1      18.136  -6.043  22.777  1.00  0.00     0.160 A
HETATM   21  F2  UNL     1      16.788  -6.193  22.948  1.00  0.00    -0.203 F
HETATM   22  C10 UNL     1      19.010  -7.005  23.280  1.00  0.00     0.091 A
HETATM   23  C11 UNL     1      20.365  -6.830  23.093  1.00  0.00     0.160 A
HETATM   24  F3  UNL     1      21.200  -7.779  23.591  1.00  0.00    -0.203 F
HETATM   25  C12 UNL     1      20.849  -5.725  22.422  1.00  0.00     0.191 A
HETATM   26  F4  UNL     1      22.205  -5.613  22.273  1.00  0.00    -0.200 F
ENDBRANCH  16  17
ENDBRANCH  15  16
ENDBRANCH  12  15
ENDBRANCH   2  12
BRANCH   1  27
HETATM   27  O3  UNL     1      18.098   0.191  19.467  1.00  0.00    -0.287 OA
BRANCH  27  28
HETATM   28  C2  UNL     1      17.208  -0.863  19.557  1.00  0.00     0.406 C
HETATM   29  O2  UNL     1      16.968  -1.534  18.531  1.00  0.00    -0.229 OA
BRANCH  28  30
HETATM   30  O1  UNL     1      16.566  -1.203  20.759  1.00  0.00    -0.303 OA
HETATM   31  C1  UNL     1      16.458  -0.233  21.813  1.00  0.00     0.215 C
ENDBRANCH  28  30
ENDBRANCH  27  28
ENDBRANCH   1  27
BRANCH   7  32
HETATM   32  O8  UNL     1      21.907   2.253  21.942  1.00  0.00    -0.390 OA
ATOM     33  H8  UNL     1      22.088   3.072  22.386  1.00  0.00     0.210 HD
ENDBRANCH   7  32
TORSDOF 9
ENDMDL