MODEL 4
REMARK VINA RESULT: -7.386295725      4.747      6.888
REMARK  8 active torsions:
REMARK  status: ('A' for Active; 'I' for Inactive)
REMARK    1  A    between atoms: O1_2  and  C2_3
REMARK    2  A    between atoms: C2_3  and  C3_5
REMARK    3  A    between atoms: C5_8  and  C6_9
REMARK    4  A    between atoms: C12_20  and  O6_21
REMARK    5  A    between atoms: C12_20  and  C14_26
REMARK    6  A    between atoms: O6_21  and  N1_22
REMARK    7  A    between atoms: N1_22  and  C13_24
REMARK    8  A    between atoms: C16_29  and  O9_31
ROOT
HETATM    1  C3  UNL     1      19.523  -0.050  20.768  1.00  0.00     0.251 C
HETATM    2  O3  UNL     1      20.400  -0.325  21.859  1.00  0.00    -0.358 OA
HETATM    3  C4  UNL     1      21.429  -1.072  21.365  1.00  0.00     0.219 C
HETATM    4  C5  UNL     1      20.973  -1.612  19.993  1.00  0.00     0.179 C
HETATM    5  O4  UNL     1      21.393  -0.799  18.986  1.00  0.00    -0.215 OA
HETATM    6  O5  UNL     1      21.066   0.412  18.987  1.00  0.00    -0.185 OA
HETATM    7  C12 UNL     1      20.149   0.912  19.896  1.00  0.00     0.324 C
HETATM    8  C16 UNL     1      19.519  -1.505  20.162  1.00  0.00     0.141 C
HETATM    9  C17 UNL     1      18.679  -1.579  18.930  1.00  0.00     0.054 C
ENDROOT
BRANCH   4  10
HETATM   10  C6  UNL     1      21.564  -2.928  19.868  1.00  0.00    -0.011 A
HETATM   11  C7  UNL     1      21.454  -3.791  20.966  1.00  0.00     0.056 A
HETATM   12  C8  UNL     1      21.943  -5.088  20.942  1.00  0.00     0.157 A
HETATM   13  F1  UNL     1      21.791  -5.845  22.051  1.00  0.00    -0.203 F
HETATM   14  C9  UNL     1      22.547  -5.541  19.805  1.00  0.00     0.176 A
HETATM   15  F2  UNL     1      23.018  -6.812  19.785  1.00  0.00    -0.201 F
HETATM   16  C10 UNL     1      22.671  -4.717  18.710  1.00  0.00     0.076 A
HETATM   17 CL1  UNL     1      23.428  -5.227  17.237  1.00  0.00    -0.081 Cl
HETATM   18  C11 UNL     1      22.180  -3.413  18.750  1.00  0.00     0.037 A
ENDBRANCH   4  10
BRANCH   8  19
HETATM   19  O9  UNL     1      18.981  -2.216  21.247  1.00  0.00    -0.383 OA
ATOM     20  H9  UNL     1      18.161  -1.749  21.358  1.00  0.00     0.210 HD
ENDBRANCH   8  19
BRANCH   1  21
HETATM   21  C2  UNL     1      18.177   0.171  21.309  1.00  0.00     0.303 C
HETATM   22  O2  UNL     1      17.978   0.579  22.466  1.00  0.00    -0.261 OA
BRANCH  21  23
HETATM   23  O1  UNL     1      17.067  -0.073  20.505  1.00  0.00    -0.324 OA
HETATM   24  C1  UNL     1      16.060   0.836  20.174  1.00  0.00     0.213 C
ENDBRANCH  21  23
ENDBRANCH   1  21
BRANCH   7  25
HETATM   25  O6  UNL     1      19.258   1.685  19.114  1.00  0.00    -0.223 OA
BRANCH  25  26
HETATM   26  N1  UNL     1      19.598   1.417  17.830  1.00  0.00    -0.238 N
ATOM     27  H1  UNL     1      20.551   1.085  17.677  1.00  0.00     0.197 HD
BRANCH  26  28
HETATM   28  C13 UNL     1      18.801   1.543  16.692  1.00  0.00     0.374 C
HETATM   29  O7  UNL     1      17.783   0.835  16.473  1.00  0.00    -0.282 OA
ENDBRANCH  26  28
ENDBRANCH  25  26
ENDBRANCH   7  25
BRANCH   7  30
HETATM   30  C14 UNL     1      20.902   1.949  20.706  1.00  0.00     0.193 C
HETATM   31  C15 UNL     1      22.373   2.061  20.625  1.00  0.00     0.097 C
HETATM   32  O8  UNL     1      20.315   2.731  21.459  1.00  0.00    -0.292 OA
ENDBRANCH   7  30
TORSDOF 8
ENDMDL