MODEL 3
REMARK VINA RESULT: -8.160094761      2.110      2.624
REMARK  7 active torsions:
REMARK  status: ('A' for Active; 'I' for Inactive)
REMARK    1  A    between atoms: O1_2  and  C2_3
REMARK    2  A    between atoms: C2_3  and  C3_5
REMARK    3  A    between atoms: C4_6  and  C5_7
REMARK    4  A    between atoms: C5_7  and  C6_9
REMARK    5  A    between atoms: C6_9  and  O4_10
REMARK    6  A    between atoms: C8_15  and  C10_18
REMARK       I    between atoms: C10_18  and  N3_20
REMARK    7  A    between atoms: N3_20  and  C11_22
ROOT
HETATM    1  C3  UNL     1      25.457   0.350  17.907  1.00  0.00     0.190 A
HETATM    2  C4  UNL     1      25.535   1.161  19.115  1.00  0.00     0.077 A
HETATM    3  N1  UNL     1      25.221   0.170  19.843  1.00  0.00    -0.356 N
ATOM      4  H1  UNL     1      25.102   0.088  20.853  1.00  0.00     0.166 HD
HETATM    5  C7  UNL     1      25.090  -0.764  18.831  1.00  0.00     0.056 A
HETATM    6  C8  UNL     1      24.774  -2.023  18.668  1.00  0.00     0.136 C
HETATM    7  C9  UNL     1      24.743  -2.549  17.311  1.00  0.00     0.107 C
HETATM    8  N2  UNL     1      24.698  -2.995  16.224  1.00  0.00    -0.191 NA
ENDROOT
BRANCH   6   9
HETATM    9  C10 UNL     1      24.452  -2.933  19.736  1.00  0.00     0.268 C
HETATM   10  O5  UNL     1      24.846  -2.544  20.890  1.00  0.00    -0.266 OA
HETATM   11  N3  UNL     1      23.777  -4.133  19.567  1.00  0.00    -0.321 N
ATOM     12  H3  UNL     1      23.489  -4.371  18.617  1.00  0.00     0.169 HD
BRANCH  11  13
HETATM   13  C11 UNL     1      23.441  -5.087  20.618  1.00  0.00     0.056 A
HETATM   14  C12 UNL     1      24.397  -5.972  21.027  1.00  0.00     0.081 A
HETATM   15  S1  UNL     1      23.592  -6.933  22.188  1.00  0.00    -0.097 SA
HETATM   16  C13 UNL     1      22.065  -6.189  22.128  1.00  0.00     0.045 A
HETATM   17  C14 UNL     1      20.867  -6.438  22.821  1.00  0.00     0.093 A
HETATM   18  C18 UNL     1      22.207  -5.204  21.202  1.00  0.00     0.052 A
HETATM   19 CL1  UNL     1      20.895  -7.752  23.966  1.00  0.00    -0.079 Cl
HETATM   20  C15 UNL     1      19.752  -5.672  22.593  1.00  0.00     0.181 A
HETATM   21  F1  UNL     1      18.597  -5.906  23.257  1.00  0.00    -0.201 F
HETATM   22  C16 UNL     1      19.905  -4.677  21.657  1.00  0.00     0.196 A
HETATM   23  F2  UNL     1      18.802  -3.904  21.417  1.00  0.00    -0.199 F
HETATM   24  C17 UNL     1      21.060  -4.416  20.967  1.00  0.00     0.172 A
HETATM   25  F3  UNL     1      21.020  -3.384  20.095  1.00  0.00    -0.202 F
ENDBRANCH  11  13
ENDBRANCH   6   9
BRANCH   1  26
HETATM   26  C2  UNL     1      26.784   0.180  17.273  1.00  0.00     0.274 C
HETATM   27  O2  UNL     1      26.819  -0.030  16.017  1.00  0.00    -0.264 OA
BRANCH  26  28
HETATM   28  O1  UNL     1      28.001   0.227  17.904  1.00  0.00    -0.326 OA
HETATM   29  C1  UNL     1      29.112   0.953  17.398  1.00  0.00     0.213 C
ENDBRANCH  26  28
ENDBRANCH   1  26
BRANCH   2  30
HETATM   30  C5  UNL     1      25.856   2.586  19.384  1.00  0.00     0.196 C
HETATM   31  O3  UNL     1      25.045   3.429  18.976  1.00  0.00    -0.289 OA
BRANCH  30  32
HETATM   32  C6  UNL     1      27.109   2.894  20.114  1.00  0.00     0.249 C
BRANCH  32  33
HETATM   33  O4  UNL     1      27.674   1.748  20.629  1.00  0.00    -0.393 OA
ATOM     34  H4  UNL     1      28.327   1.957  21.287  1.00  0.00     0.209 HD
ENDBRANCH  32  33
ENDBRANCH  30  32
ENDBRANCH   2  30
TORSDOF 7
ENDMDL