MODEL 5
REMARK VINA RESULT: -5.719633102      2.776      5.988
REMARK  2 active torsions:
REMARK  status: ('A' for Active; 'I' for Inactive)
REMARK    1  A    between atoms: N1_5  and  N2_6
REMARK    2  A    between atoms: C7_12  and  O1_13
ROOT
HETATM    1  N2  UNL     1       5.034   7.045   8.187  1.00  0.00    -0.171 N
HETATM    2  N3  UNL     1       4.634   6.112   7.302  1.00  0.00    -0.264 N
ATOM      3  H3  UNL     1       4.926   5.893   6.350  1.00  0.00     0.190 HD
HETATM    4  C5  UNL     1       3.715   5.574   8.120  1.00  0.00     0.184 A
HETATM    5  C6  UNL     1       2.780   4.505   7.985  1.00  0.00     0.123 C
HETATM    6  N4  UNL     1       1.997   3.641   7.865  1.00  0.00    -0.190 NA
HETATM    7  C7  UNL     1       4.131   6.532   9.022  1.00  0.00     0.218 A
ENDROOT
BRANCH   7   8
HETATM    8  O1  UNL     1       3.730   6.820  10.318  1.00  0.00    -0.341 OA
ATOM      9  H1  UNL     1       3.995   6.520  11.179  1.00  0.00     0.219 HD
ENDBRANCH   7   8
BRANCH   1  10
HETATM   10  N1  UNL     1       5.992   8.069   8.107  1.00  0.00    -0.305 N
HETATM   11  C4  UNL     1       5.993   9.114   9.070  1.00  0.00     0.145 C
HETATM   12  C3  UNL     1       7.228   9.970   9.099  1.00  0.00     0.026 C
HETATM   13  C2  UNL     1       8.218   9.699   8.022  1.00  0.00    -0.015 C
HETATM   14  C1  UNL     1       9.107  10.861   7.662  1.00  0.00     0.010 C
HETATM   15  C9  UNL     1       7.565   9.250   6.722  1.00  0.00     0.026 C
HETATM   16  C8  UNL     1       6.931   7.934   7.000  1.00  0.00     0.145 C
ENDBRANCH   1  10
TORSDOF 2
ENDMDL