MODEL 3
REMARK VINA RESULT: -4.982631002      1.952      2.575
REMARK  2 active torsions:
REMARK  status: ('A' for Active; 'I' for Inactive)
REMARK    1  A    between atoms: O1_2  and  N1_3
REMARK    2  A    between atoms: C10_13  and  O2_14
ROOT
HETATM    1  N1  UNL     1       9.299   8.142   5.822  1.00  0.00    -0.275 N
ATOM      2  H1  UNL     1       9.764   9.006   5.540  1.00  0.00     0.193 HD
HETATM    3  C2  UNL     1       8.304   8.235   6.634  1.00  0.00     0.016 C
HETATM    4  C3  UNL     1       7.868   9.539   7.123  1.00  0.00     0.056 C
HETATM    5  C4  UNL     1       7.144   9.493   8.441  1.00  0.00     0.017 C
HETATM    6  C5  UNL     1       6.491   8.191   8.736  1.00  0.00    -0.017 C
HETATM    7  C6  UNL     1       5.197   8.320   9.500  1.00  0.00     0.018 C
HETATM    8  C7  UNL     1       7.476   7.287   9.469  1.00  0.00     0.012 C
HETATM    9  C8  UNL     1       8.245   6.580   8.385  1.00  0.00     0.014 C
HETATM   10  C9  UNL     1       7.611   7.010   7.062  1.00  0.00     0.063 C
HETATM   11  C10 UNL     1       6.203   7.360   7.502  1.00  0.00     0.136 C
ENDROOT
BRANCH   1  12
HETATM   12  O1  UNL     1       9.775   6.979   5.316  1.00  0.00    -0.285 OA
HETATM   13  C1  UNL     1      11.162   6.691   5.542  1.00  0.00     0.237 C
ENDBRANCH   1  12
BRANCH  11  14
HETATM   14  O2  UNL     1       5.494   8.043   6.546  1.00  0.00    -0.394 OA
ATOM     15  H2  UNL     1       4.557   8.043   6.705  1.00  0.00     0.210 HD
ENDBRANCH  11  14
TORSDOF 2
ENDMDL