MODEL 3
REMARK VINA RESULT: -4.437241204      2.168      3.602
REMARK  2 active torsions:
REMARK  status: ('A' for Active; 'I' for Inactive)
REMARK    1  A    between atoms: C2_2  and  C3_3
REMARK    2  A    between atoms: C6_8  and  O1_9
ROOT
HETATM    1  C3  UNL     1       4.680   7.209   8.609  1.00  0.00     0.029 C
HETATM    2  C4  UNL     1       4.900   6.775  10.065  1.00  0.00     0.048 C
HETATM    3  C5  UNL     1       6.113   7.683  10.343  1.00  0.00     0.138 C
HETATM    4  N1  UNL     1       7.209   7.090   9.562  1.00  0.00    -0.169 NA
HETATM    5  S1  UNL     1       6.376   6.887   7.988  1.00  0.00    -0.055 SA
HETATM    6  C6  UNL     1       5.702   8.999   9.712  1.00  0.00     0.165 C
HETATM    7  C7  UNL     1       6.807   9.494   8.894  1.00  0.00     0.099 C
HETATM    8  N2  UNL     1       7.690   9.885   8.259  1.00  0.00    -0.194 NA
HETATM    9  C8  UNL     1       4.540   8.673   8.762  1.00  0.00     0.077 C
ENDROOT
BRANCH   6  10
HETATM   10  O1  UNL     1       5.305   9.917  10.679  1.00  0.00    -0.374 OA
ATOM     11  H1  UNL     1       6.020  10.494  10.919  1.00  0.00     0.212 HD
ENDBRANCH   6  10
BRANCH   1  12
HETATM   12  C2  UNL     1       3.641   6.477   7.906  1.00  0.00     0.017 C
HETATM   13  C1  UNL     1       3.068   5.426   8.835  1.00  0.00     0.006 C
ENDBRANCH   1  12
TORSDOF 2
ENDMDL