MODEL 3
REMARK VINA RESULT: -5.116315849      1.120      1.294
REMARK  3 active torsions:
REMARK  status: ('A' for Active; 'I' for Inactive)
REMARK    1  A    between atoms: N1_4  and  O1_6
REMARK    2  A    between atoms: C7_12  and  C8_13
REMARK    3  A    between atoms: C8_13  and  O2_16
ROOT
HETATM    1  C1  UNL     1      10.613   9.582   6.601  1.00  0.00     0.017 C
HETATM    2  C2  UNL     1      10.228   8.444   5.719  1.00  0.00     0.040 C
HETATM    3  C3  UNL     1      10.875   8.437   4.366  1.00  0.00     0.037 C
HETATM    4  N1  UNL     1      10.565   9.001   3.256  1.00  0.00    -0.275 N
ATOM      5  H1  UNL     1       9.734   9.588   3.184  1.00  0.00     0.193 HD
HETATM    6  C4  UNL     1      11.908   7.553   4.945  1.00  0.00     0.093 C
HETATM    7  C5  UNL     1      12.494   6.557   4.007  1.00  0.00     0.038 C
HETATM    8  C6  UNL     1      12.989   8.396   5.511  1.00  0.00     0.075 C
HETATM    9  N2  UNL     1      13.847   9.043   5.943  1.00  0.00    -0.196 NA
HETATM   10  C7  UNL     1      10.963   7.133   5.979  1.00  0.00     0.056 C
ENDROOT
BRANCH  10  11
HETATM   11  C8  UNL     1      10.122   5.917   5.775  1.00  0.00     0.057 C
HETATM   12  C9  UNL     1      10.961   4.661   5.907  1.00  0.00     0.045 C
HETATM   13  C10 UNL     1       9.047   5.811   6.862  1.00  0.00     0.045 C
BRANCH  11  14
HETATM   14  O2  UNL     1       9.477   5.852   4.568  1.00  0.00    -0.390 OA
ATOM     15  H2  UNL     1       8.879   6.568   4.390  1.00  0.00     0.210 HD
ENDBRANCH  11  14
ENDBRANCH  10  11
BRANCH   4  16
HETATM   16  O1  UNL     1      11.375   8.801   2.167  1.00  0.00    -0.290 OA
ATOM     17  H1  UNL     1      11.105   8.174   1.506  1.00  0.00     0.244 HD
ENDBRANCH   4  16
TORSDOF 3
ENDMDL