MODEL 5
REMARK VINA RESULT: -5.016753289      2.377      3.979
REMARK  1 active torsions:
REMARK  status: ('A' for Active; 'I' for Inactive)
REMARK    1  A    between atoms: C2_2  and  C3_3
ROOT
HETATM    1  C3  UNL     1       6.792   7.624   8.035  1.00  0.00     0.099 C
HETATM    2  C4  UNL     1       6.211   7.294   9.367  1.00  0.00     0.042 C
HETATM    3  C5  UNL     1       6.521   8.367  10.380  1.00  0.00     0.030 C
HETATM    4  C6  UNL     1       6.416   9.752   9.848  1.00  0.00     0.233 C
HETATM    5  N1  UNL     1       7.046   9.934   8.553  1.00  0.00    -0.066 N
ATOM      6  H11 UNL     1       7.615  10.779   8.507  1.00  0.00     0.277 HD
ATOM      7  H12 UNL     1       6.379  10.178   7.821  1.00  0.00     0.277 HD
HETATM    8  C7  UNL     1       7.783   8.762   8.253  1.00  0.00     0.246 C
HETATM    9  C8  UNL     1       8.522   8.766   6.965  1.00  0.00     0.200 C
HETATM   10  C9  UNL     1       9.879   9.254   7.107  1.00  0.00     0.074 C
HETATM   11  N2  UNL     1      10.957   9.647   7.202  1.00  0.00    -0.196 NA
HETATM   12  C10 UNL     1       8.484   7.315   6.601  1.00  0.00     0.132 C
HETATM   13  N3  UNL     1       9.151   6.784   5.633  1.00  0.00    -0.382 N
ATOM     14  H31 UNL     1       9.125   5.795   5.385  1.00  0.00     0.158 HD
ATOM     15  H32 UNL     1       9.782   7.268   4.994  1.00  0.00     0.158 HD
HETATM   16  O1  UNL     1       7.611   6.644   7.484  1.00  0.00    -0.325 OA
ENDROOT
BRANCH   1  17
HETATM   17  C2  UNL     1       5.712   8.008   7.056  1.00  0.00     0.036 C
HETATM   18  C1  UNL     1       4.399   7.463   7.576  1.00  0.00     0.008 C
ENDBRANCH   1  17
TORSDOF 1
ENDMDL