MODEL 1
REMARK VINA RESULT: -6.701753516      0.000      0.000
REMARK  1 active torsions:
REMARK  status: ('A' for Active; 'I' for Inactive)
REMARK       I    between atoms: C2_5  and  N3_6
REMARK       I    between atoms: C2_5  and  N5_10
REMARK    1  A    between atoms: N5_10  and  C4_12
ROOT
HETATM    1  N1  UNL     1       6.660   9.923  11.662  1.00  0.00    -0.171 NA
HETATM    2  C1  UNL     1       5.869   9.575  10.871  1.00  0.00     0.196 C
HETATM    3  N2  UNL     1       4.911   9.177   9.931  1.00  0.00    -0.125 N
ATOM      4  H2  UNL     1       4.013   9.658   9.893  1.00  0.00     0.197 HD
HETATM    5  C2  UNL     1       5.145   8.221   9.122  1.00  0.00     0.696 C
HETATM    6  N3  UNL     1       4.132   7.866   8.193  1.00  0.00    -0.125 N
ATOM      7  H3  UNL     1       3.688   8.581   7.617  1.00  0.00     0.197 HD
HETATM    8  C3  UNL     1       3.747   6.525   8.073  1.00  0.00     0.196 C
HETATM    9  N4  UNL     1       3.416   5.403   7.956  1.00  0.00    -0.171 NA
HETATM   10  N5  UNL     1       6.355   7.474   9.077  1.00  0.00    -0.220 N
ATOM     11  H5  UNL     1       6.718   7.050   9.930  1.00  0.00     0.178 HD
ENDROOT
BRANCH  10  12
HETATM   12  C4  UNL     1       7.075   7.308   7.833  1.00  0.00     0.099 C
HETATM   13  C5  UNL     1       7.224   8.649   7.156  1.00  0.00     0.026 C
HETATM   14  C6  UNL     1       8.549   8.862   6.523  1.00  0.00     0.002 C
HETATM   15  C7  UNL     1       9.173   7.649   5.930  1.00  0.00     0.000 C
HETATM   16  C8  UNL     1       9.131   6.435   6.791  1.00  0.00     0.002 C
HETATM   17  C9  UNL     1       8.374   6.627   8.082  1.00  0.00     0.026 C
ENDBRANCH  10  12
TORSDOF 1
ENDMDL