MODEL 1
REMARK VINA RESULT: -5.332579725      0.000      0.000
REMARK  2 active torsions:
REMARK  status: ('A' for Active; 'I' for Inactive)
REMARK    1  A    between atoms: C7_7  and  C9_9
REMARK    2  A    between atoms: C9_9  and  O1_10
ROOT
HETATM    1  C1  UNL     1      10.451   5.372   7.315  1.00  0.00     0.045 C
HETATM    2  C2  UNL     1       9.452   5.822   6.294  1.00  0.00     0.057 C
HETATM    3  C3  UNL     1       9.611   5.132   4.963  1.00  0.00     0.045 C
HETATM    4  C4  UNL     1       9.491   7.325   6.061  1.00  0.00     0.047 C
HETATM    5  C5  UNL     1       8.871   7.833   7.342  1.00  0.00     0.047 C
HETATM    6  C6  UNL     1       7.722   8.752   7.132  1.00  0.00     0.049 C
HETATM    7  C7  UNL     1       6.584   8.115   7.875  1.00  0.00     0.082 C
HETATM    8  C8  UNL     1       5.444   7.925   6.916  1.00  0.00     0.048 C
HETATM    9  O2  UNL     1       6.990   6.917   8.372  1.00  0.00    -0.348 OA
HETATM   10  C10 UNL     1       8.220   6.590   7.892  1.00  0.00     0.266 C
HETATM   11  O3  UNL     1       8.168   5.670   6.823  1.00  0.00    -0.351 OA
ENDROOT
BRANCH   7  12
HETATM   12  C9  UNL     1       6.116   9.023   9.019  1.00  0.00     0.201 C
BRANCH  12  13
HETATM   13  O1  UNL     1       4.789   8.717   9.259  1.00  0.00    -0.398 OA
ATOM     14  H1  UNL     1       4.757   7.804   9.517  1.00  0.00     0.209 HD
ENDBRANCH  12  13
ENDBRANCH   7  12
TORSDOF 2
ENDMDL