MODEL 5
REMARK VINA RESULT: -4.495631704      6.757      8.370
REMARK  3 active torsions:
REMARK  status: ('A' for Active; 'I' for Inactive)
REMARK    1  A    between atoms: O1_2  and  C2_3
REMARK    2  A    between atoms: C2_3  and  C3_8
REMARK    3  A    between atoms: N1_4  and  O2_6
ROOT
HETATM    1  C3  UNL     1      11.835   6.287   4.514  1.00  0.00     0.149 C
HETATM    2  C4  UNL     1      12.494   5.085   5.138  1.00  0.00     0.058 C
HETATM    3  O3  UNL     1      11.704   6.209   3.156  1.00  0.00    -0.284 OA
HETATM    4  N2  UNL     1      12.707   6.821   2.559  1.00  0.00    -0.199 NA
HETATM    5  C5  UNL     1      12.294   7.565   1.359  1.00  0.00     0.143 C
HETATM    6  C6  UNL     1      13.315   7.753   3.446  1.00  0.00     0.128 C
HETATM    7  C7  UNL     1      12.622   7.544   4.789  1.00  0.00     0.041 C
HETATM    8  C8  UNL     1      13.687   7.353   5.822  1.00  0.00     0.015 C
ENDROOT
BRANCH   1   9
HETATM    9  C2  UNL     1      10.467   6.480   5.089  1.00  0.00     0.175 C
HETATM   10  N1  UNL     1       9.456   5.799   4.721  1.00  0.00    -0.248 N
ATOM     11  H1  UNL     1       8.571   6.013   5.179  1.00  0.00     0.196 HD
BRANCH   9  12
HETATM   12  O1  UNL     1      10.253   7.448   6.079  1.00  0.00    -0.340 OA
HETATM   13  C1  UNL     1       9.293   7.168   7.092  1.00  0.00     0.211 C
ENDBRANCH   9  12
BRANCH  10  14
HETATM   14  O2  UNL     1       9.434   4.821   3.785  1.00  0.00    -0.288 OA
ATOM     15  H2  UNL     1       9.959   4.779   2.995  1.00  0.00     0.244 HD
ENDBRANCH  10  14
ENDBRANCH   1   9
TORSDOF 3
ENDMDL