MODEL 3
REMARK VINA RESULT: -4.814920302      1.495      3.558
REMARK  2 active torsions:
REMARK  status: ('A' for Active; 'I' for Inactive)
REMARK    1  A    between atoms: C5_7  and  N3_8
REMARK    2  A    between atoms: C8_14  and  C9_15
ROOT
HETATM    1  N1  UNL     1       4.190   6.672  10.305  1.00  0.00    -0.195 NA
HETATM    2  C1  UNL     1       4.930   7.157   9.535  1.00  0.00     0.085 C
HETATM    3  C2  UNL     1       5.840   7.756   8.555  1.00  0.00     0.143 C
HETATM    4  C3  UNL     1       5.021   7.947   7.331  1.00  0.00     0.085 C
HETATM    5  N2  UNL     1       4.388   8.113   6.376  1.00  0.00    -0.195 NA
HETATM    6  C4  UNL     1       6.921   6.802   8.180  1.00  0.00     0.073 C
HETATM    7  C5  UNL     1       7.794   7.441   7.114  1.00  0.00     0.186 C
HETATM    8  C6  UNL     1       8.464   8.640   7.789  1.00  0.00     0.033 C
HETATM    9  C7  UNL     1       7.421   9.627   8.159  1.00  0.00     0.010 C
HETATM   10  C8  UNL     1       6.300   9.106   8.981  1.00  0.00     0.033 C
ENDROOT
BRANCH  10  11
HETATM   11  C9  UNL     1       6.560   9.240  10.457  1.00  0.00     0.093 C
HETATM   12  S1  UNL     1       6.995  10.874  10.994  1.00  0.00    -0.097 SA
ENDBRANCH  10  11
BRANCH   7  13
HETATM   13  N3  UNL     1       8.861   6.522   6.769  1.00  0.00    -0.075 N
ATOM     14  H33 UNL     1       9.625   6.982   6.272  1.00  0.00     0.274 HD
ATOM     15  H32 UNL     1       9.389   6.213   7.585  1.00  0.00     0.274 HD
ATOM     16  H31 UNL     1       8.467   5.743   6.242  1.00  0.00     0.274 HD
ENDBRANCH   7  13
TORSDOF 2
ENDMDL