MODEL 4
REMARK VINA RESULT: -4.005768364      2.007      2.522
REMARK  3 active torsions:
REMARK  status: ('A' for Active; 'I' for Inactive)
REMARK    1  A    between atoms: S1_2  and  C2_3
REMARK    2  A    between atoms: C6_8  and  O1_9
REMARK    3  A    between atoms: C7_11  and  O2_12
ROOT
HETATM    1  C2  UNL     1       4.222   6.774   8.230  1.00  0.00     0.140 C
HETATM    2  S2  UNL     1       5.616   6.020   7.323  1.00  0.00    -0.139 SA
HETATM    3  C3  UNL     1       6.779   7.348   7.802  1.00  0.00     0.030 C
HETATM    4  C4  UNL     1       6.477   8.508   6.891  1.00  0.00     0.029 C
HETATM    5  C5  UNL     1       8.201   6.900   7.666  1.00  0.00     0.029 C
HETATM    6  C6  UNL     1       6.338   7.554   9.212  1.00  0.00     0.166 C
HETATM    7  C7  UNL     1       4.890   7.416   9.369  1.00  0.00     0.171 C
ENDROOT
BRANCH   1   8
HETATM    8  S1  UNL     1       2.973   5.562   8.572  1.00  0.00    -0.155 SA
HETATM    9  C1  UNL     1       2.904   4.190   7.428  1.00  0.00     0.091 C
ENDBRANCH   1   8
BRANCH   7  10
HETATM   10  O2  UNL     1       4.328   8.683   9.593  1.00  0.00    -0.391 OA
ATOM     11  H2  UNL     1       5.018   9.333   9.647  1.00  0.00     0.210 HD
ENDBRANCH   7  10
BRANCH   6  12
HETATM   12  O1  UNL     1       6.759   8.788   9.736  1.00  0.00    -0.391 OA
ATOM     13  H1  UNL     1       6.424   8.948  10.610  1.00  0.00     0.210 HD
ENDBRANCH   6  12
TORSDOF 3
ENDMDL