MODEL 2
REMARK VINA RESULT: -8.971947800      2.044      2.478
REMARK  9 active torsions:
REMARK  status: ('A' for Active; 'I' for Inactive)
REMARK    1  A    between atoms: C2_2  and  C6_22
REMARK    2  A    between atoms: N1_3  and  O1_5
REMARK    3  A    between atoms: O1_5  and  C3_6
REMARK    4  A    between atoms: C3_6  and  C4_7
REMARK    5  A    between atoms: C4_7  and  N2_8
REMARK       I    between atoms: C5_10  and  N3_11
REMARK       I    between atoms: C5_10  and  N6_17
REMARK    6  A    between atoms: N3_11  and  N4_13
REMARK    7  A    between atoms: N4_13  and  N5_14
REMARK    8  A    between atoms: N6_17  and  N7_19
REMARK    9  A    between atoms: C10_28  and  N9_29
ROOT
HETATM    1  C1  UNL     1      27.171 129.159  13.983  1.00  0.00     0.073 C
HETATM    2  C2  UNL     1      27.247 129.402  15.411  1.00  0.00     0.062 C
HETATM    3  N1  UNL     1      27.239 130.530  15.955  1.00  0.00    -0.269 N
ATOM      4  H1  UNL     1      27.300 130.484  16.971  1.00  0.00     0.194 HD
ENDROOT
BRANCH   3   5
HETATM    5  O1  UNL     1      27.168 131.778  15.490  1.00  0.00    -0.279 OA
BRANCH   5   6
HETATM    6  C3  UNL     1      26.059 132.623  15.582  1.00  0.00     0.221 C
BRANCH   6   7
HETATM    7  C4  UNL     1      25.585 132.747  17.020  1.00  0.00     0.166 C
BRANCH   7   8
HETATM    8  N2  UNL     1      26.214 133.808  17.723  1.00  0.00    -0.222 N
HETATM    9  C5  UNL     1      26.271 133.958  18.993  1.00  0.00     0.710 C
HETATM   10  N3  UNL     1      25.707 133.079  19.953  1.00  0.00    -0.115 N
HETATM   11  N6  UNL     1      26.958 135.103  19.480  1.00  0.00    -0.071 N
ATOM     12  H3  UNL     1      25.884 132.079  19.852  1.00  0.00     0.203 HD
ATOM     13  H6  UNL     1      26.488 135.819  20.033  1.00  0.00     0.212 HD
ATOM     14  H2  UNL     1      26.667 134.526  17.157  1.00  0.00     0.177 HD
BRANCH  10  15
HETATM   15  N4  UNL     1      24.928 133.501  21.025  1.00  0.00    -0.015 NA
BRANCH  15  16
HETATM   16  N5  UNL     1      24.898 132.605  22.082  1.00  0.00    -0.328 N
ATOM     17  H52 UNL     1      24.313 131.769  22.071  1.00  0.00     0.174 HD
ATOM     18  H51 UNL     1      25.510 132.863  22.856  1.00  0.00     0.174 HD
ENDBRANCH  15  16
ENDBRANCH  10  15
BRANCH  11  19
HETATM   19  N7  UNL     1      28.333 135.192  19.152  1.00  0.00    -0.024 N
HETATM   20  O2  UNL     1      29.032 136.130  19.583  1.00  0.00    -0.516 OA
HETATM   21  O3  UNL     1      28.881 134.235  18.357  1.00  0.00    -0.516 OA
ENDBRANCH  11  19
ENDBRANCH   7   8
ENDBRANCH   6   7
ENDBRANCH   5   6
ENDBRANCH   3   5
BRANCH   2  22
HETATM   22  C6  UNL     1      27.342 128.240  16.325  1.00  0.00     0.099 A
HETATM   23  N8  UNL     1      26.981 126.995  16.127  1.00  0.00    -0.348 N
HETATM   24  C7  UNL     1      27.150 126.107  17.070  1.00  0.00     0.050 A
ATOM     25  H8  UNL     1      26.567 126.721  15.236  1.00  0.00     0.166 HD
HETATM   26  C8  UNL     1      26.802 124.746  16.980  1.00  0.00     0.033 A
HETATM   27  C12 UNL     1      27.708 126.524  18.245  1.00  0.00     0.036 A
HETATM   28  C9  UNL     1      27.032 123.920  18.040  1.00  0.00     0.038 A
HETATM   29  C10 UNL     1      27.597 124.316  19.241  1.00  0.00     0.104 A
HETATM   30  C11 UNL     1      27.934 125.655  19.321  1.00  0.00     0.057 A
HETATM   31  S1  UNL     1      27.962 128.186  17.927  1.00  0.00    -0.068 SA
BRANCH  29  32
HETATM   32  N9  UNL     1      27.813 123.438  20.300  1.00  0.00    -0.116 N
HETATM   33  O4  UNL     1      27.303 122.305  20.292  1.00  0.00    -0.532 OA
HETATM   34  O5  UNL     1      28.594 123.819  21.360  1.00  0.00    -0.532 OA
ENDBRANCH  29  32
ENDBRANCH   2  22
TORSDOF 9
ENDMDL