MODEL 3
REMARK VINA RESULT: -8.206291461      4.093      5.594
REMARK  11 active torsions:
REMARK  status: ('A' for Active; 'I' for Inactive)
REMARK    1  A    between atoms: C2_3  and  O4_35
REMARK    2  A    between atoms: N2_4  and  N3_6
REMARK    3  A    between atoms: C4_13  and  C5_14
REMARK    4  A    between atoms: N6_15  and  N7_17
REMARK    5  A    between atoms: C6_19  and  C7_20
REMARK    6  A    between atoms: C11_26  and  O1_27
REMARK    7  A    between atoms: O1_27  and  O2_28
REMARK    8  A    between atoms: C12_30  and  O3_31
REMARK    9  A    between atoms: O4_35  and  C13_36
REMARK   10  A    between atoms: C13_36  and  C14_37
REMARK   11  A    between atoms: C14_37  and  N10_38
ROOT
HETATM    1  N1  UNL     1      26.097 138.054  15.138  1.00  0.00    -0.188 NA
HETATM    2  C1  UNL     1      25.034 137.588  15.188  1.00  0.00     0.145 C
HETATM    3  C2  UNL     1      23.729 137.025  15.249  1.00  0.00     0.241 C
HETATM    4  N2  UNL     1      23.422 136.182  16.177  1.00  0.00    -0.257 N
ATOM      5  H2  UNL     1      22.484 135.783  16.215  1.00  0.00     0.190 HD
ENDROOT
BRANCH   3   6
HETATM    6  O4  UNL     1      22.722 137.341  14.335  1.00  0.00    -0.325 OA
BRANCH   6   7
HETATM    7  C13 UNL     1      22.898 138.515  13.565  1.00  0.00     0.205 C
BRANCH   7   8
HETATM    8  C14 UNL     1      21.845 139.519  14.040  1.00  0.00     0.256 C
BRANCH   8   9
HETATM    9  N10 UNL     1      21.461 140.418  12.996  1.00  0.00    -0.077 N
ATOM     10 3H10 UNL     1      21.174 139.913  12.158  1.00  0.00     0.274 HD
ATOM     11 2H10 UNL     1      20.579 140.884  13.212  1.00  0.00     0.274 HD
ATOM     12 1H10 UNL     1      22.197 141.093  12.789  1.00  0.00     0.274 HD
ENDBRANCH   8   9
ENDBRANCH   7   8
ENDBRANCH   6   7
ENDBRANCH   3   6
BRANCH   4  13
HETATM   13  N3  UNL     1      24.372 135.819  17.126  1.00  0.00    -0.128 N
HETATM   14  C3  UNL     1      24.788 134.611  17.170  1.00  0.00     0.713 A
HETATM   15  N4  UNL     1      24.269 133.665  16.249  1.00  0.00    -0.130 N
HETATM   16  N9  UNL     1      25.755 134.148  18.101  1.00  0.00    -0.166 N
HETATM   17  N5  UNL     1      24.720 132.339  16.292  1.00  0.00    -0.281 N
ATOM     18  H4  UNL     1      23.573 133.948  15.559  1.00  0.00     0.205 HD
HETATM   19  C4  UNL     1      25.687 131.908  17.236  1.00  0.00     0.116 A
ATOM     20  H5  UNL     1      24.342 131.664  15.626  1.00  0.00     0.188 HD
HETATM   21  C12 UNL     1      26.170 132.793  18.095  1.00  0.00     0.185 A
ATOM     22  H9  UNL     1      26.153 134.797  18.781  1.00  0.00     0.186 HD
ATOM     23  H3  UNL     1      24.734 136.511  17.781  1.00  0.00     0.205 HD
BRANCH  19  24
HETATM   24  C5  UNL     1      26.148 130.502  17.263  1.00  0.00     0.142 C
HETATM   25  N6  UNL     1      25.724 129.750  18.215  1.00  0.00    -0.310 N
ATOM     26  H6  UNL     1      25.091 130.119  18.924  1.00  0.00     0.186 HD
BRANCH  25  27
HETATM   27  N7  UNL     1      26.142 128.423  18.262  1.00  0.00    -0.311 N
HETATM   28  C6  UNL     1      26.616 127.886  17.201  1.00  0.00     0.122 C
ATOM     29  H7  UNL     1      26.072 127.887  19.127  1.00  0.00     0.186 HD
BRANCH  28  30
HETATM   30  C7  UNL     1      27.057 126.505  17.233  1.00  0.00     0.035 A
HETATM   31  C8  UNL     1      26.289 125.477  16.679  1.00  0.00     0.018 A
HETATM   32  C9  UNL     1      26.706 124.163  16.721  1.00  0.00     0.018 A
HETATM   33  C10 UNL     1      27.911 123.869  17.326  1.00  0.00     0.090 A
HETATM   34  N8  UNL     1      28.658 124.848  17.861  1.00  0.00    -0.344 N
HETATM   35  C11 UNL     1      28.243 126.152  17.819  1.00  0.00     0.189 A
ATOM     36  H8  UNL     1      29.547 124.616  18.304  1.00  0.00     0.167 HD
BRANCH  35  37
HETATM   37  O1  UNL     1      29.058 127.125  18.389  1.00  0.00    -0.181 OA
BRANCH  37  38
HETATM   38  O2  UNL     1      30.392 126.858  18.337  1.00  0.00    -0.243 OA
ATOM     39  H2  UNL     1      30.625 125.952  18.500  1.00  0.00     0.254 HD
ENDBRANCH  37  38
ENDBRANCH  35  37
ENDBRANCH  28  30
ENDBRANCH  25  27
ENDBRANCH  19  24
BRANCH  21  40
HETATM   40  O3  UNL     1      27.128 132.347  19.021  1.00  0.00    -0.344 OA
ATOM     41  H3  UNL     1      27.370 132.937  19.725  1.00  0.00     0.219 HD
ENDBRANCH  21  40
ENDBRANCH   4  13
TORSDOF 11
ENDMDL