MODEL 5
REMARK VINA RESULT: -7.243163095      2.650      4.279
REMARK  11 active torsions:
REMARK  status: ('A' for Active; 'I' for Inactive)
REMARK    1  A    between atoms: C2_2  and  O1_3
REMARK    2  A    between atoms: C2_2  and  N1_5
REMARK    3  A    between atoms: N1_5  and  N2_7
REMARK    4  A    between atoms: C5_13  and  N4_14
REMARK    5  A    between atoms: N4_14  and  O3_16
REMARK    6  A    between atoms: C6_18  and  N5_19
REMARK    7  A    between atoms: N5_19  and  N6_21
REMARK    8  A    between atoms: N6_21  and  C7_23
REMARK    9  A    between atoms: C7_23  and  C8_24
REMARK   10  A    between atoms: C13_29  and  S1_30
REMARK   11  A    between atoms: S1_30  and  N7_31
ROOT
HETATM    1  N2  UNL     1      26.290 134.536  17.769  1.00  0.00    -0.187 N
HETATM    2  C3  UNL     1      26.146 135.834  18.073  1.00  0.00     0.347 A
HETATM    3  O2  UNL     1      26.269 136.777  17.234  1.00  0.00    -0.245 OA
HETATM    4  N3  UNL     1      25.847 136.236  19.343  1.00  0.00    -0.315 N
ATOM      5  H3  UNL     1      25.743 137.230  19.543  1.00  0.00     0.170 HD
HETATM    6  C4  UNL     1      25.689 135.350  20.326  1.00  0.00     0.128 A
HETATM    7  C5  UNL     1      25.831 134.028  20.034  1.00  0.00     0.117 A
HETATM    8  C6  UNL     1      26.138 133.579  18.735  1.00  0.00     0.176 A
ENDROOT
BRANCH   8   9
HETATM    9  N5  UNL     1      26.242 132.359  18.605  1.00  0.00    -0.286 N
ATOM     10  H5  UNL     1      25.296 131.983  18.637  1.00  0.00     0.188 HD
BRANCH   9  11
HETATM   11  N6  UNL     1      27.054 131.323  18.442  1.00  0.00    -0.330 N
ATOM     12  H6  UNL     1      27.449 130.911  19.286  1.00  0.00     0.180 HD
BRANCH  11  13
HETATM   13  C7  UNL     1      27.439 130.711  17.165  1.00  0.00     0.179 C
BRANCH  13  14
HETATM   14  C8  UNL     1      26.860 129.389  16.932  1.00  0.00    -0.016 A
HETATM   15  C9  UNL     1      27.269 128.236  17.570  1.00  0.00     0.010 A
HETATM   16  C10 UNL     1      26.707 126.995  17.324  1.00  0.00     0.001 A
HETATM   17  C11 UNL     1      25.696 126.951  16.391  1.00  0.00     0.002 A
HETATM   18  C12 UNL     1      25.278 128.098  15.744  1.00  0.00     0.026 A
HETATM   19  C13 UNL     1      25.830 129.338  15.982  1.00  0.00     0.087 A
BRANCH  19  20
HETATM   20  S1  UNL     1      25.241 130.706  15.120  1.00  0.00     0.257 S
HETATM   21  O4  UNL     1      24.847 131.844  16.007  1.00  0.00    -0.201 OA
HETATM   22  O5  UNL     1      24.011 130.317  14.350  1.00  0.00    -0.201 OA
BRANCH  20  23
HETATM   23  N7  UNL     1      26.379 131.289  13.957  1.00  0.00    -0.324 N
ATOM     24  H72 UNL     1      27.388 131.202  14.077  1.00  0.00     0.169 HD
ATOM     25  H71 UNL     1      25.924 131.722  13.153  1.00  0.00     0.169 HD
ENDBRANCH  20  23
ENDBRANCH  19  20
ENDBRANCH  13  14
ENDBRANCH  11  13
ENDBRANCH   9  11
ENDBRANCH   8   9
BRANCH   1  26
HETATM   26  N1  UNL     1      26.607 134.141  16.464  1.00  0.00    -0.296 N
ATOM     27  H1  UNL     1      25.857 133.726  15.912  1.00  0.00     0.183 HD
BRANCH  26  28
HETATM   28  C2  UNL     1      27.894 134.267  15.827  1.00  0.00     0.229 C
HETATM   29  C1  UNL     1      28.971 134.111  16.934  1.00  0.00     0.064 C
BRANCH  28  30
HETATM   30  O1  UNL     1      28.115 135.563  15.306  1.00  0.00    -0.376 OA
ATOM     31  H1  UNL     1      28.645 135.417  14.531  1.00  0.00     0.212 HD
ENDBRANCH  28  30
ENDBRANCH  26  28
ENDBRANCH   1  26
BRANCH   7  32
HETATM   32  N4  UNL     1      25.660 133.062  21.095  1.00  0.00    -0.264 N
ATOM     33  H4  UNL     1      25.518 132.072  20.897  1.00  0.00     0.194 HD
BRANCH  32  34
HETATM   34  O3  UNL     1      25.694 133.489  22.252  1.00  0.00    -0.289 OA
ATOM     35  H3  UNL     1      25.588 132.854  22.950  1.00  0.00     0.244 HD
ENDBRANCH  32  34
ENDBRANCH   7  32
TORSDOF 11
ENDMDL