MODEL 4
REMARK VINA RESULT: -7.156306163      1.367      1.743
REMARK  13 active torsions:
REMARK  status: ('A' for Active; 'I' for Inactive)
REMARK    1  A    between atoms: O1_2  and  C2_3
REMARK    2  A    between atoms: C2_3  and  O3_5
REMARK    3  A    between atoms: O3_5  and  C3_6
REMARK    4  A    between atoms: C3_6  and  C4_7
REMARK    5  A    between atoms: C3_6  and  C12_27
REMARK       I    between atoms: C4_7  and  N1_9
REMARK    6  A    between atoms: C5_11  and  C6_12
REMARK    7  A    between atoms: N3_16  and  O5_18
REMARK    8  A    between atoms: N4_20  and  C8_21
REMARK    9  A    between atoms: C11_24  and  O6_25
REMARK   10  A    between atoms: C12_27  and  O7_28
REMARK   11  A    between atoms: C12_27  and  C13_30
REMARK   12  A    between atoms: C13_30  and  O8_31
REMARK   13  A    between atoms: C13_30  and  O9_33
ROOT
HETATM    1  C4  UNL     1      27.802 134.439  17.285  1.00  0.00     0.254 C
HETATM    2  O4  UNL     1      29.013 134.479  17.700  1.00  0.00    -0.270 OA
HETATM    3  N1  UNL     1      27.498 133.918  16.090  1.00  0.00    -0.333 N
ATOM      4  H1  UNL     1      27.488 134.730  15.473  1.00  0.00     0.168 HD
HETATM    5  C5  UNL     1      27.230 132.999  15.353  1.00  0.00     0.125 C
ENDROOT
BRANCH   1   6
HETATM    6  C3  UNL     1      26.721 134.995  18.171  1.00  0.00     0.259 C
BRANCH   6   7
HETATM    7  O3  UNL     1      26.410 136.319  17.796  1.00  0.00    -0.280 OA
BRANCH   7   8
HETATM    8  C2  UNL     1      25.769 136.629  16.603  1.00  0.00     0.406 C
HETATM    9  O2  UNL     1      24.909 135.827  16.144  1.00  0.00    -0.229 OA
BRANCH   8  10
HETATM   10  O1  UNL     1      26.042 137.794  15.894  1.00  0.00    -0.303 OA
HETATM   11  C1  UNL     1      26.592 137.779  14.589  1.00  0.00     0.215 C
ENDBRANCH   8  10
ENDBRANCH   7   8
ENDBRANCH   6   7
BRANCH   6  12
HETATM   12  C12 UNL     1      27.095 134.868  19.625  1.00  0.00     0.212 C
BRANCH  12  13
HETATM   13  O7  UNL     1      28.126 135.753  19.877  1.00  0.00    -0.388 OA
ATOM     14  H7  UNL     1      28.088 135.993  20.795  1.00  0.00     0.210 HD
ENDBRANCH  12  13
BRANCH  12  15
HETATM   15  C13 UNL     1      25.945 135.174  20.549  1.00  0.00     0.287 C
BRANCH  15  16
HETATM   16  O8  UNL     1      24.722 134.907  19.895  1.00  0.00    -0.369 OA
ATOM     17  H8  UNL     1      24.565 135.564  19.227  1.00  0.00     0.212 HD
ENDBRANCH  15  16
BRANCH  15  18
HETATM   18  O9  UNL     1      26.013 134.288  21.621  1.00  0.00    -0.364 OA
HETATM   19  C14 UNL     1      25.020 133.310  21.532  1.00  0.00     0.204 C
ENDBRANCH  15  18
ENDBRANCH  12  15
ENDBRANCH   6  12
ENDBRANCH   1   6
BRANCH   5  20
HETATM   20  C6  UNL     1      27.100 131.595  15.668  1.00  0.00     0.116 A
HETATM   21  N2  UNL     1      27.838 130.609  15.106  1.00  0.00    -0.184 N
HETATM   22  C7  UNL     1      27.463 129.428  15.623  1.00  0.00     0.707 A
ATOM     23  H2  UNL     1      28.565 130.743  14.402  1.00  0.00     0.184 HD
HETATM   24  N3  UNL     1      27.973 128.278  15.300  1.00  0.00    -0.098 N
HETATM   25  N4  UNL     1      26.488 129.674  16.508  1.00  0.00    -0.154 N
ATOM     26  H3  UNL     1      27.629 127.425  15.741  1.00  0.00     0.213 HD
HETATM   27  C11 UNL     1      26.263 131.001  16.539  1.00  0.00     0.187 A
BRANCH  24  28
HETATM   28  O5  UNL     1      28.974 128.215  14.364  1.00  0.00    -0.276 OA
ATOM     29  H5  UNL     1      29.835 127.899  14.615  1.00  0.00     0.245 HD
ENDBRANCH  24  28
BRANCH  25  30
HETATM   30  C8  UNL     1      25.821 128.633  17.280  1.00  0.00     0.102 C
HETATM   31  C9  UNL     1      25.219 127.584  16.354  1.00  0.00     0.033 C
HETATM   32  C10 UNL     1      26.792 127.924  18.195  1.00  0.00     0.033 C
ENDBRANCH  25  30
BRANCH  27  33
HETATM   33  O6  UNL     1      25.298 131.543  17.375  1.00  0.00    -0.344 OA
ATOM     34  H6  UNL     1      24.657 132.226  17.217  1.00  0.00     0.219 HD
ENDBRANCH  27  33
ENDBRANCH   5  20
TORSDOF 13
ENDMDL