MODEL 4
REMARK VINA RESULT: -8.879511371      1.189      1.875
REMARK  8 active torsions:
REMARK  status: ('A' for Active; 'I' for Inactive)
REMARK    1  A    between atoms: O1_2  and  S1_3
REMARK    2  A    between atoms: S1_3  and  C2_6
REMARK    3  A    between atoms: C5_9  and  N1_10
REMARK    4  A    between atoms: N2_12  and  N3_14
REMARK    5  A    between atoms: N3_14  and  C6_16
REMARK    6  A    between atoms: C7_17  and  O4_18
REMARK    7  A    between atoms: N4_20  and  C8_21
REMARK    8  A    between atoms: C8_21  and  O5_22
ROOT
HETATM    1  N3  UNL     1      27.355 132.186  17.048  1.00  0.00    -0.277 N
ATOM      2  H3  UNL     1      28.221 131.661  16.931  1.00  0.00     0.189 HD
ENDROOT
BRANCH   1   3
HETATM    3  N2  UNL     1      26.288 131.976  16.180  1.00  0.00    -0.242 N
HETATM    4  N1  UNL     1      25.956 130.805  15.863  1.00  0.00    -0.287 N
ATOM      5  H1  UNL     1      25.175 130.642  15.226  1.00  0.00     0.188 HD
ATOM      6  H2  UNL     1      25.775 132.772  15.801  1.00  0.00     0.208 HD
BRANCH   4   7
HETATM    7  C5  UNL     1      26.684 129.715  16.404  1.00  0.00     0.049 A
HETATM    8  C4  UNL     1      26.204 129.011  17.489  1.00  0.00     0.032 A
HETATM    9  C3  UNL     1      26.880 127.949  18.043  1.00  0.00     0.028 A
HETATM   10  C2  UNL     1      28.077 127.566  17.506  1.00  0.00     0.086 A
HETATM   11  C12 UNL     1      28.569 128.256  16.426  1.00  0.00     0.028 A
HETATM   12  C11 UNL     1      27.889 129.328  15.866  1.00  0.00     0.032 A
BRANCH  10  13
HETATM   13  S1  UNL     1      28.965 126.246  18.158  1.00  0.00     0.297 S
HETATM   14  O2  UNL     1      28.718 126.059  19.646  1.00  0.00    -0.193 OA
HETATM   15  O3  UNL     1      30.450 126.551  18.031  1.00  0.00    -0.193 OA
BRANCH  13  16
HETATM   16  O1  UNL     1      28.674 124.792  17.415  1.00  0.00    -0.277 OA
HETATM   17  C1  UNL     1      27.432 124.260  17.683  1.00  0.00     0.225 C
ENDBRANCH  13  16
ENDBRANCH  10  13
ENDBRANCH   4   7
ENDBRANCH   1   3
BRANCH   1  18
HETATM   18  C6  UNL     1      27.231 133.149  18.113  1.00  0.00     0.169 A
HETATM   19  C7  UNL     1      26.187 133.071  18.987  1.00  0.00     0.182 A
HETATM   20  N4  UNL     1      26.031 133.957  20.006  1.00  0.00    -0.256 N
HETATM   21  C9  UNL     1      26.935 134.920  20.137  1.00  0.00     0.333 A
HETATM   22  O6  UNL     1      26.788 135.750  21.091  1.00  0.00    -0.246 OA
HETATM   23  N5  UNL     1      27.977 135.028  19.293  1.00  0.00    -0.273 N
HETATM   24  C10 UNL     1      28.155 134.157  18.271  1.00  0.00     0.281 A
ATOM     25  H5  UNL     1      28.650 135.783  19.427  1.00  0.00     0.173 HD
HETATM   26  O7  UNL     1      29.124 134.240  17.471  1.00  0.00    -0.265 OA
BRANCH  19  27
HETATM   27  O4  UNL     1      25.259 132.047  18.818  1.00  0.00    -0.344 OA
ATOM     28  H4  UNL     1      24.443 132.093  19.303  1.00  0.00     0.219 HD
ENDBRANCH  19  27
BRANCH  20  29
HETATM   29  C8  UNL     1      24.889 133.778  20.867  1.00  0.00     0.302 C
BRANCH  29  30
HETATM   30  O5  UNL     1      25.222 132.781  21.791  1.00  0.00    -0.382 OA
ATOM     31  H5  UNL     1      24.698 132.934  22.568  1.00  0.00     0.211 HD
ENDBRANCH  29  30
ENDBRANCH  20  29
ENDBRANCH   1  18
TORSDOF 8
ENDMDL