MODEL 3
REMARK VINA RESULT: -7.818925824      1.969      3.692
REMARK  11 active torsions:
REMARK  status: ('A' for Active; 'I' for Inactive)
REMARK    1  A    between atoms: C2_2  and  C7_21
REMARK    2  A    between atoms: N1_3  and  N2_5
REMARK    3  A    between atoms: N2_5  and  C3_7
REMARK    4  A    between atoms: C4_10  and  N4_11
REMARK    5  A    between atoms: C6_17  and  N6_18
REMARK    6  A    between atoms: N8_27  and  C10_28
REMARK    7  A    between atoms: C10_28  and  C12_31
REMARK    8  A    between atoms: C12_31  and  O3_32
REMARK    9  A    between atoms: C12_31  and  C13_34
REMARK   10  A    between atoms: C13_34  and  N10_35
REMARK   11  A    between atoms: N10_35  and  N11_36
ROOT
HETATM    1  C10 UNL     1      25.297 130.022  14.725  1.00  0.00     0.366 C
HETATM    2  C11 UNL     1      24.867 128.606  14.894  1.00  0.00     0.098 C
HETATM    3  N9  UNL     1      24.512 127.509  15.017  1.00  0.00    -0.195 NA
ENDROOT
BRANCH   1   4
HETATM    4  N8  UNL     1      26.699 130.048  14.575  1.00  0.00     0.147 N
HETATM    5  C7  UNL     1      27.498 130.801  15.446  1.00  0.00     0.467 C
HETATM    6  N7  UNL     1      28.034 129.926  16.470  1.00  0.00    -0.036 N
HETATM    7  C8  UNL     1      28.242 128.686  15.795  1.00  0.00     0.265 C
ATOM      8  H72 UNL     1      28.861 130.291  16.942  1.00  0.00     0.280 HD
ATOM      9  H71 UNL     1      27.453 129.855  17.306  1.00  0.00     0.280 HD
HETATM   10  C9  UNL     1      27.291 128.734  14.608  1.00  0.00     0.305 C
BRANCH   5  11
HETATM   11  C2  UNL     1      26.965 132.053  15.990  1.00  0.00     0.060 C
HETATM   12  C1  UNL     1      27.108 133.309  15.242  1.00  0.00     0.069 C
HETATM   13  N1  UNL     1      26.384 132.048  17.116  1.00  0.00    -0.304 N
ATOM     14  H1  UNL     1      26.292 131.171  17.627  1.00  0.00     0.186 HD
BRANCH  13  15
HETATM   15  N2  UNL     1      25.876 133.203  17.661  1.00  0.00    -0.283 N
ATOM     16  H2  UNL     1      25.417 133.823  16.994  1.00  0.00     0.188 HD
BRANCH  15  17
HETATM   17  C3  UNL     1      25.884 133.621  18.845  1.00  0.00     0.170 A
HETATM   18  N3  UNL     1      25.366 132.990  19.912  1.00  0.00    -0.173 N
HETATM   19  C4  UNL     1      25.419 133.501  21.168  1.00  0.00     0.677 A
ATOM     20  H3  UNL     1      24.913 132.087  19.772  1.00  0.00     0.186 HD
HETATM   21  N5  UNL     1      26.012 134.685  21.354  1.00  0.00    -0.200 N
HETATM   22  C5  UNL     1      26.561 135.397  20.353  1.00  0.00     0.146 A
ATOM     23  H5  UNL     1      26.051 135.067  22.299  1.00  0.00     0.183 HD
HETATM   24  C6  UNL     1      26.491 134.852  19.085  1.00  0.00     0.164 A
BRANCH  19  25
HETATM   25  N4  UNL     1      24.885 132.826  22.149  1.00  0.00    -0.234 N
ATOM     26  H42 UNL     1      25.188 131.882  22.390  1.00  0.00     0.174 HD
ATOM     27  H41 UNL     1      24.142 133.256  22.698  1.00  0.00     0.174 HD
ENDBRANCH  19  25
BRANCH  24  28
HETATM   28  N6  UNL     1      27.058 135.566  18.012  1.00  0.00    -0.110 N
HETATM   29  O1  UNL     1      26.350 136.324  17.341  1.00  0.00    -0.532 OA
HETATM   30  O2  UNL     1      28.377 135.426  17.713  1.00  0.00    -0.532 OA
ENDBRANCH  24  28
ENDBRANCH  15  17
ENDBRANCH  13  15
ENDBRANCH   5  11
ENDBRANCH   1   4
BRANCH   1  31
HETATM   31  C12 UNL     1      24.617 130.553  13.498  1.00  0.00     0.219 C
BRANCH  31  32
HETATM   32  O3  UNL     1      23.521 129.704  13.198  1.00  0.00    -0.386 OA
ATOM     33  H3  UNL     1      23.097 129.471  14.015  1.00  0.00     0.210 HD
ENDBRANCH  31  32
BRANCH  31  34
HETATM   34  C13 UNL     1      24.143 131.961  13.622  1.00  0.00     0.215 C
BRANCH  34  35
HETATM   35  N10 UNL     1      23.459 132.235  14.810  1.00  0.00    -0.347 NA
BRANCH  35  36
HETATM   36  N11 UNL     1      22.912 132.437  15.773  1.00  0.00    -0.281 N
ATOM     37 2H11 UNL     1      22.687 132.391  14.779  1.00  0.00     0.191 HD
ATOM     38 1H11 UNL     1      22.433 132.618  16.655  1.00  0.00     0.191 HD
ENDBRANCH  35  36
ENDBRANCH  34  35
ENDBRANCH  31  34
ENDBRANCH   1  31
TORSDOF 11
ENDMDL