MODEL 1
REMARK VINA RESULT: -7.549696006      0.000      0.000
REMARK  12 active torsions:
REMARK  status: ('A' for Active; 'I' for Inactive)
REMARK    1  A    between atoms: O1_2  and  C2_3
REMARK    2  A    between atoms: C2_3  and  C3_5
REMARK    3  A    between atoms: C3_5  and  O3_6
REMARK    4  A    between atoms: C3_5  and  C4_8
REMARK    5  A    between atoms: C5_9  and  N1_10
REMARK    6  A    between atoms: N1_10  and  C6_12
REMARK    7  A    between atoms: C6_12  and  C7_13
REMARK    8  A    between atoms: C7_13  and  O4_14
REMARK    9  A    between atoms: C8_17  and  C9_18
REMARK   10  A    between atoms: C9_18  and  O6_20
REMARK   11  A    between atoms: O6_20  and  C10_21
REMARK   12  A    between atoms: C14_31  and  O8_32
ROOT
HETATM    1  C4  UNL     1      26.579 134.005  18.088  1.00  0.00     0.071 A
HETATM    2  C5  UNL     1      25.846 134.728  17.150  1.00  0.00     0.087 A
HETATM    3  S1  UNL     1      25.364 133.537  16.020  1.00  0.00    -0.063 SA
HETATM    4  C8  UNL     1      26.077 132.164  16.727  1.00  0.00     0.116 A
HETATM    5  C14 UNL     1      26.683 132.675  17.842  1.00  0.00     0.104 A
ENDROOT
BRANCH   4   6
HETATM    6  C9  UNL     1      26.025 130.788  16.219  1.00  0.00     0.305 C
HETATM    7  O5  UNL     1      25.090 130.496  15.414  1.00  0.00    -0.258 OA
BRANCH   6   8
HETATM    8  O6  UNL     1      26.898 129.843  16.558  1.00  0.00    -0.274 OA
BRANCH   8   9
HETATM    9  C10 UNL     1      26.597 128.623  17.244  1.00  0.00     0.421 C
HETATM   10  N2  UNL     1      26.458 127.613  16.217  1.00  0.00    -0.038 N
HETATM   11  C11 UNL     1      26.303 126.291  16.709  1.00  0.00     0.255 C
ATOM     12  H22 UNL     1      25.692 127.851  15.586  1.00  0.00     0.280 HD
ATOM     13  H21 UNL     1      27.242 127.660  15.566  1.00  0.00     0.280 HD
HETATM   14  C12 UNL     1      27.094 125.957  17.926  1.00  0.00     0.150 C
HETATM   15  N3  UNL     1      28.162 126.911  18.167  1.00  0.00    -0.356 N
HETATM   16  C13 UNL     1      27.818 128.284  18.022  1.00  0.00     0.275 C
ATOM     17  H3  UNL     1      29.103 126.615  18.424  1.00  0.00     0.162 HD
HETATM   18  O7  UNL     1      28.560 129.151  18.557  1.00  0.00    -0.269 OA
ENDBRANCH   8   9
ENDBRANCH   6   8
ENDBRANCH   4   6
BRANCH   5  19
HETATM   19  O8  UNL     1      27.390 131.813  18.695  1.00  0.00    -0.358 OA
ATOM     20  H8  UNL     1      27.047 131.545  19.539  1.00  0.00     0.217 HD
ENDBRANCH   5  19
BRANCH   2  21
HETATM   21  N1  UNL     1      25.489 136.111  17.074  1.00  0.00    -0.381 N
ATOM     22  H1  UNL     1      25.932 136.802  17.681  1.00  0.00     0.160 HD
BRANCH  21  23
HETATM   23  C6  UNL     1      24.466 136.509  16.093  1.00  0.00     0.146 C
BRANCH  23  24
HETATM   24  C7  UNL     1      25.077 137.507  15.159  1.00  0.00     0.183 C
BRANCH  24  25
HETATM   25  O4  UNL     1      26.245 138.029  15.719  1.00  0.00    -0.399 OA
ATOM     26  H4  UNL     1      26.299 138.962  15.546  1.00  0.00     0.209 HD
ENDBRANCH  24  25
ENDBRANCH  23  24
ENDBRANCH  21  23
ENDBRANCH   2  21
BRANCH   1  27
HETATM   27  C3  UNL     1      27.175 134.719  19.239  1.00  0.00     0.157 C
BRANCH  27  28
HETATM   28  C2  UNL     1      26.528 135.500  20.246  1.00  0.00     0.317 C
HETATM   29  O2  UNL     1      26.253 136.698  20.201  1.00  0.00    -0.257 OA
BRANCH  28  30
HETATM   30  O1  UNL     1      26.129 134.869  21.472  1.00  0.00    -0.321 OA
HETATM   31  C1  UNL     1      25.352 133.696  21.396  1.00  0.00     0.213 C
ENDBRANCH  28  30
ENDBRANCH  27  28
BRANCH  27  32
HETATM   32  O3  UNL     1      28.472 134.642  19.384  1.00  0.00    -0.355 OA
ATOM     33  H3  UNL     1      28.925 135.461  19.222  1.00  0.00     0.218 HD
ENDBRANCH  27  32
ENDBRANCH   1  27
TORSDOF 12
ENDMDL