MODEL 1
REMARK VINA RESULT: -8.788704671      0.000      0.000
REMARK  8 active torsions:
REMARK  status: ('A' for Active; 'I' for Inactive)
REMARK    1  A    between atoms: O1_2  and  N1_3
REMARK    2  A    between atoms: C2_5  and  C3_6
REMARK    3  A    between atoms: C2_5  and  C8_20
REMARK    4  A    between atoms: C3_6  and  C4_7
REMARK    5  A    between atoms: C6_14  and  N4_15
REMARK       I    between atoms: C8_20  and  N6_22
REMARK    6  A    between atoms: N6_22  and  N7_24
REMARK    7  A    between atoms: C9_26  and  C10_27
REMARK    8  A    between atoms: C13_30  and  N8_31
ROOT
HETATM    1  N1  UNL     1      27.216 130.721  18.014  1.00  0.00    -0.266 N
ATOM      2  H1  UNL     1      27.416 131.419  18.730  1.00  0.00     0.194 HD
HETATM    3  C2  UNL     1      26.281 130.972  17.175  1.00  0.00     0.106 C
ENDROOT
BRANCH   3   4
HETATM    4  C3  UNL     1      25.521 132.228  17.244  1.00  0.00     0.124 C
BRANCH   4   5
HETATM    5  C4  UNL     1      25.911 133.078  18.389  1.00  0.00     0.047 A
HETATM    6  N2  UNL     1      25.391 132.929  19.619  1.00  0.00    -0.310 N
HETATM    7  C5  UNL     1      25.732 133.686  20.660  1.00  0.00     0.326 A
ATOM      8  H2  UNL     1      24.697 132.196  19.763  1.00  0.00     0.170 HD
HETATM    9  O2  UNL     1      25.187 133.473  21.793  1.00  0.00    -0.247 OA
HETATM   10  N3  UNL     1      26.648 134.657  20.484  1.00  0.00    -0.293 N
HETATM   11  C6  UNL     1      27.221 134.880  19.295  1.00  0.00     0.129 A
ATOM     12  H3  UNL     1      26.913 135.238  21.278  1.00  0.00     0.172 HD
HETATM   13  C7  UNL     1      26.852 134.083  18.226  1.00  0.00     0.113 A
HETATM   14  N5  UNL     1      27.474 134.342  16.983  1.00  0.00    -0.096 NA
BRANCH  11  15
HETATM   15  N4  UNL     1      28.099 135.825  19.164  1.00  0.00    -0.384 N
ATOM     16  H42 UNL     1      29.065 135.699  19.466  1.00  0.00     0.157 HD
ATOM     17  H41 UNL     1      27.831 136.718  18.753  1.00  0.00     0.157 HD
ENDBRANCH  11  15
ENDBRANCH   4   5
ENDBRANCH   3   4
BRANCH   3  18
HETATM   18  C8  UNL     1      25.972 130.000  16.147  1.00  0.00     0.284 C
HETATM   19  O3  UNL     1      26.309 130.242  14.938  1.00  0.00    -0.265 OA
HETATM   20  N6  UNL     1      25.300 128.774  16.426  1.00  0.00    -0.265 N
ATOM     21  H6  UNL     1      25.019 128.553  17.382  1.00  0.00     0.190 HD
BRANCH  20  22
HETATM   22  N7  UNL     1      25.035 127.895  15.417  1.00  0.00    -0.306 N
HETATM   23  C9  UNL     1      25.466 126.729  15.209  1.00  0.00     0.144 C
ATOM     24  H7  UNL     1      24.380 128.238  14.715  1.00  0.00     0.186 HD
BRANCH  23  25
HETATM   25  C10 UNL     1      26.420 126.074  16.119  1.00  0.00     0.095 A
HETATM   26  C11 UNL     1      26.542 124.704  16.316  1.00  0.00     0.043 A
HETATM   27  C12 UNL     1      27.545 124.556  17.240  1.00  0.00     0.065 A
HETATM   28  C13 UNL     1      27.992 125.838  17.567  1.00  0.00     0.215 A
HETATM   29  O6  UNL     1      27.288 126.696  16.871  1.00  0.00    -0.287 OA
BRANCH  28  30
HETATM   30  N8  UNL     1      29.026 126.128  18.491  1.00  0.00    -0.090 N
HETATM   31  O4  UNL     1      28.812 126.031  19.697  1.00  0.00    -0.530 OA
HETATM   32  O5  UNL     1      30.244 126.512  18.029  1.00  0.00    -0.530 OA
ENDBRANCH  28  30
ENDBRANCH  23  25
ENDBRANCH  20  22
ENDBRANCH   3  18
BRANCH   1  33
HETATM   33  O1  UNL     1      27.958 129.581  18.009  1.00  0.00    -0.285 OA
HETATM   34  C1  UNL     1      29.202 129.585  17.341  1.00  0.00     0.237 C
ENDBRANCH   1  33
TORSDOF 8
ENDMDL