MODEL 1
REMARK VINA RESULT: -7.645804950      0.000      0.000
REMARK  12 active torsions:
REMARK  status: ('A' for Active; 'I' for Inactive)
REMARK    1  A    between atoms: C2_2  and  O1_3
REMARK    2  A    between atoms: O1_3  and  C3_4
REMARK       I    between atoms: C3_4  and  N1_6
REMARK    3  A    between atoms: N1_6  and  N2_8
REMARK    4  A    between atoms: N2_8  and  C4_10
REMARK    5  A    between atoms: C4_10  and  C5_11
REMARK    6  A    between atoms: C5_11  and  S1_12
REMARK    7  A    between atoms: N3_16  and  O6_18
REMARK    8  A    between atoms: O6_18  and  N4_19
REMARK    9  A    between atoms: C6_21  and  C8_23
REMARK   10  A    between atoms: C8_23  and  O7_24
REMARK   11  A    between atoms: N5_26  and  O8_28
REMARK   12  A    between atoms: O8_28  and  C9_29
ROOT
HETATM    1  C4  UNL     1      26.791 127.873  17.162  1.00  0.00     0.135 C
HETATM    2  N3  UNL     1      25.897 128.537  17.769  1.00  0.00    -0.227 N
ATOM      3  H3  UNL     1      25.253 127.946  18.294  1.00  0.00     0.198 HD
ENDROOT
BRANCH   2   4
HETATM    4  O6  UNL     1      25.614 129.820  17.874  1.00  0.00    -0.155 OA
BRANCH   4   5
HETATM    5  N4  UNL     1      25.352 130.777  16.987  1.00  0.00    -0.242 N
HETATM    6  C6  UNL     1      25.551 132.011  17.127  1.00  0.00     0.083 C
HETATM    7  C7  UNL     1      25.166 132.894  15.975  1.00  0.00     0.075 C
ATOM      8  H4  UNL     1      24.947 130.479  16.100  1.00  0.00     0.196 HD
BRANCH   6   9
HETATM    9  C8  UNL     1      26.123 132.591  18.342  1.00  0.00     0.185 C
HETATM   10  N5  UNL     1      25.589 133.681  18.760  1.00  0.00    -0.232 N
ATOM     11  H5  UNL     1      24.810 134.074  18.230  1.00  0.00     0.197 HD
BRANCH   9  12
HETATM   12  O7  UNL     1      27.178 132.036  19.042  1.00  0.00    -0.343 OA
ATOM     13  H7  UNL     1      27.540 132.404  19.839  1.00  0.00     0.219 HD
ENDBRANCH   9  12
BRANCH  10  14
HETATM   14  O8  UNL     1      26.012 134.343  19.878  1.00  0.00    -0.171 OA
BRANCH  14  15
HETATM   15  C9  UNL     1      26.759 135.531  19.752  1.00  0.00     0.355 C
HETATM   16  O9  UNL     1      26.272 136.570  20.234  1.00  0.00    -0.622 OA
HETATM   17  O10 UNL     1      27.962 135.528  19.124  1.00  0.00    -0.622 OA
ENDBRANCH  14  15
ENDBRANCH  10  14
ENDBRANCH   6   9
ENDBRANCH   4   5
ENDBRANCH   2   4
BRANCH   1  18
HETATM   18  N2  UNL     1      26.793 126.444  17.275  1.00  0.00    -0.282 N
ATOM     19  H2  UNL     1      26.659 125.886  16.431  1.00  0.00     0.188 HD
BRANCH  18  20
HETATM   20  N1  UNL     1      26.970 125.787  18.486  1.00  0.00    -0.244 N
HETATM   21  C3  UNL     1      28.263 125.668  19.111  1.00  0.00     0.379 C
HETATM   22  O2  UNL     1      29.267 126.179  18.526  1.00  0.00    -0.237 OA
ATOM     23  H1  UNL     1      26.159 125.375  18.947  1.00  0.00     0.192 HD
BRANCH  21  24
HETATM   24  O1  UNL     1      28.503 125.048  20.298  1.00  0.00    -0.303 OA
BRANCH  24  25
HETATM   25  C2  UNL     1      27.891 123.917  20.820  1.00  0.00     0.176 C
HETATM   26  C1  UNL     1      27.955 122.666  20.036  1.00  0.00     0.034 C
ENDBRANCH  24  25
ENDBRANCH  21  24
ENDBRANCH  18  20
ENDBRANCH   1  18
BRANCH   1  27
HETATM   27  C5  UNL     1      27.802 128.554  16.338  1.00  0.00     0.244 C
BRANCH  27  28
HETATM   28  S1  UNL     1      28.938 129.468  17.339  1.00  0.00     0.108 S
HETATM   29  O3  UNL     1      28.942 130.920  17.012  1.00  0.00    -0.595 OA
HETATM   30  O4  UNL     1      28.678 129.276  18.801  1.00  0.00    -0.595 OA
HETATM   31  O5  UNL     1      30.533 128.928  17.058  1.00  0.00    -0.595 OA
ENDBRANCH  27  28
ENDBRANCH   1  27
TORSDOF 12
ENDMDL