MODEL 4
REMARK VINA RESULT: -8.410124495      2.145      2.595
REMARK  9 active torsions:
REMARK  status: ('A' for Active; 'I' for Inactive)
REMARK       I    between atoms: N1_2  and  C2_4
REMARK    1  A    between atoms: C2_4  and  O2_6
REMARK    2  A    between atoms: O2_6  and  N2_7
REMARK    3  A    between atoms: N2_7  and  C3_9
REMARK    4  A    between atoms: C3_9  and  C4_13
REMARK    5  A    between atoms: C4_13  and  N4_14
REMARK    6  A    between atoms: C6_16  and  C7_17
REMARK       I    between atoms: C7_17  and  N5_19
REMARK    7  A    between atoms: N5_19  and  N6_21
REMARK    8  A    between atoms: N6_21  and  C8_23
REMARK    9  A    between atoms: C12_27  and  N7_28
ROOT
HETATM    1  N4  UNL     1      27.205 132.206  16.998  1.00  0.00    -0.277 N
HETATM    2  C5  UNL     1      28.229 131.313  16.974  1.00  0.00     0.144 A
HETATM    3  C6  UNL     1      27.870 130.188  17.665  1.00  0.00     0.132 A
HETATM    4  N8  UNL     1      26.625 130.404  18.107  1.00  0.00    -0.278 N
ATOM      5  H8  UNL     1      26.065 129.754  18.658  1.00  0.00     0.184 HD
HETATM    6  N9  UNL     1      26.245 131.616  17.700  1.00  0.00    -0.020 NA
ENDROOT
BRANCH   3   7
HETATM    7  C7  UNL     1      28.685 129.025  17.909  1.00  0.00     0.289 C
HETATM    8  O3  UNL     1      29.915 129.074  17.585  1.00  0.00    -0.264 OA
HETATM    9  N5  UNL     1      28.129 127.829  18.498  1.00  0.00    -0.264 N
ATOM     10  H5  UNL     1      27.142 127.816  18.753  1.00  0.00     0.190 HD
BRANCH   9  11
HETATM   11  N6  UNL     1      28.902 126.695  18.728  1.00  0.00    -0.298 N
ATOM     12  H6  UNL     1      29.912 126.736  18.860  1.00  0.00     0.187 HD
BRANCH  11  13
HETATM   13  C8  UNL     1      28.166 125.462  18.765  1.00  0.00     0.050 A
HETATM   14  C9  UNL     1      28.053 124.758  19.965  1.00  0.00     0.031 A
HETATM   15  C10 UNL     1      27.356 123.591  20.018  1.00  0.00     0.005 A
HETATM   16  C11 UNL     1      26.735 123.067  18.884  1.00  0.00     0.036 A
HETATM   17  C12 UNL     1      26.836 123.753  17.688  1.00  0.00     0.105 A
HETATM   18  C13 UNL     1      27.554 124.945  17.648  1.00  0.00     0.067 A
BRANCH  17  19
HETATM   19  N7  UNL     1      26.211 123.281  16.502  1.00  0.00    -0.116 N
HETATM   20  O4  UNL     1      25.912 122.076  16.439  1.00  0.00    -0.532 OA
HETATM   21  O5  UNL     1      25.932 124.077  15.437  1.00  0.00    -0.532 OA
ENDBRANCH  17  19
ENDBRANCH  11  13
ENDBRANCH   9  11
ENDBRANCH   3   7
BRANCH   1  22
HETATM   22  C4  UNL     1      27.226 133.479  16.358  1.00  0.00     0.223 C
BRANCH  22  23
HETATM   23  C3  UNL     1      28.347 134.302  16.941  1.00  0.00     0.115 C
HETATM   24  N3  UNL     1      29.346 134.656  16.148  1.00  0.00    -0.386 N
ATOM     25  H32 UNL     1      30.104 135.213  16.543  1.00  0.00     0.157 HD
ATOM     26  H31 UNL     1      29.339 134.389  15.164  1.00  0.00     0.157 HD
BRANCH  23  27
HETATM   27  N2  UNL     1      28.358 134.669  18.291  1.00  0.00    -0.243 N
ATOM     28  H2  UNL     1      29.050 134.301  18.943  1.00  0.00     0.196 HD
BRANCH  27  29
HETATM   29  O2  UNL     1      27.373 135.564  18.694  1.00  0.00    -0.180 OA
BRANCH  29  30
HETATM   30  C2  UNL     1      26.590 135.202  19.782  1.00  0.00     0.382 C
HETATM   31  N1  UNL     1      26.129 133.873  19.929  1.00  0.00    -0.340 N
HETATM   32  C1  UNL     1      25.319 133.542  21.083  1.00  0.00     0.151 C
ATOM     33  H1  UNL     1      26.363 133.163  19.236  1.00  0.00     0.164 HD
HETATM   34  O1  UNL     1      26.299 136.083  20.634  1.00  0.00    -0.236 OA
ENDBRANCH  29  30
ENDBRANCH  27  29
ENDBRANCH  23  27
ENDBRANCH  22  23
ENDBRANCH   1  22
TORSDOF 9
ENDMDL