MODEL 5
REMARK VINA RESULT: -6.709039814      3.160      5.948
REMARK  11 active torsions:
REMARK  status: ('A' for Active; 'I' for Inactive)
REMARK    1  A    between atoms: C2_2  and  C3_3
REMARK    2  A    between atoms: C3_3  and  N1_4
REMARK    3  A    between atoms: N1_4  and  C4_5
REMARK    4  A    between atoms: N1_4  and  C6_8
REMARK    5  A    between atoms: C4_5  and  C5_6
REMARK    6  A    between atoms: C10_14  and  N3_15
REMARK    7  A    between atoms: N3_15  and  C11_16
REMARK    8  A    between atoms: N3_15  and  C13_18
REMARK    9  A    between atoms: C20_26  and  C21_27
REMARK   10  A    between atoms: C21_27  and  O1_28
REMARK   11  A    between atoms: N4_30  and  O2_32
ROOT
HETATM    1  C6  UNL     1     -40.883 -16.736 377.277  1.00  0.00     0.115 C
HETATM    2  N2  UNL     1     -40.663 -15.503 377.196  1.00  0.00    -0.364 N
ATOM      3  H2  UNL     1     -40.706 -15.098 376.261  1.00  0.00     0.162 HD
HETATM    4  C7  UNL     1     -40.356 -14.591 378.275  1.00  0.00     0.153 C
HETATM    5  C8  UNL     1     -38.956 -14.103 378.111  1.00  0.00    -0.024 A
HETATM    6  C9  UNL     1     -38.335 -14.183 376.856  1.00  0.00     0.042 A
HETATM    7  C10 UNL     1     -37.049 -13.746 376.650  1.00  0.00     0.069 A
HETATM    8  C15 UNL     1     -36.397 -13.221 377.743  1.00  0.00     0.143 A
HETATM    9  F1  UNL     1     -35.127 -12.778 377.570  1.00  0.00    -0.204 F
HETATM   10  C16 UNL     1     -36.973 -13.126 378.985  1.00  0.00     0.052 A
HETATM   11  C17 UNL     1     -38.270 -13.578 379.154  1.00  0.00    -0.046 A
HETATM   12  C18 UNL     1     -38.944 -13.519 380.489  1.00  0.00     0.042 C
HETATM   13  C19 UNL     1     -39.590 -14.853 380.674  1.00  0.00     0.047 C
HETATM   14  C20 UNL     1     -40.607 -15.186 379.597  1.00  0.00     0.121 C
HETATM   15  N5  UNL     1     -40.826 -16.587 379.596  1.00  0.00    -0.377 N
ATOM     16  H5  UNL     1     -40.878 -17.038 380.510  1.00  0.00     0.160 HD
HETATM   17  C22 UNL     1     -40.964 -17.337 378.591  1.00  0.00     0.132 C
ENDROOT
BRANCH   1  18
HETATM   18  N1  UNL     1     -41.171 -17.574 376.130  1.00  0.00    -0.365 N
BRANCH  18  19
HETATM   19  C3  UNL     1     -40.084 -17.787 375.253  1.00  0.00     0.124 C
BRANCH  19  20
HETATM   20  C2  UNL     1     -38.977 -18.601 375.836  1.00  0.00     0.015 C
HETATM   21  C1  UNL     1     -37.879 -17.655 376.372  1.00  0.00     0.006 C
ENDBRANCH  19  20
ENDBRANCH  18  19
BRANCH  18  22
HETATM   22  C4  UNL     1     -42.496 -18.068 376.008  1.00  0.00     0.139 C
BRANCH  22  23
HETATM   23  C5  UNL     1     -42.760 -19.142 375.016  1.00  0.00     0.134 C
HETATM   24 CL1  UNL     1     -44.419 -19.101 374.362  1.00  0.00    -0.129 Cl
ENDBRANCH  22  23
ENDBRANCH  18  22
ENDBRANCH   1  18
BRANCH  14  25
HETATM   25  C21 UNL     1     -41.897 -14.593 380.167  1.00  0.00     0.167 C
HETATM   26  N4  UNL     1     -42.999 -14.781 379.617  1.00  0.00    -0.249 N
ATOM     27  H4  UNL     1     -43.770 -14.327 380.106  1.00  0.00     0.196 HD
BRANCH  25  28
HETATM   28  O1  UNL     1     -41.815 -13.837 381.321  1.00  0.00    -0.346 OA
ATOM     29  H1  UNL     1     -42.572 -13.807 381.893  1.00  0.00     0.219 HD
ENDBRANCH  25  28
BRANCH  26  30
HETATM   30  O2  UNL     1     -43.394 -15.446 378.527  1.00  0.00    -0.288 OA
ATOM     31  H2  UNL     1     -44.205 -15.865 378.265  1.00  0.00     0.244 HD
ENDBRANCH  26  30
ENDBRANCH  14  25
BRANCH   7  32
HETATM   32  N3  UNL     1     -36.399 -13.806 375.412  1.00  0.00    -0.379 N
BRANCH  32  33
HETATM   33  C11 UNL     1     -36.820 -12.875 374.360  1.00  0.00     0.118 C
HETATM   34  C12 UNL     1     -37.455 -13.637 373.216  1.00  0.00     0.026 C
ENDBRANCH  32  33
BRANCH  32  35
HETATM   35  C13 UNL     1     -35.332 -14.717 375.073  1.00  0.00     0.118 C
HETATM   36  C14 UNL     1     -34.048 -13.995 374.736  1.00  0.00     0.026 C
ENDBRANCH  32  35
ENDBRANCH   7  32
TORSDOF 11
ENDMDL