MODEL 1
REMARK VINA RESULT: -8.441596977      0.000      0.000
REMARK  11 active torsions:
REMARK  status: ('A' for Active; 'I' for Inactive)
REMARK    1  A    between atoms: C2_2  and  C3_3
REMARK    2  A    between atoms: C3_3  and  C4_4
REMARK    3  A    between atoms: C5_5  and  C6_6
REMARK    4  A    between atoms: C7_7  and  C8_8
REMARK    5  A    between atoms: C8_8  and  C9_9
REMARK    6  A    between atoms: C12_14  and  N1_15
REMARK    7  A    between atoms: C13_18  and  O3_19
REMARK    8  A    between atoms: C14_21  and  C15_22
REMARK    9  A    between atoms: C17_24  and  O4_25
REMARK   10  A    between atoms: C19_27  and  O5_28
REMARK   11  A    between atoms: C21_30  and  O6_31
ROOT
HETATM    1  C6  UNL     1     -39.851 -15.397 377.812  1.00  0.00     0.038 A
HETATM    2  C7  UNL     1     -40.866 -16.026 378.490  1.00  0.00    -0.030 A
HETATM    3  C11 UNL     1     -41.764 -16.866 377.862  1.00  0.00     0.047 A
HETATM    4  C12 UNL     1     -41.657 -17.097 376.495  1.00  0.00     0.137 A
HETATM    5  C13 UNL     1     -40.649 -16.474 375.801  1.00  0.00     0.111 A
HETATM    6  C14 UNL     1     -39.753 -15.627 376.470  1.00  0.00     0.029 A
ENDROOT
BRANCH   6   7
HETATM    7  C15 UNL     1     -38.688 -14.957 375.744  1.00  0.00    -0.016 A
HETATM    8  C16 UNL     1     -37.365 -15.295 375.987  1.00  0.00     0.052 A
HETATM    9  C17 UNL     1     -36.325 -14.689 375.322  1.00  0.00     0.105 A
HETATM   10  C19 UNL     1     -36.644 -13.705 374.374  1.00  0.00     0.135 A
HETATM   11  C21 UNL     1     -37.944 -13.339 374.101  1.00  0.00     0.105 A
HETATM   12  C23 UNL     1     -38.940 -13.984 374.802  1.00  0.00     0.052 A
BRANCH   9  13
HETATM   13  O4  UNL     1     -34.983 -14.983 375.525  1.00  0.00    -0.353 OA
HETATM   14  C18 UNL     1     -34.379 -14.540 376.722  1.00  0.00     0.210 C
ENDBRANCH   9  13
BRANCH  10  15
HETATM   15  O5  UNL     1     -35.608 -13.081 373.691  1.00  0.00    -0.351 OA
HETATM   16  C20 UNL     1     -35.029 -13.555 372.504  1.00  0.00     0.210 C
ENDBRANCH  10  15
BRANCH  11  17
HETATM   17  O6  UNL     1     -38.184 -12.374 373.166  1.00  0.00    -0.353 OA
HETATM   18  C22 UNL     1     -37.586 -11.101 373.138  1.00  0.00     0.210 C
ENDBRANCH  11  17
ENDBRANCH   6   7
BRANCH   1  19
HETATM   19  C5  UNL     1     -38.859 -14.562 378.487  1.00  0.00    -0.066 C
HETATM   20  C4  UNL     1     -38.060 -13.839 379.055  1.00  0.00    -0.101 C
BRANCH  20  21
HETATM   21  C3  UNL     1     -37.124 -12.958 379.754  1.00  0.00     0.094 C
BRANCH  21  22
HETATM   22  C2  UNL     1     -37.818 -11.712 380.191  1.00  0.00     0.007 C
HETATM   23  C1  UNL     1     -37.700 -10.686 379.081  1.00  0.00     0.006 C
ENDBRANCH  21  22
ENDBRANCH  20  21
ENDBRANCH   1  19
BRANCH   5  24
HETATM   24  O3  UNL     1     -40.458 -16.627 374.458  1.00  0.00    -0.357 OA
ATOM     25  H3  UNL     1     -39.613 -16.522 374.036  1.00  0.00     0.217 HD
ENDBRANCH   5  24
BRANCH   2  26
HETATM   26  C8  UNL     1     -41.055 -15.751 379.952  1.00  0.00     0.118 C
BRANCH  26  27
HETATM   27  C9  UNL     1     -42.087 -14.669 380.117  1.00  0.00     0.244 C
HETATM   28  C10 UNL     1     -41.466 -13.386 380.652  1.00  0.00     0.090 C
HETATM   29  F1  UNL     1     -42.835 -14.416 379.008  1.00  0.00    -0.206 F
HETATM   30  F2  UNL     1     -42.955 -15.075 381.165  1.00  0.00    -0.206 F
ENDBRANCH  26  27
ENDBRANCH   2  26
BRANCH   4  31
HETATM   31  N1  UNL     1     -42.607 -17.967 375.874  1.00  0.00    -0.113 N
HETATM   32  O1  UNL     1     -43.005 -17.846 374.719  1.00  0.00    -0.532 OA
HETATM   33  O2  UNL     1     -43.067 -19.031 376.658  1.00  0.00    -0.532 OA
ENDBRANCH   4  31
TORSDOF 11
ENDMDL