MODEL 2
REMARK VINA RESULT: -8.216109895      1.264      1.632
REMARK  8 active torsions:
REMARK  status: ('A' for Active; 'I' for Inactive)
REMARK    1  A    between atoms: C2_2  and  C3_3
REMARK    2  A    between atoms: C3_3  and  C4_4
REMARK    3  A    between atoms: C4_4  and  N1_5
REMARK    4  A    between atoms: C5_6  and  N2_7
REMARK    5  A    between atoms: C7_13  and  C8_14
REMARK    6  A    between atoms: C8_14  and  N4_16
REMARK    7  A    between atoms: C8_14  and  C16_27
REMARK    8  A    between atoms: N4_16  and  N5_17
ROOT
HETATM    1  C8  UNL     1     -37.934 -15.094 377.147  1.00  0.00     0.147 C
HETATM    2  C9  UNL     1     -36.850 -16.014 377.447  1.00  0.00     0.051 C
ENDROOT
BRANCH   1   3
HETATM    3  C7  UNL     1     -38.003 -14.373 375.877  1.00  0.00     0.118 A
HETATM    4  N1  UNL     1     -37.201 -14.014 374.897  1.00  0.00    -0.315 N
HETATM    5  C5  UNL     1     -37.881 -13.312 373.958  1.00  0.00     0.193 A
HETATM    6  C6  UNL     1     -39.191 -13.246 374.409  1.00  0.00     0.144 A
HETATM    7  N3  UNL     1     -39.251 -13.878 375.545  1.00  0.00    -0.350 N
ATOM      8  H3  UNL     1     -40.094 -13.991 376.108  1.00  0.00     0.166 HD
BRANCH   4   9
HETATM    9  C4  UNL     1     -35.794 -14.319 374.856  1.00  0.00     0.132 C
BRANCH   9  10
HETATM   10  C3  UNL     1     -34.986 -13.264 375.580  1.00  0.00     0.020 C
BRANCH  10  11
HETATM   11  C2  UNL     1     -33.506 -13.611 375.517  1.00  0.00    -0.003 C
HETATM   12  C1  UNL     1     -32.786 -12.845 374.433  1.00  0.00     0.005 C
ENDBRANCH  10  11
ENDBRANCH   9  10
ENDBRANCH   4   9
BRANCH   5  13
HETATM   13  N2  UNL     1     -37.400 -12.752 372.766  1.00  0.00    -0.096 N
HETATM   14  O1  UNL     1     -37.366 -13.494 371.734  1.00  0.00    -0.530 OA
HETATM   15  O2  UNL     1     -36.960 -11.489 372.595  1.00  0.00    -0.530 OA
ENDBRANCH   5  13
ENDBRANCH   1   3
BRANCH   1  16
HETATM   16  N4  UNL     1     -39.139 -15.936 377.153  1.00  0.00    -0.117 NA
BRANCH  16  17
HETATM   17  N5  UNL     1     -39.037 -17.075 376.326  1.00  0.00    -0.311 N
HETATM   18  C10 UNL     1     -40.039 -17.865 376.176  1.00  0.00     0.000 C
HETATM   19  C11 UNL     1     -39.899 -19.040 375.310  1.00  0.00     0.059 C
HETATM   20  C15 UNL     1     -41.341 -17.628 376.853  1.00  0.00     0.059 C
HETATM   21  C12 UNL     1     -41.104 -19.286 374.440  1.00  0.00     0.084 C
HETATM   22  C13 UNL     1     -42.399 -18.950 375.103  1.00  0.00     0.244 C
HETATM   23  F1  UNL     1     -42.790 -19.914 376.027  1.00  0.00    -0.206 F
HETATM   24  F2  UNL     1     -43.385 -18.952 374.118  1.00  0.00    -0.206 F
HETATM   25  C14 UNL     1     -42.402 -17.599 375.776  1.00  0.00     0.084 C
ATOM     26  H5  UNL     1     -38.161 -17.272 375.844  1.00  0.00     0.181 HD
ENDBRANCH  16  17
ENDBRANCH   1  16
BRANCH   1  27
HETATM   27  C16 UNL     1     -38.123 -14.057 378.228  1.00  0.00     0.049 A
HETATM   28  N6  UNL     1     -37.629 -12.817 378.174  1.00  0.00    -0.361 N
HETATM   29  C17 UNL     1     -37.976 -12.127 379.280  1.00  0.00     0.006 A
ATOM     30  H6  UNL     1     -37.070 -12.445 377.407  1.00  0.00     0.165 HD
HETATM   31  C18 UNL     1     -37.615 -10.701 379.597  1.00  0.00     0.068 C
HETATM   32  C19 UNL     1     -38.722 -12.990 380.049  1.00  0.00     0.033 A
HETATM   33  C20 UNL     1     -38.820 -14.199 379.401  1.00  0.00    -0.035 A
HETATM   34  C21 UNL     1     -39.525 -15.403 379.867  1.00  0.00     0.050 C
ENDBRANCH   1  27
TORSDOF 8
ENDMDL