MODEL 1
REMARK VINA RESULT: -7.636104725      0.000      0.000
REMARK  7 active torsions:
REMARK  status: ('A' for Active; 'I' for Inactive)
REMARK    1  A    between atoms: N1_2  and  C3_4
REMARK    2  A    between atoms: C3_4  and  C4_5
REMARK    3  A    between atoms: C4_5  and  N2_6
REMARK    4  A    between atoms: N2_6  and  C5_8
REMARK    5  A    between atoms: C8_13  and  C9_14
REMARK    6  A    between atoms: C12_18  and  C13_19
REMARK       I    between atoms: C13_19  and  N4_21
REMARK    7  A    between atoms: N4_21  and  C14_23
ROOT
HETATM    1  C5  UNL     1     -33.808 -13.400 374.479  1.00  0.00     0.069 A
HETATM    2  C6  UNL     1     -34.253 -13.274 375.754  1.00  0.00     0.063 A
HETATM    3  C7  UNL     1     -35.622 -13.351 376.073  1.00  0.00     0.052 A
HETATM    4  N3  UNL     1     -36.126 -13.238 377.261  1.00  0.00    -0.348 N
ATOM      5  H3  UNL     1     -35.516 -13.079 378.064  1.00  0.00     0.166 HD
HETATM    6  C8  UNL     1     -37.433 -13.329 377.427  1.00  0.00     0.093 A
HETATM    7  S2  UNL     1     -37.992 -13.585 375.845  1.00  0.00    -0.069 SA
HETATM    8  C18 UNL     1     -36.484 -13.562 375.031  1.00  0.00     0.036 A
HETATM    9  C19 UNL     1     -36.019 -13.694 373.705  1.00  0.00     0.066 A
HETATM   10  C20 UNL     1     -34.680 -13.611 373.437  1.00  0.00     0.144 A
HETATM   11  F1  UNL     1     -34.226 -13.734 372.189  1.00  0.00    -0.204 F
ENDROOT
BRANCH   6  12
HETATM   12  C9  UNL     1     -38.142 -13.225 378.732  1.00  0.00     0.054 A
HETATM   13  S1  UNL     1     -38.159 -11.848 379.772  1.00  0.00    -0.098 SA
HETATM   14  C10 UNL     1     -39.123 -12.485 381.019  1.00  0.00     0.051 A
HETATM   15  C11 UNL     1     -39.402 -13.745 380.589  1.00  0.00     0.026 A
HETATM   16  C12 UNL     1     -38.889 -14.131 379.393  1.00  0.00     0.052 A
BRANCH  16  17
HETATM   17  C13 UNL     1     -39.193 -15.500 378.866  1.00  0.00     0.253 C
HETATM   18  O1  UNL     1     -38.376 -16.435 378.960  1.00  0.00    -0.268 OA
HETATM   19  N4  UNL     1     -40.441 -15.687 378.268  1.00  0.00    -0.351 N
ATOM     20  H4  UNL     1     -41.054 -14.872 378.224  1.00  0.00     0.163 HD
BRANCH  19  21
HETATM   21  C14 UNL     1     -40.957 -16.917 377.704  1.00  0.00     0.103 C
HETATM   22  C15 UNL     1     -41.540 -17.855 378.757  1.00  0.00     0.028 C
HETATM   23  C16 UNL     1     -42.939 -17.466 378.312  1.00  0.00     0.024 C
HETATM   24  C17 UNL     1     -42.293 -16.893 377.062  1.00  0.00     0.105 C
HETATM   25 CL1  UNL     1     -42.487 -17.998 375.669  1.00  0.00    -0.123 Cl
ENDBRANCH  19  21
ENDBRANCH  16  17
ENDBRANCH   6  12
BRANCH   1  26
HETATM   26  N2  UNL     1     -32.386 -13.278 374.190  1.00  0.00    -0.386 N
ATOM     27  H2  UNL     1     -31.837 -14.133 374.098  1.00  0.00     0.159 HD
BRANCH  26  28
HETATM   28  C4  UNL     1     -31.714 -12.018 374.026  1.00  0.00     0.139 C
BRANCH  28  29
HETATM   29  C3  UNL     1     -31.574 -11.749 372.543  1.00  0.00     0.135 C
BRANCH  29  30
HETATM   30  N1  UNL     1     -32.211 -10.552 372.096  1.00  0.00    -0.419 N
HETATM   31  C1  UNL     1     -33.362 -10.703 371.279  1.00  0.00     0.142 C
HETATM   32  C2  UNL     1     -31.320  -9.485 371.754  1.00  0.00     0.142 C
ENDBRANCH  29  30
ENDBRANCH  28  29
ENDBRANCH  26  28
ENDBRANCH   1  26
TORSDOF 7
ENDMDL