MODEL 2
REMARK VINA RESULT: -7.271833741      2.490      4.444
REMARK  10 active torsions:
REMARK  status: ('A' for Active; 'I' for Inactive)
REMARK    1  A    between atoms: C2_2  and  O1_3
REMARK    2  A    between atoms: O1_3  and  C3_4
REMARK       I    between atoms: C3_4  and  N1_6
REMARK    3  A    between atoms: N1_6  and  O3_7
REMARK    4  A    between atoms: N1_6  and  C4_9
REMARK    5  A    between atoms: C4_9  and  N2_10
REMARK    6  A    between atoms: C4_9  and  C11_19
REMARK    7  A    between atoms: N2_10  and  C5_12
REMARK    8  A    between atoms: C14_22  and  C15_23
REMARK    9  A    between atoms: C15_23  and  C17_26
REMARK       I    between atoms: N3_30  and  C21_31
REMARK   10  A    between atoms: C21_31  and  O5_33
ROOT
HETATM    1  C4  UNL     1     -37.423 -13.661 375.511  1.00  0.00     0.167 C
ENDROOT
BRANCH   1   2
HETATM    2  N1  UNL     1     -38.683 -14.031 374.983  1.00  0.00    -0.147 N
HETATM    3  C3  UNL     1     -39.072 -15.422 374.972  1.00  0.00     0.393 C
HETATM    4  O2  UNL     1     -40.185 -15.792 374.538  1.00  0.00    -0.236 OA
BRANCH   3   5
HETATM    5  O1  UNL     1     -38.217 -16.392 375.451  1.00  0.00    -0.302 OA
BRANCH   5   6
HETATM    6  C2  UNL     1     -38.433 -17.292 376.479  1.00  0.00     0.176 C
HETATM    7  C1  UNL     1     -37.590 -17.154 377.698  1.00  0.00     0.034 C
ENDBRANCH   5   6
ENDBRANCH   3   5
BRANCH   2   8
HETATM    8  O3  UNL     1     -39.542 -13.161 374.491  1.00  0.00    -0.277 OA
ATOM      9  H3  UNL     1     -39.374 -12.242 374.660  1.00  0.00     0.245 HD
ENDBRANCH   2   8
ENDBRANCH   1   2
BRANCH   1  10
HETATM   10  N2  UNL     1     -37.276 -12.753 376.574  1.00  0.00    -0.339 N
ATOM     11  H2  UNL     1     -36.693 -11.953 376.331  1.00  0.00     0.167 HD
BRANCH  10  12
HETATM   12  C5  UNL     1     -37.746 -12.696 377.882  1.00  0.00     0.033 A
HETATM   13  C6  UNL     1     -37.700 -11.525 378.599  1.00  0.00     0.032 A
HETATM   14  C7  UNL     1     -38.199 -11.375 379.873  1.00  0.00     0.044 A
HETATM   15  C8  UNL     1     -38.783 -12.444 380.485  1.00  0.00     0.116 A
HETATM   16  F1  UNL     1     -39.299 -12.323 381.755  1.00  0.00    -0.206 F
HETATM   17  C9  UNL     1     -38.847 -13.633 379.803  1.00  0.00     0.044 A
HETATM   18  C10 UNL     1     -38.329 -13.761 378.501  1.00  0.00     0.032 A
ENDBRANCH  10  12
ENDBRANCH   1  10
BRANCH   1  19
HETATM   19  C11 UNL     1     -36.458 -13.403 374.381  1.00  0.00     0.091 A
HETATM   20  C12 UNL     1     -36.946 -13.111 373.105  1.00  0.00     0.036 A
HETATM   21  C13 UNL     1     -35.895 -12.882 372.257  1.00  0.00     0.031 A
HETATM   22  C14 UNL     1     -34.743 -13.031 373.019  1.00  0.00     0.062 A
HETATM   23  N3  UNL     1     -35.128 -13.350 374.309  1.00  0.00    -0.255 N
HETATM   24  C21 UNL     1     -34.202 -13.535 375.346  1.00  0.00     0.371 C
HETATM   25  O4  UNL     1     -32.954 -13.555 375.152  1.00  0.00    -0.238 OA
BRANCH  22  26
HETATM   26  C15 UNL     1     -33.418 -12.827 372.449  1.00  0.00     0.146 C
HETATM   27  C16 UNL     1     -32.753 -14.141 372.186  1.00  0.00     0.059 C
HETATM   28  F2  UNL     1     -32.580 -11.996 373.183  1.00  0.00    -0.236 F
BRANCH  26  29
HETATM   29  C17 UNL     1     -33.552 -12.137 371.096  1.00  0.00     0.035 A
HETATM   30  C18 UNL     1     -33.326 -10.620 371.171  1.00  0.00     0.013 A
HETATM   31  C19 UNL     1     -32.439 -11.558 370.363  1.00  0.00    -0.010 A
HETATM   32  C20 UNL     1     -30.991 -11.712 370.704  1.00  0.00     0.010 C
ENDBRANCH  26  29
ENDBRANCH  22  26
BRANCH  24  33
HETATM   33  O5  UNL     1     -34.465 -13.714 376.700  1.00  0.00    -0.308 OA
HETATM   34  C22 UNL     1     -34.578 -14.977 377.327  1.00  0.00     0.215 C
ENDBRANCH  24  33
ENDBRANCH   1  19
TORSDOF 10
ENDMDL