MODEL 3
REMARK VINA RESULT: -7.576722282      1.021      1.201
REMARK  8 active torsions:
REMARK  status: ('A' for Active; 'I' for Inactive)
REMARK    1  A    between atoms: O1_2  and  N1_3
REMARK    2  A    between atoms: C2_5  and  C3_6
REMARK    3  A    between atoms: C2_5  and  C19_32
REMARK    4  A    between atoms: C8_13  and  N2_14
REMARK       I    between atoms: N2_14  and  C9_16
REMARK       I    between atoms: C9_16  and  N3_18
REMARK    5  A    between atoms: N3_18  and  C10_20
REMARK    6  A    between atoms: C11_21  and  O3_22
REMARK    7  A    between atoms: C14_25  and  O4_26
REMARK    8  A    between atoms: C17_29  and  O5_30
ROOT
HETATM    1  N2  UNL     1     -39.295 -15.805 378.986  1.00  0.00    -0.308 N
ATOM      2  H2  UNL     1     -38.683 -16.449 379.487  1.00  0.00     0.170 HD
HETATM    3  C9  UNL     1     -40.389 -16.344 378.278  1.00  0.00     0.325 C
HETATM    4  O2  UNL     1     -41.180 -15.662 377.629  1.00  0.00    -0.247 OA
HETATM    5  N3  UNL     1     -40.603 -17.773 378.305  1.00  0.00    -0.304 N
ATOM      6  H3  UNL     1     -39.962 -18.363 378.835  1.00  0.00     0.171 HD
ENDROOT
BRANCH   1   7
HETATM    7  C8  UNL     1     -39.002 -14.435 379.042  1.00  0.00     0.051 A
HETATM    8  C3  UNL     1     -38.295 -13.765 378.041  1.00  0.00     0.019 A
HETATM    9  C4  UNL     1     -37.911 -12.468 378.264  1.00  0.00     0.061 A
HETATM   10  C5  UNL     1     -38.215 -11.801 379.465  1.00  0.00     0.155 A
HETATM   11  F1  UNL     1     -37.802 -10.532 379.597  1.00  0.00    -0.203 F
HETATM   12  C6  UNL     1     -38.904 -12.441 380.438  1.00  0.00     0.157 A
HETATM   13  F2  UNL     1     -39.187 -11.769 381.590  1.00  0.00    -0.203 F
HETATM   14  C7  UNL     1     -39.292 -13.740 380.230  1.00  0.00     0.076 A
BRANCH   8  15
HETATM   15  C2  UNL     1     -38.063 -14.378 376.729  1.00  0.00     0.052 C
HETATM   16  N1  UNL     1     -38.954 -14.229 375.842  1.00  0.00    -0.270 N
ATOM     17  H1  UNL     1     -39.734 -13.679 376.202  1.00  0.00     0.194 HD
BRANCH  16  18
HETATM   18  O1  UNL     1     -39.166 -14.574 374.605  1.00  0.00    -0.285 OA
HETATM   19  C1  UNL     1     -40.068 -15.534 374.156  1.00  0.00     0.237 C
ENDBRANCH  16  18
BRANCH  15  20
HETATM   20  C19 UNL     1     -36.843 -15.140 376.387  1.00  0.00    -0.006 C
HETATM   21  C20 UNL     1     -37.063 -16.633 376.362  1.00  0.00     0.021 C
HETATM   22  C21 UNL     1     -35.703 -14.889 377.358  1.00  0.00     0.021 C
HETATM   23  C22 UNL     1     -36.270 -14.718 375.032  1.00  0.00     0.021 C
ENDBRANCH  15  20
ENDBRANCH   8  15
ENDBRANCH   1   7
BRANCH   5  24
HETATM   24  C10 UNL     1     -41.676 -18.366 377.618  1.00  0.00     0.103 A
HETATM   25  C11 UNL     1     -41.487 -18.781 376.304  1.00  0.00     0.100 A
HETATM   26  C13 UNL     1     -42.555 -19.373 375.616  1.00  0.00     0.076 A
HETATM   27  C14 UNL     1     -43.757 -19.525 376.266  1.00  0.00     0.073 A
HETATM   28  C16 UNL     1     -43.916 -19.105 377.568  1.00  0.00     0.076 A
HETATM   29  C17 UNL     1     -42.881 -18.521 378.261  1.00  0.00     0.100 A
BRANCH  25  30
HETATM   30  O3  UNL     1     -40.249 -18.598 375.707  1.00  0.00    -0.353 OA
HETATM   31  C12 UNL     1     -39.640 -19.726 375.109  1.00  0.00     0.210 C
ENDBRANCH  25  30
BRANCH  27  32
HETATM   32  O4  UNL     1     -44.835 -20.103 375.628  1.00  0.00    -0.356 OA
HETATM   33  C15 UNL     1     -46.041 -20.273 376.307  1.00  0.00     0.210 C
ENDBRANCH  27  32
BRANCH  29  34
HETATM   34  O5  UNL     1     -43.017 -18.095 379.564  1.00  0.00    -0.353 OA
HETATM   35  C18 UNL     1     -44.300 -18.154 380.162  1.00  0.00     0.210 C
ENDBRANCH  29  34
ENDBRANCH   5  24
TORSDOF 8
ENDMDL