MODEL 3
REMARK VINA RESULT: -7.608191697      2.441      5.878
REMARK  9 active torsions:
REMARK  status: ('A' for Active; 'I' for Inactive)
REMARK    1  A    between atoms: O1_2  and  C2_3
REMARK    2  A    between atoms: C4_5  and  C5_6
REMARK    3  A    between atoms: C5_6  and  N2_11
REMARK    4  A    between atoms: N1_7  and  O2_9
REMARK    5  A    between atoms: N2_11  and  C6_13
REMARK    6  A    between atoms: C12_19  and  O3_20
REMARK    7  A    between atoms: O3_20  and  C13_21
REMARK    8  A    between atoms: C19_29  and  O4_30
REMARK    9  A    between atoms: C21_32  and  O5_33
ROOT
HETATM    1  C2  UNL     1     -41.947 -17.120 375.708  1.00  0.00     0.105 A
HETATM    2  C3  UNL     1     -42.566 -16.904 376.906  1.00  0.00     0.058 A
HETATM    3  C4  UNL     1     -41.884 -16.397 378.021  1.00  0.00     0.048 A
HETATM    4  C12 UNL     1     -40.545 -16.114 377.864  1.00  0.00     0.119 A
HETATM    5  C19 UNL     1     -39.898 -16.322 376.664  1.00  0.00     0.139 A
HETATM    6  C21 UNL     1     -40.615 -16.829 375.590  1.00  0.00     0.138 A
ENDROOT
BRANCH   3   7
HETATM    7  C5  UNL     1     -42.658 -16.259 379.238  1.00  0.00     0.134 C
HETATM    8  N1  UNL     1     -42.355 -15.391 380.161  1.00  0.00    -0.252 N
ATOM      9  H1  UNL     1     -41.548 -14.779 380.040  1.00  0.00     0.196 HD
BRANCH   8  10
HETATM   10  O2  UNL     1     -43.129 -15.300 381.307  1.00  0.00    -0.288 OA
ATOM     11  H2  UNL     1     -42.792 -14.852 382.073  1.00  0.00     0.244 HD
ENDBRANCH   8  10
BRANCH   7  12
HETATM   12  N2  UNL     1     -43.834 -17.038 379.445  1.00  0.00    -0.370 N
ATOM     13  H2  UNL     1     -44.746 -16.637 379.229  1.00  0.00     0.161 HD
BRANCH  12  14
HETATM   14  C6  UNL     1     -43.751 -18.402 379.963  1.00  0.00     0.083 C
HETATM   15  C7  UNL     1     -44.929 -18.611 380.904  1.00  0.00     0.025 C
HETATM   16  C8  UNL     1     -45.524 -19.990 380.788  1.00  0.00     0.002 C
HETATM   17  C9  UNL     1     -44.501 -21.075 380.651  1.00  0.00     0.000 C
HETATM   18  C10 UNL     1     -43.614 -20.789 379.473  1.00  0.00     0.002 C
HETATM   19  C11 UNL     1     -43.893 -19.425 378.869  1.00  0.00     0.025 C
ENDBRANCH  12  14
ENDBRANCH   7  12
ENDBRANCH   3   7
BRANCH   4  20
HETATM   20  O3  UNL     1     -39.814 -15.615 378.895  1.00  0.00    -0.342 OA
BRANCH  20  21
HETATM   21  C13 UNL     1     -39.309 -14.371 379.185  1.00  0.00     0.129 C
HETATM   22  C14 UNL     1     -39.547 -13.965 380.617  1.00  0.00     0.038 C
HETATM   23  C15 UNL     1     -39.237 -12.462 380.700  1.00  0.00     0.081 C
HETATM   24  C16 UNL     1     -37.863 -12.119 380.268  1.00  0.00     0.243 C
HETATM   25  F1  UNL     1     -36.916 -12.339 381.277  1.00  0.00    -0.206 F
HETATM   26  F2  UNL     1     -37.819 -10.762 379.990  1.00  0.00    -0.206 F
HETATM   27  C17 UNL     1     -37.413 -12.846 379.026  1.00  0.00     0.081 C
HETATM   28  C18 UNL     1     -37.789 -14.293 379.029  1.00  0.00     0.038 C
ENDBRANCH  20  21
ENDBRANCH   4  20
BRANCH   1  29
HETATM   29  O1  UNL     1     -42.641 -17.629 374.600  1.00  0.00    -0.353 OA
HETATM   30  C1  UNL     1     -43.397 -18.831 374.816  1.00  0.00     0.210 C
ENDBRANCH   1  29
BRANCH   5  31
HETATM   31  O4  UNL     1     -38.565 -16.071 376.396  1.00  0.00    -0.351 OA
HETATM   32  C20 UNL     1     -37.558 -17.059 376.597  1.00  0.00     0.210 C
ENDBRANCH   5  31
BRANCH   6  33
HETATM   33  O5  UNL     1     -39.989 -17.059 374.346  1.00  0.00    -0.351 OA
HETATM   34  C22 UNL     1     -39.766 -15.973 373.447  1.00  0.00     0.210 C
ENDBRANCH   6  33
TORSDOF 9
ENDMDL