MODEL 2
REMARK VINA RESULT: -7.433375824      2.921      8.211
REMARK  8 active torsions:
REMARK  status: ('A' for Active; 'I' for Inactive)
REMARK    1  A    between atoms: C2_2  and  O1_3
REMARK    2  A    between atoms: O1_3  and  N1_4
REMARK    3  A    between atoms: C6_9  and  C7_10
REMARK    4  A    between atoms: C8_13  and  C9_14
REMARK    5  A    between atoms: C12_17  and  N2_18
REMARK       I    between atoms: N2_18  and  C13_20
REMARK       I    between atoms: C13_20  and  N3_22
REMARK    6  A    between atoms: C17_28  and  C18_29
REMARK    7  A    between atoms: C18_29  and  O4_31
REMARK    8  A    between atoms: O4_31  and  C19_32
ROOT
HETATM    1  N1  UNL     1     -36.800 -14.203 375.975  1.00  0.00    -0.274 N
ATOM      2  H1  UNL     1     -37.215 -14.997 375.487  1.00  0.00     0.193 HD
HETATM    3  C3  UNL     1     -37.568 -13.564 376.759  1.00  0.00     0.030 C
HETATM    4  C4  UNL     1     -37.194 -12.408 377.549  1.00  0.00     0.046 C
HETATM    5  C5  UNL     1     -35.821 -11.854 377.263  1.00  0.00     0.017 C
HETATM    6  C6  UNL     1     -37.342 -12.628 379.033  1.00  0.00     0.085 C
HETATM    7  S1  UNL     1     -38.263 -14.074 379.472  1.00  0.00    -0.150 SA
HETATM    8  C8  UNL     1     -38.972 -14.984 378.041  1.00  0.00     0.103 C
HETATM    9  C17 UNL     1     -38.994 -14.055 376.882  1.00  0.00     0.151 C
ENDROOT
BRANCH   8  10
HETATM   10  C9  UNL     1     -40.226 -15.598 378.442  1.00  0.00    -0.004 A
HETATM   11  C10 UNL     1     -41.300 -14.877 378.869  1.00  0.00     0.013 A
HETATM   12  C11 UNL     1     -42.455 -15.507 379.250  1.00  0.00     0.030 A
HETATM   13  C12 UNL     1     -42.607 -16.901 379.227  1.00  0.00     0.039 A
HETATM   14  C15 UNL     1     -41.515 -17.607 378.794  1.00  0.00     0.072 A
HETATM   15  C16 UNL     1     -40.340 -16.965 378.406  1.00  0.00     0.126 A
HETATM   16  F2  UNL     1     -39.308 -17.754 377.990  1.00  0.00    -0.205 F
BRANCH  13  17
HETATM   17  N2  UNL     1     -43.835 -17.474 379.630  1.00  0.00    -0.309 N
HETATM   18  C13 UNL     1     -44.521 -18.553 379.063  1.00  0.00     0.320 C
HETATM   19  O2  UNL     1     -44.151 -19.225 378.070  1.00  0.00    -0.247 OA
HETATM   20  N3  UNL     1     -45.788 -19.001 379.616  1.00  0.00    -0.347 N
HETATM   21  C14 UNL     1     -46.525 -20.106 379.064  1.00  0.00     0.151 C
ATOM     22  H3  UNL     1     -46.169 -18.514 380.426  1.00  0.00     0.163 HD
ATOM     23  H2  UNL     1     -44.280 -17.044 380.441  1.00  0.00     0.170 HD
ENDBRANCH  13  17
ENDBRANCH   8  10
BRANCH   9  24
HETATM   24  C18 UNL     1     -39.353 -14.723 375.603  1.00  0.00     0.270 C
HETATM   25  O3  UNL     1     -39.709 -14.005 374.643  1.00  0.00    -0.264 OA
BRANCH  24  26
HETATM   26  O4  UNL     1     -39.316 -16.084 375.413  1.00  0.00    -0.321 OA
BRANCH  26  27
HETATM   27  C19 UNL     1     -40.247 -16.720 374.548  1.00  0.00     0.174 C
HETATM   28  C20 UNL     1     -41.600 -16.889 375.170  1.00  0.00     0.034 C
ENDBRANCH  26  27
ENDBRANCH  24  26
ENDBRANCH   9  24
BRANCH   6  29
HETATM   29  C7  UNL     1     -37.948 -11.414 379.705  1.00  0.00     0.237 C
HETATM   30  F1  UNL     1     -39.292 -11.564 379.962  1.00  0.00    -0.254 F
ENDBRANCH   6  29
BRANCH   1  31
HETATM   31  O1  UNL     1     -35.501 -13.957 375.711  1.00  0.00    -0.281 OA
BRANCH  31  32
HETATM   32  C2  UNL     1     -34.916 -14.029 374.425  1.00  0.00     0.196 C
HETATM   33  C1  UNL     1     -33.477 -13.589 374.493  1.00  0.00     0.036 C
ENDBRANCH  31  32
ENDBRANCH   1  31
TORSDOF 8
ENDMDL