MODEL 3
REMARK VINA RESULT: -7.832899837      1.279      1.585
REMARK  8 active torsions:
REMARK  status: ('A' for Active; 'I' for Inactive)
REMARK    1  A    between atoms: O1_2  and  C2_3
REMARK    2  A    between atoms: C4_5  and  C5_6
REMARK    3  A    between atoms: C5_6  and  C6_7
REMARK       I    between atoms: C6_7  and  N1_9
REMARK    4  A    between atoms: N1_9  and  C7_11
REMARK    5  A    between atoms: C9_13  and  O3_14
REMARK    6  A    between atoms: N2_16  and  C10_17
REMARK    7  A    between atoms: C19_28  and  O4_29
REMARK    8  A    between atoms: C21_31  and  O5_32
ROOT
HETATM    1  C6  UNL     1     -41.750 -15.471 380.014  1.00  0.00     0.226 C
HETATM    2  O2  UNL     1     -42.306 -14.377 379.766  1.00  0.00    -0.273 OA
HETATM    3  N1  UNL     1     -40.361 -15.598 379.988  1.00  0.00    -0.325 N
ATOM      4  H1  UNL     1     -39.968 -16.515 380.199  1.00  0.00     0.169 HD
ENDROOT
BRANCH   3   5
HETATM    5  C7  UNL     1     -39.454 -14.549 379.691  1.00  0.00     0.061 A
HETATM    6  C8  UNL     1     -39.167 -13.412 380.369  1.00  0.00     0.087 A
HETATM    7  C9  UNL     1     -38.210 -12.739 379.643  1.00  0.00     0.145 A
HETATM    8  N2  UNL     1     -37.885 -13.423 378.519  1.00  0.00    -0.325 N
HETATM    9  C16 UNL     1     -38.640 -14.529 378.544  1.00  0.00     0.037 A
HETATM   10  C17 UNL     1     -38.643 -15.592 377.528  1.00  0.00     0.071 C
BRANCH   7  11
HETATM   11  O3  UNL     1     -37.656 -11.522 380.013  1.00  0.00    -0.346 OA
ATOM     12  H3  UNL     1     -37.225 -11.359 380.843  1.00  0.00     0.219 HD
ENDBRANCH   7  11
BRANCH   8  13
HETATM   13  C10 UNL     1     -36.910 -13.026 377.507  1.00  0.00     0.092 C
HETATM   14  C11 UNL     1     -37.460 -13.125 376.140  1.00  0.00     0.032 C
HETATM   15  C12 UNL     1     -36.372 -12.675 375.173  1.00  0.00     0.081 C
HETATM   16  C13 UNL     1     -35.314 -13.759 375.268  1.00  0.00     0.243 C
HETATM   17  F1  UNL     1     -35.854 -14.965 374.850  1.00  0.00    -0.206 F
HETATM   18  F2  UNL     1     -34.340 -13.432 374.318  1.00  0.00    -0.206 F
HETATM   19  C14 UNL     1     -34.696 -13.877 376.621  1.00  0.00     0.081 C
HETATM   20  C15 UNL     1     -35.582 -13.632 377.770  1.00  0.00     0.032 C
ENDBRANCH   8  13
ENDBRANCH   3   5
BRANCH   1  21
HETATM   21  C5  UNL     1     -42.644 -16.623 380.337  1.00  0.00     0.141 C
BRANCH  21  22
HETATM   22  C4  UNL     1     -42.720 -17.584 379.206  1.00  0.00    -0.044 A
HETATM   23  C3  UNL     1     -42.890 -18.930 379.386  1.00  0.00     0.047 A
HETATM   24  C2  UNL     1     -42.955 -19.789 378.320  1.00  0.00     0.104 A
HETATM   25  C21 UNL     1     -42.850 -19.323 377.030  1.00  0.00     0.135 A
HETATM   26  C19 UNL     1     -42.678 -17.965 376.835  1.00  0.00     0.104 A
HETATM   27  C18 UNL     1     -42.614 -17.108 377.916  1.00  0.00     0.047 A
BRANCH  24  28
HETATM   28  O1  UNL     1     -43.127 -21.141 378.541  1.00  0.00    -0.353 OA
HETATM   29  C1  UNL     1     -42.480 -21.789 379.613  1.00  0.00     0.210 C
ENDBRANCH  24  28
BRANCH  25  30
HETATM   30  O5  UNL     1     -42.915 -20.191 375.930  1.00  0.00    -0.351 OA
HETATM   31  C22 UNL     1     -41.761 -20.823 375.424  1.00  0.00     0.210 C
ENDBRANCH  25  30
BRANCH  26  32
HETATM   32  O4  UNL     1     -42.570 -17.471 375.544  1.00  0.00    -0.353 OA
HETATM   33  C20 UNL     1     -41.341 -16.948 375.085  1.00  0.00     0.210 C
ENDBRANCH  26  32
ENDBRANCH  21  22
ENDBRANCH   1  21
TORSDOF 8
ENDMDL