MODEL 2
REMARK VINA RESULT: -7.755379102      4.525      9.227
REMARK  8 active torsions:
REMARK  status: ('A' for Active; 'I' for Inactive)
REMARK    1  A    between atoms: C2_2  and  O1_3
REMARK    2  A    between atoms: N1_8  and  C6_9
REMARK    3  A    between atoms: C6_9  and  C7_10
REMARK    4  A    between atoms: C7_10  and  C8_11
REMARK    5  A    between atoms: C8_11  and  C9_12
REMARK    6  A    between atoms: C9_12  and  C10_13
REMARK    7  A    between atoms: C10_13  and  C11_14
REMARK    8  A    between atoms: C11_14  and  N2_15
ROOT
HETATM    1  C10 UNL     1     -36.540 -13.153 378.462  1.00  0.00     0.020 C
ENDROOT
BRANCH   1   2
HETATM    2  C9  UNL     1     -35.677 -13.079 377.234  1.00  0.00     0.002 C
BRANCH   2   3
HETATM    3  C8  UNL     1     -34.764 -14.232 377.016  1.00  0.00     0.002 C
BRANCH   3   4
HETATM    4  C7  UNL     1     -33.957 -13.968 375.754  1.00  0.00     0.030 C
BRANCH   4   5
HETATM    5  C6  UNL     1     -34.803 -13.649 374.562  1.00  0.00     0.276 C
BRANCH   5   6
HETATM    6  N1  UNL     1     -34.099 -13.709 373.300  1.00  0.00     0.125 N
HETATM    7  C5  UNL     1     -32.669 -13.820 373.480  1.00  0.00     0.276 C
HETATM    8  C4  UNL     1     -32.028 -13.850 372.110  1.00  0.00     0.033 C
HETATM    9  C3  UNL     1     -32.422 -12.668 371.258  1.00  0.00     0.044 C
HETATM   10  C2  UNL     1     -33.360 -11.746 371.993  1.00  0.00     0.113 C
HETATM   11  C1  UNL     1     -33.944 -10.790 370.956  1.00  0.00     0.051 C
HETATM   12  C21 UNL     1     -34.496 -12.541 372.544  1.00  0.00     0.438 C
HETATM   13  F1  UNL     1     -35.265 -12.981 371.481  1.00  0.00    -0.213 F
BRANCH  10  14
HETATM   14  O1  UNL     1     -32.705 -10.962 372.939  1.00  0.00    -0.385 OA
ATOM     15  H1  UNL     1     -31.809 -11.274 372.980  1.00  0.00     0.210 HD
ENDBRANCH  10  14
ENDBRANCH   5   6
ENDBRANCH   4   5
ENDBRANCH   3   4
ENDBRANCH   2   3
ENDBRANCH   1   2
BRANCH   1  16
HETATM   16  C11 UNL     1     -37.968 -12.977 378.085  1.00  0.00     0.126 C
BRANCH  16  17
HETATM   17  N2  UNL     1     -38.803 -14.119 378.407  1.00  0.00    -0.344 N
HETATM   18  C12 UNL     1     -39.771 -14.236 379.484  1.00  0.00     0.100 A
HETATM   19  C13 UNL     1     -40.036 -13.551 380.640  1.00  0.00     0.118 A
HETATM   20  C15 UNL     1     -40.545 -15.288 379.198  1.00  0.00     0.129 A
HETATM   21  N3  UNL     1     -39.380 -12.402 381.187  1.00  0.00    -0.092 NA
HETATM   22  S1  UNL     1     -41.371 -14.410 381.292  1.00  0.00    -0.058 SA
HETATM   23  C14 UNL     1     -41.546 -15.597 380.087  1.00  0.00     0.112 A
HETATM   24 CL1  UNL     1     -42.740 -16.895 380.041  1.00  0.00    -0.073 Cl
HETATM   25  O2  UNL     1     -40.117 -15.855 377.973  1.00  0.00    -0.315 OA
HETATM   26  C16 UNL     1     -38.814 -15.348 377.677  1.00  0.00     0.143 C
HETATM   27  C17 UNL     1     -38.696 -15.238 376.201  1.00  0.00     0.062 C
HETATM   28  C20 UNL     1     -37.848 -16.394 378.153  1.00  0.00     0.062 C
HETATM   29  C18 UNL     1     -37.581 -16.193 375.771  1.00  0.00     0.005 C
HETATM   30  C19 UNL     1     -37.608 -17.206 376.900  1.00  0.00     0.005 C
ENDBRANCH  16  17
ENDBRANCH   1  16
TORSDOF 8
ENDMDL