MODEL 2
REMARK VINA RESULT: -7.002533861      1.321      2.111
REMARK  7 active torsions:
REMARK  status: ('A' for Active; 'I' for Inactive)
REMARK    1  A    between atoms: O1_2  and  C2_3
REMARK    2  A    between atoms: C4_5  and  N1_6
REMARK    3  A    between atoms: N1_6  and  C5_7
REMARK    4  A    between atoms: C14_21  and  C15_22
REMARK    5  A    between atoms: C15_22  and  C16_23
REMARK    6  A    between atoms: C23_31  and  O2_32
REMARK    7  A    between atoms: C25_34  and  O3_35
ROOT
HETATM    1  C16 UNL     1      24.258 -30.818   2.375  1.00  0.00     0.128 C
HETATM    2  C17 UNL     1      23.633 -30.825   1.044  1.00  0.00     0.059 C
HETATM    3  N4  UNL     1      23.145 -30.848   0.001  1.00  0.00    -0.197 NA
ENDROOT
BRANCH   1   4
HETATM    4  C15 UNL     1      25.756 -30.659   2.161  1.00  0.00     0.055 C
BRANCH   4   5
HETATM    5  C14 UNL     1      26.480 -31.056   3.398  1.00  0.00    -0.027 A
HETATM    6  C13 UNL     1      26.735 -30.152   4.408  1.00  0.00     0.068 A
HETATM    7  C12 UNL     1      27.415 -30.511   5.577  1.00  0.00     0.069 A
HETATM    8 CL2  UNL     1      26.213 -28.491   4.255  1.00  0.00    -0.081 Cl
HETATM    9  N3  UNL     1      27.652 -29.617   6.554  1.00  0.00    -0.353 N
HETATM   10  C21 UNL     1      27.851 -31.800   5.739  1.00  0.00     0.035 A
HETATM   11  C11 UNL     1      28.292 -29.902   7.694  1.00  0.00     0.048 A
ATOM     12  H3  UNL     1      27.321 -28.662   6.417  1.00  0.00     0.166 HD
HETATM   13  C6  UNL     1      28.744 -31.181   7.896  1.00  0.00     0.034 A
HETATM   14  C10 UNL     1      28.511 -28.938   8.679  1.00  0.00     0.056 A
HETATM   15  C5  UNL     1      28.533 -32.172   6.913  1.00  0.00     0.132 A
HETATM   16  C7  UNL     1      29.400 -31.484   9.062  1.00  0.00     0.045 A
HETATM   17  C8  UNL     1      29.630 -30.552  10.052  1.00  0.00     0.069 A
HETATM   18  N2  UNL     1      30.313 -30.947  11.235  1.00  0.00    -0.101 NA
HETATM   19  C9  UNL     1      29.169 -29.265   9.839  1.00  0.00     0.060 A
HETATM   20 CL1  UNL     1      29.424 -28.030  11.047  1.00  0.00    -0.082 Cl
HETATM   21  C20 UNL     1      27.600 -32.726   4.728  1.00  0.00     0.024 A
HETATM   22  C18 UNL     1      26.927 -32.364   3.577  1.00  0.00    -0.053 A
HETATM   23  C19 UNL     1      26.642 -33.333   2.482  1.00  0.00     0.049 C
BRANCH  15  24
HETATM   24  N1  UNL     1      28.931 -33.271   7.055  1.00  0.00    -0.404 NA
BRANCH  24  25
HETATM   25  C4  UNL     1      29.362 -34.489   7.314  1.00  0.00     0.113 A
HETATM   26  C3  UNL     1      30.407 -35.142   6.644  1.00  0.00     0.084 A
HETATM   27  C2  UNL     1      30.833 -36.409   6.945  1.00  0.00     0.107 A
HETATM   28  C25 UNL     1      30.216 -37.098   7.963  1.00  0.00     0.135 A
HETATM   29  C23 UNL     1      29.183 -36.519   8.662  1.00  0.00     0.107 A
HETATM   30  C22 UNL     1      28.766 -35.244   8.346  1.00  0.00     0.084 A
BRANCH  27  31
HETATM   31  O1  UNL     1      31.865 -37.013   6.259  1.00  0.00    -0.353 OA
HETATM   32  C1  UNL     1      33.072 -36.351   5.931  1.00  0.00     0.210 C
ENDBRANCH  27  31
BRANCH  28  33
HETATM   33  O3  UNL     1      30.609 -38.390   8.314  1.00  0.00    -0.351 OA
HETATM   34  C26 UNL     1      31.658 -38.667   9.189  1.00  0.00     0.210 C
ENDBRANCH  28  33
BRANCH  29  35
HETATM   35  O2  UNL     1      28.609 -37.273   9.669  1.00  0.00    -0.353 OA
HETATM   36  C24 UNL     1      28.607 -36.896  10.998  1.00  0.00     0.210 C
ENDBRANCH  29  35
ENDBRANCH  24  25
ENDBRANCH  15  24
ENDBRANCH   4   5
ENDBRANCH   1   4
TORSDOF 7
ENDMDL