MODEL 1
REMARK VINA RESULT: -7.453110827      0.000      0.000
REMARK  8 active torsions:
REMARK  status: ('A' for Active; 'I' for Inactive)
REMARK    1  A    between atoms: C2_2  and  C3_3
REMARK    2  A    between atoms: C3_3  and  N1_5
REMARK    3  A    between atoms: N1_5  and  C5_7
REMARK    4  A    between atoms: C9_13  and  N3_14
REMARK    5  A    between atoms: N3_14  and  C10_16
REMARK    6  A    between atoms: C16_23  and  O1_24
REMARK    7  A    between atoms: O1_24  and  C17_25
REMARK    8  A    between atoms: C21_33  and  O2_34
ROOT
HETATM    1  C10 UNL     1      25.309 -30.788   3.355  1.00  0.00     0.070 A
HETATM    2  C11 UNL     1      24.525 -30.358   2.313  1.00  0.00     0.039 A
HETATM    3  C12 UNL     1      24.497 -31.054   1.126  1.00  0.00    -0.058 A
HETATM    4  C13 UNL     1      23.638 -30.561   0.018  1.00  0.00     0.048 C
HETATM    5  C14 UNL     1      25.272 -32.189   1.010  1.00  0.00     0.033 A
HETATM    6  C15 UNL     1      26.075 -32.631   2.071  1.00  0.00     0.070 A
HETATM    7 CL1  UNL     1      26.972 -34.087   1.788  1.00  0.00    -0.081 Cl
HETATM    8  C16 UNL     1      26.120 -31.949   3.268  1.00  0.00     0.126 A
ENDROOT
BRANCH   1   9
HETATM    9  N3  UNL     1      25.229 -30.070   4.575  1.00  0.00    -0.340 N
ATOM     10  H3  UNL     1      24.373 -30.118   5.128  1.00  0.00     0.167 HD
BRANCH   9  11
HETATM   11  C9  UNL     1      26.213 -29.361   4.999  1.00  0.00     0.123 A
HETATM   12  C8  UNL     1      26.509 -29.349   6.354  1.00  0.00     0.074 A
HETATM   13  C6  UNL     1      27.565 -28.588   6.808  1.00  0.00     0.026 A
HETATM   14  N2  UNL     1      28.319 -27.855   5.971  1.00  0.00    -0.196 N
HETATM   15  C7  UNL     1      27.829 -28.619   8.276  1.00  0.00     0.069 C
HETATM   16  C5  UNL     1      28.048 -27.856   4.663  1.00  0.00     0.680 A
ATOM     17  H2  UNL     1      29.094 -27.300   6.333  1.00  0.00     0.184 HD
HETATM   18  N6  UNL     1      26.983 -28.625   4.216  1.00  0.00    -0.177 N
ATOM     19  H6  UNL     1      26.779 -28.622   3.216  1.00  0.00     0.186 HD
BRANCH  16  20
HETATM   20  N1  UNL     1      28.694 -27.205   3.795  1.00  0.00    -0.222 N
ATOM     21  H1  UNL     1      28.126 -26.640   3.164  1.00  0.00     0.178 HD
BRANCH  20  22
HETATM   22  C3  UNL     1      30.076 -27.142   3.570  1.00  0.00     0.095 C
HETATM   23  C4  UNL     1      30.578 -27.715   2.285  1.00  0.00     0.032 C
BRANCH  22  24
HETATM   24  C2  UNL     1      30.604 -25.733   3.780  1.00  0.00     0.021 C
HETATM   25  C1  UNL     1      29.695 -24.770   3.041  1.00  0.00     0.007 C
ENDBRANCH  22  24
ENDBRANCH  20  22
ENDBRANCH  16  20
ENDBRANCH   9  11
ENDBRANCH   1   9
BRANCH   8  26
HETATM   26  O1  UNL     1      26.895 -32.353   4.297  1.00  0.00    -0.289 OA
BRANCH  26  27
HETATM   27  C17 UNL     1      28.236 -32.336   4.464  1.00  0.00     0.161 A
HETATM   28  N4  UNL     1      28.956 -31.305   3.875  1.00  0.00    -0.332 N
HETATM   29  C18 UNL     1      30.267 -31.170   3.959  1.00  0.00     0.182 A
ATOM     30  H4  UNL     1      28.438 -30.606   3.343  1.00  0.00     0.168 HD
HETATM   31  N5  UNL     1      30.995 -32.063   4.647  1.00  0.00    -0.351 N
HETATM   32  C19 UNL     1      30.412 -33.108   5.261  1.00  0.00     0.050 A
ATOM     33  H5  UNL     1      32.007 -31.947   4.705  1.00  0.00     0.166 HD
HETATM   34  C20 UNL     1      31.196 -34.022   5.968  1.00  0.00     0.069 A
HETATM   35  C25 UNL     1      29.029 -33.221   5.154  1.00  0.00     0.044 A
HETATM   36  C21 UNL     1      30.614 -35.088   6.593  1.00  0.00     0.092 A
HETATM   37  C23 UNL     1      29.250 -35.202   6.489  1.00  0.00     0.068 A
HETATM   38 CL2  UNL     1      28.454 -36.563   7.280  1.00  0.00    -0.081 Cl
HETATM   39  C24 UNL     1      28.465 -34.303   5.793  1.00  0.00     0.045 A
BRANCH  36  40
HETATM   40  O2  UNL     1      31.316 -36.041   7.314  1.00  0.00    -0.354 OA
HETATM   41  C22 UNL     1      32.076 -37.069   6.764  1.00  0.00     0.210 C
ENDBRANCH  36  40
ENDBRANCH  26  27
ENDBRANCH   8  26
TORSDOF 8
ENDMDL