MODEL 5
REMARK VINA RESULT: -7.034642936      4.350     10.330
REMARK  9 active torsions:
REMARK  status: ('A' for Active; 'I' for Inactive)
REMARK    1  A    between atoms: O1_2  and  C2_3
REMARK    2  A    between atoms: C5_6  and  N1_7
REMARK    3  A    between atoms: C9_17  and  C10_18
REMARK    4  A    between atoms: C11_19  and  C12_20
REMARK    5  A    between atoms: C12_20  and  C13_21
REMARK    6  A    between atoms: C13_21  and  C14_22
REMARK    7  A    between atoms: C14_22  and  N4_23
REMARK    8  A    between atoms: C15_24  and  N5_25
REMARK    9  A    between atoms: N5_25  and  C17_27
ROOT
HETATM    1  C12 UNL     1      29.822 -28.724   8.793  1.00  0.00     0.096 C
ENDROOT
BRANCH   1   2
HETATM    2  C11 UNL     1      29.729 -28.535  10.232  1.00  0.00    -0.101 C
HETATM    3  C10 UNL     1      29.658 -28.357  11.420  1.00  0.00    -0.064 C
BRANCH   3   4
HETATM    4  C9  UNL     1      29.591 -28.130  12.827  1.00  0.00     0.053 A
HETATM    5  C2  UNL     1      30.421 -27.192  13.417  1.00  0.00     0.088 A
HETATM    6  C3  UNL     1      30.351 -26.978  14.769  1.00  0.00     0.055 A
HETATM    7  C4  UNL     1      29.473 -27.673  15.550  1.00  0.00     0.037 A
HETATM    8  C5  UNL     1      29.372 -27.484  16.924  1.00  0.00     0.112 A
HETATM    9  C7  UNL     1      28.655 -28.602  14.940  1.00  0.00     0.048 A
HETATM   10  N2  UNL     1      28.467 -28.229  17.597  1.00  0.00    -0.338 N
HETATM   11  C6  UNL     1      27.687 -29.120  16.985  1.00  0.00     0.182 A
ATOM     12  H2  UNL     1      28.377 -28.104  18.606  1.00  0.00     0.168 HD
HETATM   13  N3  UNL     1      27.784 -29.301  15.669  1.00  0.00    -0.351 N
ATOM     14  H3  UNL     1      27.182 -29.987  15.212  1.00  0.00     0.166 HD
HETATM   15  C8  UNL     1      28.692 -28.852  13.577  1.00  0.00     0.054 A
BRANCH   5  16
HETATM   16  O1  UNL     1      31.303 -26.500  12.600  1.00  0.00    -0.354 OA
HETATM   17  C1  UNL     1      32.638 -26.937  12.435  1.00  0.00     0.210 C
ENDBRANCH   5  16
BRANCH   8  18
HETATM   18  N1  UNL     1      30.104 -26.640  17.518  1.00  0.00    -0.385 N
ATOM     19  H12 UNL     1      30.908 -26.216  17.057  1.00  0.00     0.157 HD
ATOM     20  H11 UNL     1      29.906 -26.363  18.479  1.00  0.00     0.157 HD
ENDBRANCH   8  18
ENDBRANCH   3   4
ENDBRANCH   1   2
BRANCH   1  21
HETATM   21  C13 UNL     1      29.818 -30.145   8.407  1.00  0.00     0.033 C
BRANCH  21  22
HETATM   22  C14 UNL     1      28.573 -30.922   8.377  1.00  0.00     0.149 C
BRANCH  22  23
HETATM   23  N4  UNL     1      28.322 -31.776   7.255  1.00  0.00    -0.181 N
HETATM   24  C15 UNL     1      27.948 -31.323   6.019  1.00  0.00     0.683 A
HETATM   25  N6  UNL     1      27.848 -32.436   5.252  1.00  0.00    -0.189 N
HETATM   26  C20 UNL     1      28.137 -33.541   5.934  1.00  0.00     0.078 A
ATOM     27  H6  UNL     1      27.582 -32.426   4.267  1.00  0.00     0.184 HD
HETATM   28  C21 UNL     1      28.191 -34.885   5.599  1.00  0.00     0.058 A
HETATM   29  C25 UNL     1      28.442 -33.109   7.217  1.00  0.00     0.080 A
HETATM   30  C22 UNL     1      28.551 -35.843   6.527  1.00  0.00     0.058 A
HETATM   31 CL1  UNL     1      28.611 -37.537   6.078  1.00  0.00    -0.082 Cl
HETATM   32  C23 UNL     1      28.862 -35.449   7.811  1.00  0.00     0.058 A
HETATM   33 CL2  UNL     1      29.318 -36.672   8.977  1.00  0.00    -0.082 Cl
HETATM   34  C24 UNL     1      28.800 -34.112   8.117  1.00  0.00     0.058 A
BRANCH  24  35
HETATM   35  N5  UNL     1      27.717 -29.994   5.569  1.00  0.00    -0.218 N
HETATM   36  C16 UNL     1      28.780 -29.218   4.995  1.00  0.00     0.169 C
BRANCH  35  37
HETATM   37  C17 UNL     1      26.397 -29.432   5.647  1.00  0.00     0.093 C
HETATM   38  C18 UNL     1      26.263 -28.555   4.384  1.00  0.00     0.032 C
HETATM   39  C19 UNL     1      26.278 -28.469   6.823  1.00  0.00     0.032 C
ENDBRANCH  35  37
ENDBRANCH  24  35
ENDBRANCH  22  23
ENDBRANCH  21  22
ENDBRANCH   1  21
TORSDOF 9
ENDMDL