MODEL 3
REMARK VINA RESULT: -7.622481962      1.419      1.973
REMARK  8 active torsions:
REMARK  status: ('A' for Active; 'I' for Inactive)
REMARK    1  A    between atoms: C2_2  and  C3_3
REMARK    2  A    between atoms: N1_5  and  C5_6
REMARK    3  A    between atoms: C5_6  and  C6_7
REMARK    4  A    between atoms: C7_9  and  C8_10
REMARK    5  A    between atoms: C11_14  and  O2_15
REMARK    6  A    between atoms: C12_17  and  C13_18
REMARK    7  A    between atoms: C15_22  and  C16_23
REMARK    8  A    between atoms: C16_23  and  O5_25
ROOT
HETATM    1  C6  UNL     1      27.624 -28.614   4.493  1.00  0.00     0.079 A
HETATM    2  O1  UNL     1      28.405 -28.346   3.511  1.00  0.00    -0.311 OA
HETATM    3  C7  UNL     1      29.506 -27.680   3.864  1.00  0.00     0.103 A
HETATM    4  C15 UNL     1      29.430 -27.497   5.217  1.00  0.00     0.082 A
HETATM    5  C18 UNL     1      28.221 -28.098   5.610  1.00  0.00    -0.011 A
HETATM    6  C19 UNL     1      27.757 -28.138   7.017  1.00  0.00     0.052 C
ENDROOT
BRANCH   1   7
HETATM    7  C5  UNL     1      26.322 -29.331   4.488  1.00  0.00     0.194 C
BRANCH   7   8
HETATM    8  N1  UNL     1      26.359 -30.658   3.962  1.00  0.00    -0.349 N
HETATM    9  C4  UNL     1      25.903 -31.202   2.818  1.00  0.00     0.099 A
HETATM   10  C3  UNL     1      26.164 -32.552   2.761  1.00  0.00    -0.030 A
HETATM   11  C26 UNL     1      26.817 -32.830   3.943  1.00  0.00     0.000 A
HETATM   12  C20 UNL     1      26.940 -31.673   4.684  1.00  0.00     0.046 A
HETATM   13  C25 UNL     1      27.335 -34.003   4.477  1.00  0.00     0.038 A
HETATM   14  C21 UNL     1      27.565 -31.730   5.910  1.00  0.00     0.039 A
HETATM   15  C22 UNL     1      28.081 -32.902   6.442  1.00  0.00    -0.038 A
HETATM   16  C23 UNL     1      28.749 -32.879   7.792  1.00  0.00     0.050 C
HETATM   17  C24 UNL     1      27.959 -34.043   5.707  1.00  0.00     0.041 A
HETATM   18 CL2  UNL     1      28.605 -35.534   6.363  1.00  0.00    -0.084 Cl
BRANCH  10  19
HETATM   19  C2  UNL     1      25.828 -33.532   1.676  1.00  0.00     0.036 C
HETATM   20  C1  UNL     1      24.626 -33.067   0.888  1.00  0.00     0.010 C
ENDBRANCH  10  19
ENDBRANCH   7   8
ENDBRANCH   1   7
BRANCH   3  21
HETATM   21  C8  UNL     1      30.521 -27.280   2.892  1.00  0.00     0.002 A
HETATM   22  C9  UNL     1      30.786 -25.933   2.739  1.00  0.00     0.041 A
HETATM   23  C10 UNL     1      31.723 -25.451   1.853  1.00  0.00     0.069 A
HETATM   24 CL1  UNL     1      32.038 -23.741   1.681  1.00  0.00    -0.081 Cl
HETATM   25  C11 UNL     1      32.448 -26.314   1.067  1.00  0.00     0.102 A
HETATM   26  C12 UNL     1      32.192 -27.649   1.214  1.00  0.00     0.065 A
HETATM   27  C14 UNL     1      31.233 -28.145   2.120  1.00  0.00     0.033 A
BRANCH  25  28
HETATM   28  O2  UNL     1      33.405 -25.834   0.161  1.00  0.00    -0.358 OA
ATOM     29  H2  UNL     1      33.356 -24.949  -0.178  1.00  0.00     0.217 HD
ENDBRANCH  25  28
BRANCH  26  30
HETATM   30  C13 UNL     1      32.949 -28.586   0.402  1.00  0.00     0.267 C
HETATM   31  N2  UNL     1      34.347 -28.763   0.537  1.00  0.00    -0.057 NA
HETATM   32  O3  UNL     1      32.344 -29.272  -0.457  1.00  0.00    -0.271 OA
ENDBRANCH  26  30
ENDBRANCH   3  21
BRANCH   4  33
HETATM   33  C16 UNL     1      30.360 -26.846   6.114  1.00  0.00     0.296 C
HETATM   34  O4  UNL     1      31.296 -27.580   6.587  1.00  0.00    -0.259 OA
BRANCH  33  35
HETATM   35  O5  UNL     1      30.292 -25.502   6.482  1.00  0.00    -0.322 OA
HETATM   36  C17 UNL     1      31.301 -25.043   7.394  1.00  0.00     0.213 C
ENDBRANCH  33  35
ENDBRANCH   4  33
TORSDOF 8
ENDMDL