MODEL 3
REMARK VINA RESULT: -7.476943286      1.359      1.498
REMARK  9 active torsions:
REMARK  status: ('A' for Active; 'I' for Inactive)
REMARK    1  A    between atoms: C3_3  and  O1_4
REMARK    2  A    between atoms: C7_9  and  C8_10
REMARK    3  A    between atoms: C8_10  and  C9_11
REMARK    4  A    between atoms: C9_11  and  C10_12
REMARK    5  A    between atoms: C10_12  and  O2_15
REMARK    6  A    between atoms: C15_19  and  O4_20
REMARK    7  A    between atoms: O4_20  and  C16_21
REMARK    8  A    between atoms: C16_21  and  C17_23
REMARK    9  A    between atoms: C20_27  and  O6_28
ROOT
HETATM    1  C1  UNL     1      24.862 -30.392   2.537  1.00  0.00     0.017 C
HETATM    2  C2  UNL     1      26.053 -30.966   2.744  1.00  0.00    -0.054 C
HETATM    3  C3  UNL     1      26.226 -32.306   2.141  1.00  0.00     0.148 C
HETATM    4  C4  UNL     1      26.340 -33.316   3.273  1.00  0.00     0.052 C
HETATM    5  C5  UNL     1      27.267 -32.736   4.296  1.00  0.00     0.012 C
HETATM    6  C6  UNL     1      27.817 -33.886   5.103  1.00  0.00     0.018 C
HETATM    7  C7  UNL     1      29.092 -33.621   5.312  1.00  0.00     0.044 C
HETATM    8  O3  UNL     1      29.473 -32.419   4.736  1.00  0.00    -0.347 OA
HETATM    9  C14 UNL     1      28.512 -32.164   3.723  1.00  0.00     0.171 C
HETATM   10  C15 UNL     1      28.439 -30.739   3.307  1.00  0.00     0.171 C
HETATM   11  C23 UNL     1      27.032 -30.176   3.546  1.00  0.00     0.052 C
HETATM   12  C24 UNL     1      26.770 -30.387   5.038  1.00  0.00    -0.007 C
HETATM   13  C25 UNL     1      25.686 -29.507   5.561  1.00  0.00     0.011 C
HETATM   14  C26 UNL     1      26.561 -31.841   5.276  1.00  0.00     0.021 C
ENDROOT
BRANCH  10  15
HETATM   15  O4  UNL     1      28.818 -30.528   1.962  1.00  0.00    -0.309 OA
BRANCH  15  16
HETATM   16  C16 UNL     1      29.972 -29.864   1.658  1.00  0.00     0.293 C
HETATM   17  O5  UNL     1      30.602 -30.065   0.591  1.00  0.00    -0.259 OA
BRANCH  16  18
HETATM   18  C17 UNL     1      30.523 -28.873   2.591  1.00  0.00     0.043 A
HETATM   19  C18 UNL     1      31.516 -29.229   3.500  1.00  0.00     0.044 A
HETATM   20  C19 UNL     1      32.034 -28.312   4.372  1.00  0.00     0.069 A
HETATM   21 CL1  UNL     1      33.279 -28.774   5.508  1.00  0.00    -0.081 Cl
HETATM   22  C20 UNL     1      31.575 -27.021   4.356  1.00  0.00     0.109 A
HETATM   23  C21 UNL     1      30.585 -26.611   3.469  1.00  0.00     0.069 A
HETATM   24 CL2  UNL     1      29.997 -24.964   3.446  1.00  0.00    -0.081 Cl
HETATM   25  C22 UNL     1      30.094 -27.568   2.612  1.00  0.00     0.044 A
BRANCH  22  26
HETATM   26  O6  UNL     1      32.092 -26.097   5.229  1.00  0.00    -0.357 OA
ATOM     27  H6  UNL     1      32.509 -25.311   4.898  1.00  0.00     0.217 HD
ENDBRANCH  22  26
ENDBRANCH  16  18
ENDBRANCH  15  16
ENDBRANCH  10  15
BRANCH   7  28
HETATM   28  C8  UNL     1      30.026 -34.514   6.080  1.00  0.00     0.067 C
BRANCH  28  29
HETATM   29  C9  UNL     1      29.210 -35.142   7.154  1.00  0.00     0.043 C
BRANCH  29  30
HETATM   30  C10 UNL     1      29.418 -36.585   7.414  1.00  0.00     0.053 C
HETATM   31  C11 UNL     1      28.702 -36.939   8.695  1.00  0.00     0.045 C
HETATM   32  C12 UNL     1      28.551 -37.299   6.309  1.00  0.00     0.045 C
BRANCH  30  33
HETATM   33  O2  UNL     1      30.650 -37.053   7.228  1.00  0.00    -0.386 OA
HETATM   34  C13 UNL     1      30.919 -38.218   6.607  1.00  0.00     0.202 C
ENDBRANCH  30  33
ENDBRANCH  29  30
ENDBRANCH  28  29
ENDBRANCH   7  28
BRANCH   3  35
HETATM   35  O1  UNL     1      25.182 -32.616   1.297  1.00  0.00    -0.391 OA
ATOM     36  H1  UNL     1      24.895 -33.514   1.417  1.00  0.00     0.210 HD
ENDBRANCH   3  35
TORSDOF 9
ENDMDL