MODEL 4
REMARK VINA RESULT: -5.875428604     13.910     16.179
REMARK  6 active torsions:
REMARK  status: ('A' for Active; 'I' for Inactive)
REMARK    1  A    between atoms: C2_2  and  C3_3
REMARK    2  A    between atoms: C7_9  and  O1_10
REMARK    3  A    between atoms: O1_10  and  C8_11
REMARK       I    between atoms: C8_11  and  N1_13
REMARK    4  A    between atoms: C10_16  and  N2_17
REMARK    5  A    between atoms: N2_17  and  S1_19
REMARK    6  A    between atoms: S1_19  and  C11_22
ROOT
HETATM    1  C3  UNL     1      30.779 -29.028  20.690  1.00  0.00    -0.006 A
HETATM    2  C4  UNL     1      32.155 -29.035  20.783  1.00  0.00     0.044 A
HETATM    3 CL1  UNL     1      33.057 -30.560  20.840  1.00  0.00    -0.084 Cl
HETATM    4  C5  UNL     1      32.798 -27.827  20.831  1.00  0.00     0.051 A
HETATM    5  C6  UNL     1      32.107 -26.636  20.788  1.00  0.00     0.072 A
HETATM    6 CL2  UNL     1      32.973 -25.097  20.820  1.00  0.00    -0.081 Cl
HETATM    7  C7  UNL     1      30.709 -26.612  20.696  1.00  0.00     0.130 A
HETATM    8  C10 UNL     1      30.049 -27.816  20.647  1.00  0.00     0.086 A
ENDROOT
BRANCH   8   9
HETATM    9  N2  UNL     1      28.667 -27.847  20.327  1.00  0.00    -0.277 N
ATOM     10  H2  UNL     1      28.110 -27.999  21.168  1.00  0.00     0.179 HD
BRANCH   9  11
HETATM   11  S1  UNL     1      27.696 -27.710  19.014  1.00  0.00     0.264 S
HETATM   12  O3  UNL     1      26.288 -28.187  19.284  1.00  0.00    -0.200 OA
HETATM   13  O4  UNL     1      27.598 -26.194  18.672  1.00  0.00    -0.200 OA
BRANCH  11  14
HETATM   14  C11 UNL     1      28.200 -28.498  17.504  1.00  0.00     0.094 A
HETATM   15  C12 UNL     1      27.486 -29.514  16.942  1.00  0.00     0.076 A
HETATM   16  S2  UNL     1      28.315 -29.862  15.499  1.00  0.00    -0.104 SA
HETATM   17  C13 UNL     1      29.559 -28.710  15.627  1.00  0.00    -0.007 A
HETATM   18  C14 UNL     1      29.300 -28.075  16.799  1.00  0.00    -0.012 A
HETATM   19  C19 UNL     1      30.751 -28.335  14.764  1.00  0.00     0.066 C
HETATM   20  C15 UNL     1      30.295 -26.962  17.119  1.00  0.00     0.116 C
HETATM   21  S3  UNL     1      31.927 -27.770  17.084  1.00  0.00    -0.155 SA
HETATM   22  C16 UNL     1      32.041 -28.647  15.471  1.00  0.00     0.005 C
HETATM   23  C17 UNL     1      32.281 -30.111  15.655  1.00  0.00     0.027 C
HETATM   24  C18 UNL     1      33.157 -28.002  14.669  1.00  0.00     0.027 C
ENDBRANCH  11  14
ENDBRANCH   9  11
ENDBRANCH   8   9
BRANCH   1  25
HETATM   25  C2  UNL     1      30.119 -30.334  20.452  1.00  0.00     0.038 C
HETATM   26  C1  UNL     1      30.220 -30.884  19.084  1.00  0.00     0.010 C
ENDBRANCH   1  25
BRANCH   7  27
HETATM   27  O1  UNL     1      30.075 -25.379  20.660  1.00  0.00    -0.257 OA
BRANCH  27  28
HETATM   28  C8  UNL     1      29.522 -24.837  21.837  1.00  0.00     0.365 C
HETATM   29  O2  UNL     1      28.371 -25.216  22.108  1.00  0.00    -0.238 OA
HETATM   30  N1  UNL     1      30.270 -23.925  22.623  1.00  0.00    -0.341 N
HETATM   31  C9  UNL     1      29.735 -23.354  23.829  1.00  0.00     0.151 C
ATOM     32  H1  UNL     1      31.211 -23.667  22.326  1.00  0.00     0.164 HD
ENDBRANCH  27  28
ENDBRANCH   7  27
TORSDOF 6
ENDMDL