MODEL 3
REMARK VINA RESULT: -7.588911469      6.282     10.339
REMARK  6 active torsions:
REMARK  status: ('A' for Active; 'I' for Inactive)
REMARK    1  A    between atoms: O1_2  and  C2_3
REMARK    2  A    between atoms: C7_9  and  C8_10
REMARK    3  A    between atoms: C8_10  and  C9_11
REMARK    4  A    between atoms: C9_11  and  S1_12
REMARK    5  A    between atoms: C9_11  and  C19_26
REMARK    6  A    between atoms: S1_12  and  C10_13
ROOT
HETATM    1  C9  UNL     1      29.768 -28.234  10.800  1.00  0.00     0.161 C
ENDROOT
BRANCH   1   2
HETATM    2  C8  UNL     1      29.340 -29.608  10.430  1.00  0.00     0.072 C
BRANCH   2   3
HETATM    3  C7  UNL     1      28.601 -29.716   9.145  1.00  0.00    -0.011 A
HETATM    4  C6  UNL     1      28.730 -30.834   8.352  1.00  0.00     0.027 A
HETATM    5  C5  UNL     1      28.094 -31.033   7.152  1.00  0.00    -0.017 A
HETATM    6  C4  UNL     1      28.344 -32.235   6.481  1.00  0.00     0.039 A
HETATM    7  C21 UNL     1      27.225 -30.159   6.537  1.00  0.00     0.056 A
HETATM    8  C3  UNL     1      27.791 -32.584   5.284  1.00  0.00     0.070 A
HETATM    9  C2  UNL     1      26.924 -31.701   4.678  1.00  0.00     0.112 A
HETATM   10 CL1  UNL     1      28.139 -34.103   4.487  1.00  0.00    -0.081 Cl
HETATM   11  C22 UNL     1      26.646 -30.502   5.303  1.00  0.00     0.084 A
HETATM   12 CL2  UNL     1      25.538 -29.426   4.483  1.00  0.00    -0.080 Cl
HETATM   13  C20 UNL     1      26.861 -28.928   7.052  1.00  0.00     0.226 A
HETATM   14  S2  UNL     1      27.562 -28.516   8.547  1.00  0.00    -0.052 SA
HETATM   15  O4  UNL     1      26.055 -28.202   6.404  1.00  0.00    -0.279 OA
BRANCH   9  16
HETATM   16  O1  UNL     1      26.361 -32.044   3.470  1.00  0.00    -0.352 OA
HETATM   17  C1  UNL     1      26.937 -31.702   2.223  1.00  0.00     0.210 C
ENDBRANCH   9  16
ENDBRANCH   2   3
ENDBRANCH   1   2
BRANCH   1  18
HETATM   18  S1  UNL     1      31.397 -27.923  10.016  1.00  0.00    -0.078 SA
BRANCH  18  19
HETATM   19  C10 UNL     1      31.091 -27.424   8.329  1.00  0.00     0.146 A
HETATM   20  N1  UNL     1      30.793 -26.216   7.822  1.00  0.00    -0.335 N
HETATM   21  C11 UNL     1      30.653 -26.322   6.497  1.00  0.00     0.061 A
ATOM     22  H1  UNL     1      30.689 -25.357   8.361  1.00  0.00     0.168 HD
HETATM   23  C12 UNL     1      30.349 -25.394   5.493  1.00  0.00     0.039 A
HETATM   24  C18 UNL     1      30.868 -27.629   6.151  1.00  0.00     0.061 A
HETATM   25  C13 UNL     1      30.260 -25.757   4.167  1.00  0.00    -0.054 A
HETATM   26  C14 UNL     1      29.937 -24.772   3.093  1.00  0.00     0.049 C
HETATM   27  C15 UNL     1      30.481 -27.078   3.842  1.00  0.00    -0.054 A
HETATM   28  C16 UNL     1      30.388 -27.493   2.398  1.00  0.00     0.049 C
HETATM   29  C17 UNL     1      30.780 -28.004   4.815  1.00  0.00     0.039 A
HETATM   30  N2  UNL     1      31.137 -28.304   7.286  1.00  0.00    -0.335 N
ATOM     31  H2  UNL     1      31.341 -29.302   7.353  1.00  0.00     0.168 HD
ENDBRANCH  18  19
ENDBRANCH   1  18
BRANCH   1  32
HETATM   32  C19 UNL     1      29.785 -27.902  12.218  1.00  0.00     0.188 C
HETATM   33  O2  UNL     1      30.515 -26.974  12.640  1.00  0.00    -0.647 OA
HETATM   34  O3  UNL     1      29.008 -28.589  13.129  1.00  0.00    -0.647 OA
ENDBRANCH   1  32
TORSDOF 6
ENDMDL