MODEL 2
REMARK VINA RESULT: -7.500549728      1.835      2.762
REMARK  8 active torsions:
REMARK  status: ('A' for Active; 'I' for Inactive)
REMARK    1  A    between atoms: O1_2  and  C2_3
REMARK    2  A    between atoms: C2_3  and  C3_4
REMARK    3  A    between atoms: C3_4  and  N1_5
REMARK    4  A    between atoms: N1_5  and  C5_7
REMARK    5  A    between atoms: C6_10  and  C7_11
REMARK    6  A    between atoms: C20_26  and  N4_27
REMARK    7  A    between atoms: N4_27  and  C21_29
REMARK    8  A    between atoms: C23_31  and  O2_32
ROOT
HETATM    1  C5  UNL     1      29.870 -28.867   6.411  1.00  0.00     0.682 A
HETATM    2  N2  UNL     1      30.373 -28.118   5.451  1.00  0.00    -0.189 N
ATOM      3  H2  UNL     1      31.297 -27.708   5.594  1.00  0.00     0.184 HD
HETATM    4  C6  UNL     1      29.715 -27.853   4.254  1.00  0.00     0.080 A
HETATM    5  C19 UNL     1      28.508 -28.441   4.172  1.00  0.00     0.081 A
HETATM    6  C20 UNL     1      27.930 -29.250   5.173  1.00  0.00     0.123 A
HETATM    7  N5  UNL     1      28.642 -29.441   6.278  1.00  0.00    -0.176 N
ATOM      8  H5  UNL     1      28.268 -30.020   7.030  1.00  0.00     0.186 HD
ENDROOT
BRANCH   4   9
HETATM    9  C7  UNL     1      30.468 -27.007   3.348  1.00  0.00     0.066 A
HETATM   10  N3  UNL     1      31.212 -27.627   2.380  1.00  0.00    -0.353 N
HETATM   11  C8  UNL     1      31.927 -26.939   1.499  1.00  0.00     0.049 A
ATOM     12  H3  UNL     1      31.217 -28.647   2.335  1.00  0.00     0.166 HD
HETATM   13  C9  UNL     1      32.667 -27.632   0.531  1.00  0.00    -0.034 A
HETATM   14  C15 UNL     1      31.958 -25.562   1.512  1.00  0.00    -0.008 A
HETATM   15  C10 UNL     1      32.626 -29.125   0.528  1.00  0.00     0.050 C
HETATM   16  C11 UNL     1      33.403 -26.913  -0.377  1.00  0.00     0.015 A
HETATM   17  C12 UNL     1      33.424 -25.527  -0.351  1.00  0.00    -0.061 A
HETATM   18  C13 UNL     1      34.227 -24.766  -1.347  1.00  0.00     0.048 C
HETATM   19  C14 UNL     1      32.696 -24.860   0.601  1.00  0.00     0.020 A
HETATM   20  C16 UNL     1      31.232 -24.878   2.461  1.00  0.00     0.022 A
HETATM   21  C17 UNL     1      30.482 -25.652   3.380  1.00  0.00    -0.032 A
HETATM   22  C18 UNL     1      29.725 -24.847   4.364  1.00  0.00     0.050 C
ENDBRANCH   4   9
BRANCH   1  23
HETATM   23  N1  UNL     1      30.613 -29.078   7.600  1.00  0.00    -0.220 N
HETATM   24  C4  UNL     1      31.437 -30.265   7.753  1.00  0.00     0.168 C
BRANCH  23  25
HETATM   25  C3  UNL     1      30.568 -28.136   8.680  1.00  0.00     0.167 C
BRANCH  25  26
HETATM   26  C2  UNL     1      31.871 -27.372   8.769  1.00  0.00     0.187 C
BRANCH  26  27
HETATM   27  O1  UNL     1      31.615 -26.017   8.921  1.00  0.00    -0.394 OA
HETATM   28  C1  UNL     1      31.599 -25.412   7.674  1.00  0.00     0.201 C
ENDBRANCH  26  27
ENDBRANCH  25  26
ENDBRANCH  23  25
ENDBRANCH   1  23
BRANCH   6  29
HETATM   29  N4  UNL     1      26.800 -29.743   5.000  1.00  0.00    -0.341 N
ATOM     30  H4  UNL     1      26.154 -29.580   5.772  1.00  0.00     0.167 HD
BRANCH  29  31
HETATM   31  C21 UNL     1      26.258 -30.468   3.957  1.00  0.00     0.058 A
HETATM   32  C22 UNL     1      25.257 -29.927   3.184  1.00  0.00     0.069 A
HETATM   33  C23 UNL     1      24.693 -30.648   2.125  1.00  0.00     0.089 A
HETATM   34  C24 UNL     1      25.138 -31.911   1.844  1.00  0.00     0.068 A
HETATM   35 CL1  UNL     1      24.419 -32.797   0.512  1.00  0.00    -0.081 Cl
HETATM   36  C25 UNL     1      26.129 -32.463   2.600  1.00  0.00     0.052 A
HETATM   37  C26 UNL     1      26.691 -31.738   3.661  1.00  0.00     0.062 A
HETATM   38 CL2  UNL     1      27.956 -32.533   4.569  1.00  0.00    -0.082 Cl
BRANCH  33  39
HETATM   39  O2  UNL     1      23.681 -30.072   1.360  1.00  0.00    -0.359 OA
ATOM     40  H2  UNL     1      23.876 -29.744   0.490  1.00  0.00     0.217 HD
ENDBRANCH  33  39
ENDBRANCH  29  31
ENDBRANCH   6  29
TORSDOF 8
ENDMDL