MODEL 1
REMARK VINA RESULT: -7.044581795      0.000      0.000
REMARK  6 active torsions:
REMARK  status: ('A' for Active; 'I' for Inactive)
REMARK    1  A    between atoms: O1_2  and  C2_3
REMARK    2  A    between atoms: C2_3  and  C3_4
REMARK    3  A    between atoms: C4_5  and  C5_6
REMARK    4  A    between atoms: C5_6  and  O2_9
REMARK    5  A    between atoms: C10_15  and  O3_16
REMARK    6  A    between atoms: N3_28  and  C21_29
ROOT
HETATM    1  C3  UNL     1      29.202 -29.312   5.418  1.00  0.00     0.068 A
HETATM    2  C4  UNL     1      28.210 -29.424   6.403  1.00  0.00     0.070 A
HETATM    3  N1  UNL     1      28.138 -30.713   6.685  1.00  0.00    -0.340 N
ATOM      4  H1  UNL     1      27.507 -31.131   7.369  1.00  0.00     0.167 HD
HETATM    5  C8  UNL     1      29.052 -31.410   5.911  1.00  0.00     0.128 A
HETATM    6  C9  UNL     1      29.068 -32.847   6.057  1.00  0.00     0.067 A
HETATM    7  C10 UNL     1      28.040 -33.534   5.411  1.00  0.00     0.084 A
HETATM    8  C12 UNL     1      27.999 -34.902   5.489  1.00  0.00     0.045 A
HETATM    9  C13 UNL     1      28.936 -35.649   6.187  1.00  0.00    -0.046 A
HETATM   10  C14 UNL     1      29.943 -34.963   6.821  1.00  0.00    -0.026 A
HETATM   11  C15 UNL     1      30.001 -33.562   6.752  1.00  0.00     0.070 A
HETATM   12  N2  UNL     1      31.067 -32.959   7.482  1.00  0.00    -0.101 NA
HETATM   13  C16 UNL     1      30.814 -35.949   7.497  1.00  0.00     0.050 C
HETATM   14  C17 UNL     1      29.976 -37.205   7.605  1.00  0.00    -0.040 C
HETATM   15  C18 UNL     1      29.155 -37.198   8.896  1.00  0.00     0.015 C
HETATM   16  C19 UNL     1      30.834 -38.432   7.622  1.00  0.00     0.015 C
HETATM   17  C20 UNL     1      29.082 -37.110   6.397  1.00  0.00     0.048 C
HETATM   18  N3  UNL     1      29.710 -30.540   5.133  1.00  0.00    -0.293 N
ENDROOT
BRANCH  18  19
HETATM   19  C21 UNL     1      30.762 -30.784   4.239  1.00  0.00     0.084 A
HETATM   20  C22 UNL     1      32.085 -30.780   4.709  1.00  0.00     0.063 A
HETATM   21 CL1  UNL     1      32.402 -30.384   6.373  1.00  0.00    -0.082 Cl
HETATM   22  C23 UNL     1      33.172 -31.022   3.914  1.00  0.00     0.026 A
HETATM   23  C24 UNL     1      33.027 -31.287   2.576  1.00  0.00     0.003 A
HETATM   24  C25 UNL     1      31.742 -31.294   2.090  1.00  0.00     0.026 A
HETATM   25  C26 UNL     1      30.646 -31.050   2.892  1.00  0.00     0.063 A
HETATM   26 CL2  UNL     1      29.100 -31.040   2.086  1.00  0.00    -0.082 Cl
ENDBRANCH  18  19
BRANCH   2  27
HETATM   27  C5  UNL     1      27.402 -28.315   7.005  1.00  0.00     0.095 C
HETATM   28  C6  UNL     1      25.981 -28.313   6.530  1.00  0.00     0.052 C
HETATM   29  C7  UNL     1      27.380 -28.520   8.514  1.00  0.00     0.052 C
BRANCH  27  30
HETATM   30  O2  UNL     1      28.039 -27.084   6.795  1.00  0.00    -0.384 OA
ATOM     31  H2  UNL     1      28.594 -26.871   7.536  1.00  0.00     0.211 HD
ENDBRANCH  27  30
ENDBRANCH   2  27
BRANCH   7  32
HETATM   32  O3  UNL     1      27.050 -32.886   4.695  1.00  0.00    -0.355 OA
HETATM   33  C11 UNL     1      26.805 -33.253   3.358  1.00  0.00     0.210 C
ENDBRANCH   7  32
BRANCH   1  34
HETATM   34  C2  UNL     1      29.556 -28.031   4.818  1.00  0.00     0.226 C
BRANCH  34  35
HETATM   35  O1  UNL     1      28.810 -27.634   3.725  1.00  0.00    -0.390 OA
HETATM   36  C1  UNL     1      29.364 -26.556   3.084  1.00  0.00     0.201 C
ENDBRANCH  34  35
ENDBRANCH   1  34
TORSDOF 6
ENDMDL