MODEL 2
REMARK VINA RESULT: -6.116881710      2.546      3.803
REMARK  8 active torsions:
REMARK  status: ('A' for Active; 'I' for Inactive)
REMARK    1  A    between atoms: C2_2  and  C4_4
REMARK    2  A    between atoms: C4_4  and  C5_5
REMARK    3  A    between atoms: C5_5  and  C6_6
REMARK    4  A    between atoms: C6_6  and  S1_7
REMARK    5  A    between atoms: S1_7  and  C7_8
REMARK    6  A    between atoms: C7_8  and  N1_10
REMARK    7  A    between atoms: N1_10  and  C8_12
REMARK    8  A    between atoms: C13_19  and  C14_20
ROOT
HETATM    1  C7  UNL     1      28.887 -29.866   7.240  1.00  0.00     0.139 C
HETATM    2  S2  UNL     1      28.841 -28.981   8.607  1.00  0.00    -0.053 SA
ENDROOT
BRANCH   1   3
HETATM    3  S1  UNL     1      30.159 -29.678   6.034  1.00  0.00    -0.098 SA
BRANCH   3   4
HETATM    4  C6  UNL     1      30.118 -28.221   5.053  1.00  0.00     0.112 C
BRANCH   4   5
HETATM    5  C5  UNL     1      30.411 -28.312   3.605  1.00  0.00     0.107 C
HETATM    6  S3  UNL     1      29.634 -29.737   2.796  1.00  0.00    -0.048 SA
HETATM    7  C18 UNL     1      30.993 -30.160   1.722  1.00  0.00     0.287 C
HETATM    8  O1  UNL     1      30.996 -31.025   0.848  1.00  0.00    -0.260 OA
HETATM    9  N2  UNL     1      32.033 -29.291   2.101  1.00  0.00    -0.287 N
HETATM   10  C19 UNL     1      31.849 -28.700   3.372  1.00  0.00     0.245 C
ATOM     11  H2  UNL     1      32.845 -29.105   1.512  1.00  0.00     0.172 HD
HETATM   12  O2  UNL     1      32.740 -28.491   4.260  1.00  0.00    -0.271 OA
BRANCH   5  13
HETATM   13  C4  UNL     1      29.997 -27.108   2.814  1.00  0.00     0.035 C
BRANCH  13  14
HETATM   14  C2  UNL     1      30.614 -25.814   3.151  1.00  0.00    -0.021 C
HETATM   15  C1  UNL     1      29.479 -24.769   3.077  1.00  0.00     0.009 C
HETATM   16  C3  UNL     1      31.685 -25.306   2.243  1.00  0.00     0.009 C
ENDBRANCH  13  14
ENDBRANCH   5  13
ENDBRANCH   4   5
ENDBRANCH   3   4
ENDBRANCH   1   3
BRANCH   1  17
HETATM   17  N1  UNL     1      27.823 -30.807   7.034  1.00  0.00    -0.340 N
ATOM     18  H1  UNL     1      27.422 -31.281   7.843  1.00  0.00     0.167 HD
BRANCH  17  19
HETATM   19  C8  UNL     1      27.313 -31.100   5.750  1.00  0.00     0.061 A
HETATM   20  C9  UNL     1      26.467 -30.173   5.133  1.00  0.00     0.038 A
HETATM   21 BR1  UNL     1      26.044 -28.559   6.072  1.00  0.00    -0.049 Br
HETATM   22  C10 UNL     1      25.932 -30.419   3.901  1.00  0.00     0.024 A
HETATM   23  C11 UNL     1      26.242 -31.595   3.284  1.00  0.00     0.044 A
HETATM   24  C12 UNL     1      27.081 -32.547   3.869  1.00  0.00     0.125 A
HETATM   25  F1  UNL     1      27.301 -33.675   3.127  1.00  0.00    -0.205 F
HETATM   26  C13 UNL     1      27.617 -32.297   5.109  1.00  0.00     0.016 A
BRANCH  26  27
HETATM   27  C14 UNL     1      28.445 -33.319   5.771  1.00  0.00    -0.019 C
HETATM   28  C15 UNL     1      28.499 -33.191   7.287  1.00  0.00     0.019 C
HETATM   29  C16 UNL     1      28.036 -34.750   5.519  1.00  0.00     0.019 C
HETATM   30  C17 UNL     1      29.902 -33.218   5.316  1.00  0.00     0.019 C
ENDBRANCH  26  27
ENDBRANCH  17  19
ENDBRANCH   1  17
TORSDOF 8
ENDMDL