MODEL 4
REMARK VINA RESULT: -4.858569261      1.550      1.746
REMARK  2 active torsions:
REMARK  status: ('A' for Active; 'I' for Inactive)
REMARK    1  A    between atoms: C1_2  and  C2_4
REMARK    2  A    between atoms: C2_4  and  N2_5
ROOT
HETATM    1  C2  UNL     1     305.484 218.944 331.830  1.00  0.00     0.369 C
HETATM    2  N3  UNL     1     305.485 219.955 330.727  1.00  0.00    -0.080 NA
HETATM    3  N4  UNL     1     304.060 219.984 330.798  1.00  0.00    -0.267 N
ATOM      4  H4  UNL     1     303.324 220.643 330.544  1.00  0.00     0.185 HD
HETATM    5  C3  UNL     1     304.119 218.677 331.386  1.00  0.00     0.297 C
HETATM    6  O2  UNL     1     303.281 217.771 331.427  1.00  0.00    -0.267 OA
ENDROOT
BRANCH   1   7
HETATM    7  C1  UNL     1     305.664 219.563 333.101  1.00  0.00     0.295 C
HETATM    8  N1  UNL     1     305.906 221.016 333.171  1.00  0.00    -0.058 NA
HETATM    9  O1  UNL     1     305.648 218.998 334.182  1.00  0.00    -0.272 OA
ENDBRANCH   1   7
BRANCH   1  10
HETATM   10  N2  UNL     1     306.395 217.913 331.428  1.00  0.00    -0.036 N
ATOM     11  H23 UNL     1     306.035 217.465 330.585  1.00  0.00     0.278 HD
ATOM     12  H22 UNL     1     307.247 218.346 331.072  1.00  0.00     0.278 HD
ATOM     13  H21 UNL     1     306.650 217.191 332.102  1.00  0.00     0.278 HD
ENDBRANCH   1  10
TORSDOF 2
ENDMDL