MODEL 5
REMARK VINA RESULT: -5.123720501      3.241      3.566
REMARK  1 active torsions:
REMARK  status: ('A' for Active; 'I' for Inactive)
REMARK       I    between atoms: C3_3  and  N1_5
REMARK       I    between atoms: N1_5  and  C4_7
REMARK    1  A    between atoms: N3_9  and  N4_11
ROOT
HETATM    1  C1  UNL     1     303.905 219.918 333.636  1.00  0.00     0.022 C
HETATM    2  C2  UNL     1     304.290 219.085 332.883  1.00  0.00    -0.016 C
HETATM    3  C3  UNL     1     304.964 217.841 331.771  1.00  0.00     0.302 C
HETATM    4  O1  UNL     1     306.002 218.083 332.275  1.00  0.00    -0.258 OA
HETATM    5  N1  UNL     1     303.777 217.564 331.195  1.00  0.00    -0.289 N
ATOM      6  H1  UNL     1     303.912 216.869 330.462  1.00  0.00     0.172 HD
HETATM    7  C4  UNL     1     302.453 217.901 331.262  1.00  0.00     0.209 C
HETATM    8  N2  UNL     1     301.675 218.662 332.135  1.00  0.00    -0.062 NA
HETATM    9  N3  UNL     1     301.693 217.301 330.312  1.00  0.00    -0.280 N
ATOM     10  H3  UNL     1     302.157 216.676 329.653  1.00  0.00     0.189 HD
ENDROOT
BRANCH   9  11
HETATM   11  N4  UNL     1     300.364 217.477 330.183  1.00  0.00    -0.343 N
ATOM     12  H42 UNL     1     299.953 217.231 329.282  1.00  0.00     0.176 HD
ATOM     13  H41 UNL     1     299.759 217.836 330.921  1.00  0.00     0.176 HD
ENDBRANCH   9  11
TORSDOF 1
ENDMDL