MODEL 1
REMARK VINA RESULT: -5.167555205      0.000      0.000
REMARK  1 active torsions:
REMARK  status: ('A' for Active; 'I' for Inactive)
REMARK       I    between atoms: C2_5  and  N4_7
REMARK    1  A    between atoms: N4_7  and  N5_9
ROOT
HETATM    1  N1  UNL     1     306.225 221.335 332.559  1.00  0.00    -0.172 NA
HETATM    2  C1  UNL     1     305.569 220.593 331.958  1.00  0.00     0.184 C
HETATM    3  N2  UNL     1     304.778 219.680 331.229  1.00  0.00    -0.266 N
ATOM      4  H2  UNL     1     304.587 219.860 330.244  1.00  0.00     0.180 HD
HETATM    5  C2  UNL     1     304.291 218.623 331.784  1.00  0.00     0.216 C
HETATM    6  N3  UNL     1     304.535 218.337 333.156  1.00  0.00    -0.061 NA
HETATM    7  N4  UNL     1     303.506 217.761 330.969  1.00  0.00    -0.271 N
ATOM      8  H4  UNL     1     303.912 216.949 330.505  1.00  0.00     0.189 HD
ENDROOT
BRANCH   7   9
HETATM    9  N5  UNL     1     302.153 218.079 330.835  1.00  0.00    -0.274 N
HETATM   10  C3  UNL     1     301.246 217.183 330.647  1.00  0.00     0.215 C
HETATM   11  N6  UNL     1     299.893 217.598 330.522  1.00  0.00    -0.065 NA
HETATM   12  N7  UNL     1     301.639 215.825 330.575  1.00  0.00    -0.065 NA
ATOM     13  H5  UNL     1     301.872 219.057 330.887  1.00  0.00     0.189 HD
ENDBRANCH   7   9
TORSDOF 1
ENDMDL