MODEL 1
REMARK VINA RESULT: -5.116219822      0.000      0.000
REMARK  1 active torsions:
REMARK  status: ('A' for Active; 'I' for Inactive)
REMARK    1  A    between atoms: N3_4  and  N4_6
ROOT
HETATM    1  N4  UNL     1     303.194 218.037 331.238  1.00  0.00    -0.269 N
ATOM      2  H4  UNL     1     303.675 218.385 330.407  1.00  0.00     0.190 HD
HETATM    3  C2  UNL     1     302.243 217.202 331.069  1.00  0.00     0.206 A
HETATM    4  N5  UNL     1     301.651 216.598 329.937  1.00  0.00    -0.279 N
ATOM      5  H5  UNL     1     301.802 216.645 328.929  1.00  0.00     0.173 HD
HETATM    6  C3  UNL     1     300.744 215.886 330.805  1.00  0.00     0.329 A
HETATM    7  O1  UNL     1     299.825 215.073 330.567  1.00  0.00    -0.246 OA
HETATM    8  N6  UNL     1     301.356 216.506 331.928  1.00  0.00    -0.279 N
ATOM      9  H6  UNL     1     301.216 216.466 332.938  1.00  0.00     0.173 HD
ENDROOT
BRANCH   1  10
HETATM   10  N3  UNL     1     303.613 218.497 332.457  1.00  0.00    -0.273 N
HETATM   11  C1  UNL     1     304.860 218.340 332.794  1.00  0.00     0.215 C
HETATM   12  N1  UNL     1     305.732 217.698 331.886  1.00  0.00    -0.065 NA
HETATM   13  N2  UNL     1     305.304 218.818 334.065  1.00  0.00    -0.065 NA
ATOM     14  H3  UNL     1     302.958 218.956 333.090  1.00  0.00     0.189 HD
ENDBRANCH   1  10
TORSDOF 1
ENDMDL