MODEL 2
REMARK VINA RESULT: -5.030893816      2.391      3.538
REMARK  1 active torsions:
REMARK  status: ('A' for Active; 'I' for Inactive)
REMARK    1  A    between atoms: N4_10  and  N5_12
ROOT
HETATM    1  C1  UNL     1     302.985 218.796 332.372  1.00  0.00     0.197 C
HETATM    2  N1  UNL     1     304.309 218.425 331.978  1.00  0.00    -0.123 N
HETATM    3  N2  UNL     1     304.625 217.639 330.944  1.00  0.00    -0.235 N
ATOM      4  H2  UNL     1     303.950 217.209 330.312  1.00  0.00     0.192 HD
HETATM    5  C2  UNL     1     305.958 217.494 330.856  1.00  0.00     0.353 A
HETATM    6  O1  UNL     1     306.599 216.823 330.003  1.00  0.00    -0.245 OA
HETATM    7  N3  UNL     1     306.438 218.221 331.877  1.00  0.00    -0.137 N
ATOM      8  H3  UNL     1     307.430 218.321 332.091  1.00  0.00     0.189 HD
HETATM    9  C3  UNL     1     305.457 218.800 332.577  1.00  0.00     0.717 A
HETATM   10  N4  UNL     1     305.598 219.565 333.622  1.00  0.00    -0.137 N
ATOM     11  H4  UNL     1     306.539 219.762 333.963  1.00  0.00     0.205 HD
ENDROOT
BRANCH  10  12
HETATM   12  N5  UNL     1     304.511 220.125 334.290  1.00  0.00    -0.331 N
ATOM     13  H52 UNL     1     303.733 220.470 333.728  1.00  0.00     0.177 HD
ATOM     14  H51 UNL     1     304.473 220.200 335.307  1.00  0.00     0.177 HD
ENDBRANCH  10  12
TORSDOF 1
ENDMDL