MODEL 4
REMARK VINA RESULT: -4.356090397      1.272      1.336
REMARK  1 active torsions:
REMARK  status: ('A' for Active; 'I' for Inactive)
REMARK       I    between atoms: N1_2  and  C2_4
REMARK       I    between atoms: N3_6  and  C3_8
REMARK       I    between atoms: C3_8  and  N4_10
REMARK    1  A    between atoms: N4_10  and  N5_12
ROOT
HETATM    1  C1  UNL     1     300.862 216.081 330.884  1.00  0.00     0.148 C
HETATM    2  N1  UNL     1     301.968 216.892 330.418  1.00  0.00    -0.369 N
ATOM      3  H1  UNL     1     302.303 216.745 329.466  1.00  0.00     0.161 HD
HETATM    4  C2  UNL     1     302.611 217.876 331.206  1.00  0.00     0.191 C
HETATM    5  N2  UNL     1     301.874 218.599 332.156  1.00  0.00    -0.063 NA
HETATM    6  N3  UNL     1     303.864 218.096 331.042  1.00  0.00    -0.282 N
ATOM      7  H3  UNL     1     304.366 217.550 330.342  1.00  0.00     0.173 HD
HETATM    8  C3  UNL     1     304.588 219.063 331.789  1.00  0.00     0.340 C
HETATM    9  O1  UNL     1     304.814 220.203 331.314  1.00  0.00    -0.245 OA
HETATM   10  N4  UNL     1     305.058 218.733 333.084  1.00  0.00    -0.258 N
ATOM     11  H4  UNL     1     304.865 217.802 333.453  1.00  0.00     0.191 HD
ENDROOT
BRANCH  10  12
HETATM   12  N5  UNL     1     305.774 219.632 333.872  1.00  0.00    -0.341 N
ATOM     13  H52 UNL     1     305.630 219.598 334.882  1.00  0.00     0.177 HD
ATOM     14  H51 UNL     1     306.426 220.310 333.477  1.00  0.00     0.177 HD
ENDBRANCH  10  12
TORSDOF 1
ENDMDL