MODEL 3
REMARK VINA RESULT: -5.470009159      2.293      3.774
REMARK  2 active torsions:
REMARK  status: ('A' for Active; 'I' for Inactive)
REMARK    1  A    between atoms: N1_1  and  N2_4
REMARK    2  A    between atoms: N2_4  and  N3_6
ROOT
HETATM    1  N3  UNL     1     305.606 219.782 332.184  1.00  0.00    -0.109 N
HETATM    2  N4  UNL     1     306.452 218.886 331.550  1.00  0.00    -0.213 N
ATOM      3  H4  UNL     1     307.455 219.068 331.515  1.00  0.00     0.195 HD
HETATM    4  C1  UNL     1     305.921 217.716 330.952  1.00  0.00     0.345 A
HETATM    5  O1  UNL     1     306.709 216.888 330.364  1.00  0.00    -0.245 OA
HETATM    6  N5  UNL     1     304.534 217.398 330.964  1.00  0.00    -0.258 N
ATOM      7  H5  UNL     1     304.162 216.553 330.531  1.00  0.00     0.175 HD
HETATM    8  C2  UNL     1     303.701 218.348 331.626  1.00  0.00     0.345 A
HETATM    9  O2  UNL     1     302.456 218.097 331.656  1.00  0.00    -0.245 OA
HETATM   10  N6  UNL     1     304.241 219.520 332.225  1.00  0.00    -0.213 N
ATOM     11  H6  UNL     1     303.617 220.178 332.692  1.00  0.00     0.195 HD
ENDROOT
BRANCH   1  12
HETATM   12  N2  UNL     1     306.109 220.958 332.791  1.00  0.00    -0.212 N
ATOM     13  H2  UNL     1     306.465 221.749 332.255  1.00  0.00     0.211 HD
BRANCH  12  14
HETATM   14  N1  UNL     1     306.079 220.943 334.077  1.00  0.00    -0.328 N
ATOM     15  H12 UNL     1     306.690 221.537 334.638  1.00  0.00     0.178 HD
ATOM     16  H11 UNL     1     305.399 220.294 334.473  1.00  0.00     0.178 HD
ENDBRANCH  12  14
ENDBRANCH   1  12
TORSDOF 2
ENDMDL