MODEL 5
REMARK VINA RESULT: -4.916774944      1.443      3.076
REMARK  2 active torsions:
REMARK  status: ('A' for Active; 'I' for Inactive)
REMARK    1  A    between atoms: C1_2  and  C2_4
REMARK    2  A    between atoms: C2_4  and  N2_5
ROOT
HETATM    1  C2  UNL     1     304.887 219.024 332.469  1.00  0.00     0.360 C
HETATM    2  N3  UNL     1     304.676 218.036 333.485  1.00  0.00    -0.035 NA
HETATM    3  O2  UNL     1     305.375 218.713 334.419  1.00  0.00    -0.223 OA
HETATM    4  C3  UNL     1     305.511 219.802 333.536  1.00  0.00     0.200 C
HETATM    5  N4  UNL     1     306.005 221.009 333.577  1.00  0.00    -0.378 N
ATOM      6  H41 UNL     1     306.441 221.553 334.322  1.00  0.00     0.158 HD
ATOM      7  H42 UNL     1     306.104 221.798 332.937  1.00  0.00     0.158 HD
ENDROOT
BRANCH   1   8
HETATM    8  C1  UNL     1     305.749 218.413 331.404  1.00  0.00     0.295 C
HETATM    9  N1  UNL     1     305.968 219.210 330.254  1.00  0.00    -0.058 NA
HETATM   10  O1  UNL     1     306.259 217.294 331.472  1.00  0.00    -0.272 OA
ENDBRANCH   1   8
BRANCH   1  11
HETATM   11  N2  UNL     1     303.628 219.522 331.929  1.00  0.00    -0.037 N
ATOM     12  H23 UNL     1     303.508 219.249 330.954  1.00  0.00     0.278 HD
ATOM     13  H22 UNL     1     302.831 219.030 332.331  1.00  0.00     0.278 HD
ATOM     14  H21 UNL     1     303.538 220.532 332.045  1.00  0.00     0.278 HD
ENDBRANCH   1  11
TORSDOF 2
ENDMDL