MODEL 2
REMARK VINA RESULT: -4.992795071      1.415      1.699
REMARK  1 active torsions:
REMARK  status: ('A' for Active; 'I' for Inactive)
REMARK       I    between atoms: C1_4  and  N3_6
REMARK    1  A    between atoms: N5_13  and  N6_14
ROOT
HETATM    1  N1  UNL     1     305.768 221.832 331.951  1.00  0.00    -0.373 N
ATOM      2  H11 UNL     1     305.836 221.784 330.935  1.00  0.00     0.158 HD
ATOM      3  H12 UNL     1     305.655 222.718 332.443  1.00  0.00     0.158 HD
HETATM    4  C1  UNL     1     305.824 220.748 332.631  1.00  0.00     0.188 C
HETATM    5  N2  UNL     1     305.727 220.816 334.052  1.00  0.00    -0.064 NA
HETATM    6  N3  UNL     1     305.980 219.522 331.952  1.00  0.00    -0.301 N
ATOM      7  H3  UNL     1     306.903 219.215 331.646  1.00  0.00     0.171 HD
HETATM    8  C2  UNL     1     304.943 218.796 331.721  1.00  0.00     0.215 A
HETATM    9  N4  UNL     1     304.720 217.546 331.086  1.00  0.00    -0.277 N
ATOM     10  H4  UNL     1     305.312 216.854 330.625  1.00  0.00     0.173 HD
HETATM   11  C3  UNL     1     303.333 217.658 331.356  1.00  0.00     0.350 A
HETATM   12  O1  UNL     1     302.319 216.953 331.133  1.00  0.00    -0.244 OA
HETATM   13  N5  UNL     1     303.552 218.893 331.984  1.00  0.00    -0.179 N
ENDROOT
BRANCH  13  14
HETATM   14  N6  UNL     1     302.791 219.871 332.622  1.00  0.00    -0.332 N
ATOM     15  H62 UNL     1     301.824 220.196 332.617  1.00  0.00     0.177 HD
ATOM     16  H61 UNL     1     303.034 220.574 333.321  1.00  0.00     0.177 HD
ENDBRANCH  13  14
TORSDOF 1
ENDMDL