MODEL 2
REMARK VINA RESULT: -5.196438995      2.227      3.592
REMARK  3 active torsions:
REMARK  status: ('A' for Active; 'I' for Inactive)
REMARK    1  A    between atoms: N1_1  and  N2_4
REMARK    2  A    between atoms: C1_7  and  N4_8
REMARK    3  A    between atoms: N4_8  and  C2_10
ROOT
HETATM    1  N2  UNL     1     305.895 220.673 332.806  1.00  0.00    -0.108 N
HETATM    2  N3  UNL     1     306.061 219.440 332.308  1.00  0.00    -0.093 N
ATOM      3  H3  UNL     1     306.391 218.639 332.848  1.00  0.00     0.209 HD
HETATM    4  C1  UNL     1     305.737 219.396 331.009  1.00  0.00     0.717 A
HETATM    5  N5  UNL     1     305.355 220.676 330.716  1.00  0.00    -0.113 N
ATOM      6  H5  UNL     1     305.039 221.008 329.805  1.00  0.00     0.207 HD
HETATM    7  N6  UNL     1     305.461 221.409 331.806  1.00  0.00    -0.192 N
ATOM      8  H6  UNL     1     305.239 222.402 331.866  1.00  0.00     0.212 HD
ENDROOT
BRANCH   4   9
HETATM    9  N4  UNL     1     305.786 218.363 330.245  1.00  0.00    -0.165 N
ATOM     10  H4  UNL     1     305.534 218.434 329.259  1.00  0.00     0.186 HD
BRANCH   9  11
HETATM   11  C2  UNL     1     306.194 217.130 330.793  1.00  0.00     0.368 C
HETATM   12  O1  UNL     1     307.172 216.536 330.306  1.00  0.00    -0.283 OA
ENDBRANCH   9  11
ENDBRANCH   4   9
BRANCH   1  13
HETATM   13  N1  UNL     1     306.148 221.047 334.136  1.00  0.00    -0.307 N
ATOM     14  H12 UNL     1     306.907 221.616 334.511  1.00  0.00     0.180 HD
ATOM     15  H11 UNL     1     305.576 220.782 334.938  1.00  0.00     0.180 HD
ENDBRANCH   1  13
TORSDOF 3
ENDMDL