MODEL 1
REMARK VINA RESULT: -8.603598724      0.000      0.000
REMARK  11 active torsions:
REMARK  status: ('A' for Active; 'I' for Inactive)
REMARK    1  A    between atoms: C2_2  and  C3_3
REMARK    2  A    between atoms: C4_4  and  C5_5
REMARK    3  A    between atoms: C10_10  and  O1_11
REMARK    4  A    between atoms: C13_15  and  O2_16
REMARK    5  A    between atoms: C14_18  and  C15_19
REMARK    6  A    between atoms: C15_19  and  O3_20
REMARK    7  A    between atoms: C16_23  and  O5_24
REMARK    8  A    between atoms: O5_24  and  C17_25
REMARK    9  A    between atoms: C17_25  and  C18_26
REMARK   10  A    between atoms: C18_26  and  C19_27
REMARK   11  A    between atoms: C19_27  and  N1_28
ROOT
HETATM    1  C3  UNL     1       3.231  -7.332 -29.399  1.00  0.00     0.016 C
HETATM    2  C4  UNL     1       3.768  -8.461 -30.279  1.00  0.00    -0.006 C
HETATM    3  C7  UNL     1       3.172  -9.743 -29.737  1.00  0.00     0.017 C
HETATM    4  C8  UNL     1       2.527  -9.353 -28.451  1.00  0.00    -0.013 C
HETATM    5  C9  UNL     1       3.483  -9.401 -27.319  1.00  0.00     0.018 C
HETATM    6  C10 UNL     1       1.279 -10.147 -28.154  1.00  0.00     0.131 C
HETATM    7  C11 UNL     1       0.325  -9.509 -27.222  1.00  0.00     0.026 C
HETATM    8  C12 UNL     1       0.160 -10.476 -26.057  1.00  0.00     0.042 C
HETATM    9  C13 UNL     1      -0.788 -10.028 -25.009  1.00  0.00     0.149 C
HETATM   10  C14 UNL     1      -1.812  -9.029 -25.449  1.00  0.00     0.176 C
HETATM   11  O4  UNL     1      -1.309  -7.711 -25.391  1.00  0.00    -0.351 OA
HETATM   12  C16 UNL     1      -0.696  -7.377 -26.608  1.00  0.00     0.264 C
HETATM   13  C20 UNL     1       0.606  -8.155 -26.735  1.00  0.00     0.048 C
HETATM   14  C21 UNL     1       1.571  -7.328 -27.501  1.00  0.00     0.016 C
HETATM   15  C22 UNL     1       2.039  -7.953 -28.781  1.00  0.00     0.005 C
ENDROOT
BRANCH  12  16
HETATM   16  O5  UNL     1      -0.526  -6.015 -26.598  1.00  0.00    -0.361 OA
BRANCH  16  17
HETATM   17  C17 UNL     1      -1.402  -5.298 -27.392  1.00  0.00     0.172 C
BRANCH  17  18
HETATM   18  C18 UNL     1      -1.691  -3.919 -26.838  1.00  0.00     0.053 C
BRANCH  18  19
HETATM   19  C19 UNL     1      -2.682  -4.000 -25.689  1.00  0.00     0.231 C
BRANCH  19  20
HETATM   20  N1  UNL     1      -3.388  -5.246 -25.670  1.00  0.00    -0.079 N
ATOM     21  H13 UNL     1      -4.363  -5.121 -25.940  1.00  0.00     0.274 HD
ATOM     22  H12 UNL     1      -3.084  -5.853 -26.431  1.00  0.00     0.274 HD
ATOM     23  H11 UNL     1      -3.312  -5.717 -24.769  1.00  0.00     0.274 HD
ENDBRANCH  19  20
ENDBRANCH  18  19
ENDBRANCH  17  18
ENDBRANCH  16  17
ENDBRANCH  12  16
BRANCH  10  24
HETATM   24  C15 UNL     1      -2.931  -9.063 -24.397  1.00  0.00     0.198 C
BRANCH  24  25
HETATM   25  O3  UNL     1      -2.360  -8.716 -23.198  1.00  0.00    -0.398 OA
ATOM     26  H3  UNL     1      -2.619  -9.379 -22.568  1.00  0.00     0.209 HD
ENDBRANCH  24  25
ENDBRANCH  10  24
BRANCH   9  27
HETATM   27  O2  UNL     1      -1.417 -11.184 -24.485  1.00  0.00    -0.393 OA
ATOM     28  H2  UNL     1      -0.759 -11.670 -24.001  1.00  0.00     0.210 HD
ENDBRANCH   9  27
BRANCH   6  29
HETATM   29  O1  UNL     1       1.731 -11.417 -27.729  1.00  0.00    -0.394 OA
ATOM     30  H1  UNL     1       2.068 -11.287 -26.850  1.00  0.00     0.210 HD
ENDBRANCH   6  29
BRANCH   1  31
HETATM   31  C2  UNL     1       2.835  -6.217 -30.282  1.00  0.00    -0.031 C
HETATM   32  C1  UNL     1       1.924  -5.302 -30.049  1.00  0.00     0.007 C
ENDBRANCH   1  31
BRANCH   2  33
HETATM   33  C5  UNL     1       5.256  -8.472 -30.270  1.00  0.00     0.001 C
HETATM   34  C6  UNL     1       5.893  -9.814 -30.130  1.00  0.00     0.005 C
ENDBRANCH   2  33
TORSDOF 11
ENDMDL