MODEL 3
REMARK VINA RESULT: -7.577997044      4.251      7.313
REMARK  14 active torsions:
REMARK  status: ('A' for Active; 'I' for Inactive)
REMARK    1  A    between atoms: C2_2  and  C5_5
REMARK    2  A    between atoms: C6_6  and  C7_7
REMARK    3  A    between atoms: C8_8  and  O1_9
REMARK    4  A    between atoms: C10_12  and  O2_13
REMARK    5  A    between atoms: C11_15  and  C13_17
REMARK    6  A    between atoms: C13_17  and  O3_18
REMARK    7  A    between atoms: O3_18  and  C14_19
REMARK    8  A    between atoms: C14_19  and  O4_20
REMARK    9  A    between atoms: C14_19  and  O5_22
REMARK   10  A    between atoms: C14_19  and  C15_24
REMARK   11  A    between atoms: C16_25  and  C17_26
REMARK   12  A    between atoms: C18_27  and  C19_28
REMARK       I    between atoms: C19_28  and  N1_30
REMARK   13  A    between atoms: N1_30  and  N2_32
REMARK   14  A    between atoms: N2_32  and  N3_33
ROOT
HETATM    1  O3  UNL     1       2.708  -9.483 -28.119  1.00  0.00    -0.329 OA
ENDROOT
BRANCH   1   2
HETATM    2  C13 UNL     1       1.940  -8.790 -27.178  1.00  0.00     0.186 C
BRANCH   2   3
HETATM    3  C11 UNL     1       0.596  -9.442 -27.131  1.00  0.00     0.013 C
HETATM    4  C7  UNL     1      -0.436  -8.650 -26.375  1.00  0.00     0.049 C
HETATM    5  C8  UNL     1       0.028  -8.752 -24.944  1.00  0.00     0.129 C
HETATM    6  C9  UNL     1       0.640 -10.109 -24.848  1.00  0.00     0.065 C
HETATM    7  C10 UNL     1       0.714 -10.684 -26.241  1.00  0.00     0.131 C
HETATM    8  C12 UNL     1       0.164  -9.793 -28.518  1.00  0.00     0.021 C
BRANCH   4   9
HETATM    9  C6  UNL     1      -0.601  -7.279 -26.845  1.00  0.00    -0.022 C
HETATM   10  C5  UNL     1      -1.785  -6.698 -26.802  1.00  0.00    -0.022 C
BRANCH  10  11
HETATM   11  C2  UNL     1      -2.020  -5.307 -27.263  1.00  0.00    -0.034 C
HETATM   12  C1  UNL     1      -0.756  -4.625 -27.726  1.00  0.00     0.018 C
HETATM   13  C3  UNL     1      -2.985  -5.328 -28.427  1.00  0.00     0.018 C
HETATM   14  C4  UNL     1      -2.618  -4.494 -26.156  1.00  0.00     0.018 C
ENDBRANCH  10  11
ENDBRANCH   4   9
BRANCH   5  15
HETATM   15  O1  UNL     1       0.837  -7.720 -24.544  1.00  0.00    -0.395 OA
ATOM     16  H1  UNL     1       0.533  -7.269 -23.764  1.00  0.00     0.210 HD
ENDBRANCH   5  15
BRANCH   7  17
HETATM   17  O2  UNL     1      -0.310 -11.568 -26.516  1.00  0.00    -0.395 OA
ATOM     18  H2  UNL     1      -0.988 -11.192 -27.065  1.00  0.00     0.210 HD
ENDBRANCH   7  17
ENDBRANCH   2   3
ENDBRANCH   1   2
BRANCH   1  19
HETATM   19  C14 UNL     1       3.629  -8.657 -28.758  1.00  0.00     0.299 C
BRANCH  19  20
HETATM   20  O4  UNL     1       3.127  -7.351 -28.758  1.00  0.00    -0.340 OA
ATOM     21  H4  UNL     1       3.826  -6.760 -28.501  1.00  0.00     0.216 HD
ENDBRANCH  19  20
BRANCH  19  22
HETATM   22  O5  UNL     1       4.861  -8.640 -28.107  1.00  0.00    -0.340 OA
ATOM     23  H5  UNL     1       5.336  -7.831 -28.258  1.00  0.00     0.216 HD
ENDBRANCH  19  22
BRANCH  19  24
HETATM   24  C15 UNL     1       3.805  -9.147 -30.128  1.00  0.00     0.073 C
HETATM   25  C16 UNL     1       4.772  -8.622 -30.911  1.00  0.00     0.004 C
BRANCH  25  26
HETATM   26  C17 UNL     1       4.952  -9.097 -32.257  1.00  0.00     0.005 C
HETATM   27  C18 UNL     1       5.741 -10.004 -32.713  1.00  0.00     0.076 C
BRANCH  27  28
HETATM   28  C19 UNL     1       6.675 -10.802 -31.982  1.00  0.00     0.271 C
HETATM   29  O6  UNL     1       6.181 -11.670 -31.159  1.00  0.00    -0.266 OA
HETATM   30  N1  UNL     1       8.066 -10.700 -32.104  1.00  0.00    -0.180 N
ATOM     31  H1  UNL     1       8.448 -10.553 -33.038  1.00  0.00     0.207 HD
BRANCH  30  32
HETATM   32  N2  UNL     1       8.861 -10.775 -31.169  1.00  0.00    -0.241 NA
BRANCH  32  33
HETATM   33  N3  UNL     1       9.734 -10.996 -30.311  1.00  0.00    -0.260 N
ATOM     34  H32 UNL     1       8.980 -11.354 -29.724  1.00  0.00     0.193 HD
ATOM     35  H31 UNL     1      10.547 -11.122 -29.707  1.00  0.00     0.193 HD
ENDBRANCH  32  33
ENDBRANCH  30  32
ENDBRANCH  27  28
ENDBRANCH  25  26
ENDBRANCH  19  24
ENDBRANCH   1  19
TORSDOF 14
ENDMDL