MODEL 3
REMARK VINA RESULT: -6.855269615      1.955      5.251
REMARK  11 active torsions:
REMARK  status: ('A' for Active; 'I' for Inactive)
REMARK    1  A    between atoms: C2_2  and  C3_3
REMARK    2  A    between atoms: C3_3  and  C4_4
REMARK    3  A    between atoms: C4_4  and  O1_5
REMARK    4  A    between atoms: C6_8  and  C7_9
REMARK    5  A    between atoms: C7_9  and  C8_10
REMARK    6  A    between atoms: C13_17  and  C14_18
REMARK    7  A    between atoms: C14_18  and  O4_19
REMARK    8  A    between atoms: C17_23  and  O5_24
REMARK    9  A    between atoms: C17_23  and  C18_26
REMARK   10  A    between atoms: C18_26  and  C19_27
REMARK   11  A    between atoms: C19_27  and  O7_29
ROOT
HETATM    1  C4  UNL     1       0.595  -8.013 -26.447  1.00  0.00     0.072 C
HETATM    2  C5  UNL     1       0.472  -6.849 -27.385  1.00  0.00     0.030 C
HETATM    3  C6  UNL     1      -0.710  -6.930 -28.297  1.00  0.00     0.003 C
HETATM    4  C9  UNL     1      -0.197  -6.842 -29.691  1.00  0.00     0.006 C
HETATM    5  C10 UNL     1       1.259  -6.468 -29.654  1.00  0.00     0.006 C
HETATM    6  C11 UNL     1       1.713  -6.814 -28.248  1.00  0.00     0.002 C
HETATM    7  C12 UNL     1       2.204  -8.187 -28.238  1.00  0.00     0.031 C
HETATM    8  C13 UNL     1       3.648  -8.422 -28.277  1.00  0.00    -0.055 C
HETATM    9  C15 UNL     1       3.989  -9.695 -27.966  1.00  0.00    -0.018 C
HETATM   10  C16 UNL     1       2.993 -10.726 -27.626  1.00  0.00     0.066 C
HETATM   11  C17 UNL     1       1.686 -10.205 -27.085  1.00  0.00     0.077 C
HETATM   12  C21 UNL     1       1.797  -8.748 -26.870  1.00  0.00     0.064 C
ENDROOT
BRANCH  11  13
HETATM   13  O5  UNL     1       0.708 -10.489 -28.069  1.00  0.00    -0.389 OA
ATOM     14  H5  UNL     1       0.341  -9.652 -28.329  1.00  0.00     0.210 HD
ENDBRANCH  11  13
BRANCH  11  15
HETATM   15  C18 UNL     1       1.348 -10.995 -25.846  1.00  0.00     0.149 C
BRANCH  15  16
HETATM   16  C19 UNL     1       0.204 -11.916 -26.074  1.00  0.00     0.261 C
HETATM   17  O6  UNL     1      -0.951 -11.420 -26.145  1.00  0.00    -0.265 OA
BRANCH  16  18
HETATM   18  O7  UNL     1       0.317 -13.278 -26.212  1.00  0.00    -0.326 OA
HETATM   19  C20 UNL     1       1.600 -13.905 -26.281  1.00  0.00     0.213 C
ENDBRANCH  16  18
ENDBRANCH  15  16
ENDBRANCH  11  15
BRANCH   1  20
HETATM   20  C3  UNL     1       0.807  -7.551 -25.003  1.00  0.00     0.065 C
BRANCH  20  21
HETATM   21  C2  UNL     1      -0.315  -7.852 -24.110  1.00  0.00    -0.034 C
HETATM   22  C1  UNL     1      -1.447  -7.178 -24.180  1.00  0.00     0.007 C
ENDBRANCH  20  21
ENDBRANCH   1  20
BRANCH   1  23
HETATM   23  O1  UNL     1      -0.596  -8.709 -26.473  1.00  0.00    -0.389 OA
ATOM     24  H1  UNL     1      -0.959  -8.668 -25.596  1.00  0.00     0.210 HD
ENDBRANCH   1  23
BRANCH   8  25
HETATM   25  C14 UNL     1       4.724  -7.487 -28.583  1.00  0.00     0.198 C
BRANCH  25  26
HETATM   26  O4  UNL     1       5.289  -7.766 -29.819  1.00  0.00    -0.397 OA
ATOM     27  H4  UNL     1       5.685  -6.989 -30.195  1.00  0.00     0.209 HD
ENDBRANCH  25  26
ENDBRANCH   8  25
BRANCH   3  28
HETATM   28  C7  UNL     1      -1.736  -5.871 -27.970  1.00  0.00     0.118 C
BRANCH  28  29
HETATM   29  C8  UNL     1      -1.137  -4.625 -27.483  1.00  0.00     0.172 C
HETATM   30  O2  UNL     1      -1.144  -4.295 -26.272  1.00  0.00    -0.648 OA
HETATM   31  O3  UNL     1      -0.531  -3.759 -28.379  1.00  0.00    -0.648 OA
ENDBRANCH  28  29
ENDBRANCH   3  28
TORSDOF 11
ENDMDL