MODEL 5
REMARK VINA RESULT: -6.809992005      2.469      3.074
REMARK  9 active torsions:
REMARK  status: ('A' for Active; 'I' for Inactive)
REMARK    1  A    between atoms: C2_2  and  C3_4
REMARK    2  A    between atoms: C3_4  and  O2_5
REMARK    3  A    between atoms: C6_9  and  O3_10
REMARK    4  A    between atoms: C10_15  and  C12_17
REMARK    5  A    between atoms: C12_17  and  C13_18
REMARK    6  A    between atoms: C13_18  and  C14_19
REMARK    7  A    between atoms: C14_19  and  C15_20
REMARK    8  A    between atoms: C15_20  and  C16_21
REMARK    9  A    between atoms: C20_27  and  C21_28
ROOT
HETATM    1  C3  UNL     1       0.007  -8.395 -24.910  1.00  0.00     0.130 C
HETATM    2  C4  UNL     1      -0.862  -7.201 -25.214  1.00  0.00     0.049 C
HETATM    3  C5  UNL     1      -0.358  -6.602 -26.509  1.00  0.00     0.036 C
HETATM    4  C6  UNL     1      -0.782  -7.603 -27.563  1.00  0.00     0.127 C
HETATM    5  C7  UNL     1      -0.083  -8.924 -27.398  1.00  0.00    -0.002 C
HETATM    6  C8  UNL     1      -1.072  -9.979 -27.913  1.00  0.00     0.019 C
HETATM    7  C9  UNL     1       1.069  -8.920 -28.394  1.00  0.00     0.022 C
HETATM    8  C10 UNL     1       2.306  -9.329 -27.648  1.00  0.00    -0.038 C
HETATM    9  C11 UNL     1       2.718 -10.688 -28.123  1.00  0.00     0.015 C
HETATM   10  C17 UNL     1       1.973  -9.189 -26.223  1.00  0.00     0.015 C
HETATM   11  C18 UNL     1       2.037 -10.396 -25.354  1.00  0.00     0.042 C
HETATM   12  C19 UNL     1       0.597 -10.637 -25.682  1.00  0.00    -0.060 C
HETATM   13  C20 UNL     1      -0.093 -11.759 -25.599  1.00  0.00     0.088 C
HETATM   14  C22 UNL     1       0.442  -9.213 -26.060  1.00  0.00     0.036 C
ENDROOT
BRANCH   8  15
HETATM   15  C12 UNL     1       3.461  -8.403 -28.072  1.00  0.00     0.010 C
BRANCH  15  16
HETATM   16  C13 UNL     1       3.002  -7.662 -29.306  1.00  0.00     0.001 C
BRANCH  16  17
HETATM   17  C14 UNL     1       2.937  -6.166 -29.068  1.00  0.00     0.010 C
BRANCH  17  18
HETATM   18  C15 UNL     1       1.630  -5.692 -29.682  1.00  0.00     0.113 C
BRANCH  18  19
HETATM   19  C16 UNL     1       1.233  -4.373 -29.128  1.00  0.00     0.172 C
HETATM   20  O4  UNL     1       2.033  -3.413 -29.028  1.00  0.00    -0.648 OA
HETATM   21  O5  UNL     1      -0.068  -4.176 -28.699  1.00  0.00    -0.648 OA
ENDBRANCH  18  19
ENDBRANCH  17  18
ENDBRANCH  16  17
ENDBRANCH  15  16
ENDBRANCH   8  15
BRANCH   4  22
HETATM   22  O3  UNL     1      -2.162  -7.767 -27.459  1.00  0.00    -0.395 OA
ATOM     23  H3  UNL     1      -2.349  -8.080 -26.582  1.00  0.00     0.210 HD
ENDBRANCH   4  22
BRANCH   1  24
HETATM   24  C2  UNL     1      -0.721  -9.133 -23.836  1.00  0.00     0.158 C
HETATM   25  C1  UNL     1      -2.203  -9.280 -23.790  1.00  0.00     0.094 C
HETATM   26  O1  UNL     1      -0.097  -9.658 -22.930  1.00  0.00    -0.295 OA
ENDBRANCH   1  24
BRANCH   1  27
HETATM   27  O2  UNL     1       1.158  -7.858 -24.270  1.00  0.00    -0.381 OA
ATOM     28  H2  UNL     1       0.906  -7.754 -23.360  1.00  0.00     0.211 HD
ENDBRANCH   1  27
BRANCH  13  29
HETATM   29  C21 UNL     1       0.448 -13.029 -25.150  1.00  0.00     0.198 C
HETATM   30  O6  UNL     1       0.915 -13.213 -23.995  1.00  0.00    -0.644 OA
HETATM   31  O7  UNL     1       0.469 -14.119 -26.017  1.00  0.00    -0.644 OA
ENDBRANCH  13  29
TORSDOF 9
ENDMDL