MODEL 4
REMARK VINA RESULT: -6.525576828      3.106      5.207
REMARK  11 active torsions:
REMARK  status: ('A' for Active; 'I' for Inactive)
REMARK    1  A    between atoms: C3_3  and  C4_4
REMARK    2  A    between atoms: C4_4  and  N1_5
REMARK    3  A    between atoms: N1_5  and  C5_6
REMARK       I    between atoms: N1_5  and  C7_8
REMARK       I    between atoms: C7_8  and  N2_10
REMARK    4  A    between atoms: N2_10  and  C8_12
REMARK    5  A    between atoms: C8_12  and  N3_14
REMARK    6  A    between atoms: N3_14  and  C9_16
REMARK    7  A    between atoms: C9_16  and  C10_17
REMARK    8  A    between atoms: C9_16  and  C13_26
REMARK    9  A    between atoms: C12_20  and  N4_21
REMARK   10  A    between atoms: C13_26  and  O2_28
REMARK   11  A    between atoms: O2_28  and  C15_29
ROOT
HETATM    1  C9  UNL     1       0.268 -12.736 -23.519  1.00  0.00     0.163 C
ENDROOT
BRANCH   1   2
HETATM    2  N3  UNL     1      -0.245 -12.206 -24.748  1.00  0.00    -0.354 N
ATOM      3  H3  UNL     1      -1.244 -12.258 -24.945  1.00  0.00     0.162 HD
BRANCH   2   4
HETATM    4  C8  UNL     1       0.627 -11.613 -25.686  1.00  0.00     0.176 C
HETATM    5  S1  UNL     1       1.730 -12.485 -26.505  1.00  0.00    -0.041 SA
BRANCH   4   6
HETATM    6  N2  UNL     1       0.544 -10.219 -25.925  1.00  0.00    -0.285 N
HETATM    7  C7  UNL     1      -0.711  -9.576 -26.070  1.00  0.00     0.324 C
HETATM    8  N1  UNL     1      -0.831  -8.192 -26.309  1.00  0.00    -0.331 N
HETATM    9  O1  UNL     1      -1.805 -10.226 -25.990  1.00  0.00    -0.247 OA
ATOM     10  H2  UNL     1       1.402  -9.670 -25.993  1.00  0.00     0.173 HD
BRANCH   8  11
HETATM   11  C4  UNL     1      -2.126  -7.568 -26.440  1.00  0.00     0.154 C
BRANCH  11  12
HETATM   12  C3  UNL     1      -2.199  -6.260 -25.753  1.00  0.00    -0.011 C
HETATM   13  C2  UNL     1      -2.525  -5.132 -26.366  1.00  0.00    -0.033 C
HETATM   14  C1  UNL     1      -2.588  -3.836 -25.641  1.00  0.00     0.036 C
ENDBRANCH  11  12
ENDBRANCH   8  11
BRANCH   8  15
HETATM   15  C5  UNL     1       0.339  -7.363 -26.440  1.00  0.00     0.123 C
HETATM   16  C6  UNL     1       0.731  -7.143 -27.885  1.00  0.00     0.026 C
ENDBRANCH   8  15
ENDBRANCH   4   6
ENDBRANCH   2   4
ENDBRANCH   1   2
BRANCH   1  17
HETATM   17  C10 UNL     1       0.401 -14.261 -23.580  1.00  0.00     0.043 A
HETATM   18  C11 UNL     1       1.306 -14.911 -22.778  1.00  0.00     0.080 A
HETATM   19  S2  UNL     1       1.077 -16.540 -23.212  1.00  0.00    -0.064 SA
HETATM   20  C12 UNL     1      -0.141 -16.321 -24.377  1.00  0.00     0.142 A
HETATM   21  N5  UNL     1      -0.324 -15.007 -24.387  1.00  0.00    -0.338 N
ATOM     22  H5  UNL     1      -1.013 -14.583 -25.009  1.00  0.00     0.168 HD
BRANCH  20  23
HETATM   23  N4  UNL     1      -0.762 -17.229 -25.102  1.00  0.00    -0.380 N
ATOM     24  H42 UNL     1      -1.469 -17.898 -24.796  1.00  0.00     0.158 HD
ATOM     25  H41 UNL     1      -0.656 -17.435 -26.096  1.00  0.00     0.158 HD
ENDBRANCH  20  23
ENDBRANCH   1  17
BRANCH   1  26
HETATM   26  C13 UNL     1      -0.630 -12.361 -22.336  1.00  0.00     0.156 C
HETATM   27  C14 UNL     1      -0.956 -10.889 -22.322  1.00  0.00     0.042 C
BRANCH  26  28
HETATM   28  O2  UNL     1      -1.766 -13.168 -22.284  1.00  0.00    -0.314 OA
BRANCH  28  29
HETATM   29  C15 UNL     1      -2.305 -13.529 -21.068  1.00  0.00     0.255 C
HETATM   30  C16 UNL     1      -1.712 -14.573 -20.211  1.00  0.00     0.126 C
HETATM   31  O3  UNL     1      -3.341 -12.944 -20.685  1.00  0.00    -0.266 OA
ENDBRANCH  28  29
ENDBRANCH  26  28
ENDBRANCH   1  26
TORSDOF 11
ENDMDL