MODEL 3
REMARK VINA RESULT: -8.046342435      2.552      4.784
REMARK  11 active torsions:
REMARK  status: ('A' for Active; 'I' for Inactive)
REMARK    1  A    between atoms: C4_4  and  C5_5
REMARK    2  A    between atoms: C5_5  and  C6_6
REMARK    3  A    between atoms: C7_7  and  O1_8
REMARK    4  A    between atoms: C8_10  and  O2_11
REMARK    5  A    between atoms: C10_14  and  O3_15
REMARK    6  A    between atoms: C16_22  and  C17_23
REMARK    7  A    between atoms: C17_23  and  C18_24
REMARK    8  A    between atoms: C18_24  and  C19_25
REMARK    9  A    between atoms: C19_25  and  O5_27
REMARK   10  A    between atoms: O5_27  and  C20_28
REMARK   11  A    between atoms: C20_28  and  C21_29
ROOT
HETATM    1  C1  UNL     1       2.673  -9.392 -26.146  1.00  0.00     0.015 C
HETATM    2  C2  UNL     1       1.430  -9.818 -26.887  1.00  0.00    -0.037 C
HETATM    3  C3  UNL     1       1.925  -9.849 -28.374  1.00  0.00     0.015 C
HETATM    4  C4  UNL     1       1.162 -11.238 -26.609  1.00  0.00     0.026 C
HETATM    5  C8  UNL     1       0.261 -11.661 -25.530  1.00  0.00     0.126 C
HETATM    6  C9  UNL     1      -0.995 -10.863 -25.542  1.00  0.00     0.070 C
HETATM    7  C10 UNL     1      -0.740  -9.603 -24.805  1.00  0.00     0.068 C
HETATM    8  C11 UNL     1      -2.081  -9.235 -24.167  1.00  0.00     0.038 C
HETATM    9  C12 UNL     1      -2.860  -8.786 -25.376  1.00  0.00     0.004 C
HETATM   10  C13 UNL     1      -1.806  -8.000 -26.132  1.00  0.00     0.012 C
HETATM   11  C14 UNL     1      -0.422  -8.446 -25.728  1.00  0.00    -0.009 C
HETATM   12  C15 UNL     1       0.140  -7.364 -24.869  1.00  0.00     0.019 C
HETATM   13  C16 UNL     1       0.332  -8.824 -26.937  1.00  0.00     0.005 C
ENDROOT
BRANCH  13  14
HETATM   14  C17 UNL     1       0.826  -7.622 -27.672  1.00  0.00     0.016 C
BRANCH  14  15
HETATM   15  C18 UNL     1       0.012  -7.014 -28.751  1.00  0.00     0.111 C
BRANCH  15  16
HETATM   16  C19 UNL     1      -0.192  -5.519 -28.437  1.00  0.00     0.259 C
HETATM   17  O4  UNL     1       0.720  -4.740 -28.777  1.00  0.00    -0.265 OA
BRANCH  16  18
HETATM   18  O5  UNL     1      -1.308  -5.053 -27.819  1.00  0.00    -0.311 OA
BRANCH  18  19
HETATM   19  C20 UNL     1      -1.218  -4.233 -26.671  1.00  0.00     0.291 C
BRANCH  19  20
HETATM   20  C21 UNL     1      -2.522  -4.192 -25.941  1.00  0.00     0.198 C
HETATM   21  O6  UNL     1      -2.759  -3.326 -25.064  1.00  0.00    -0.646 OA
HETATM   22  O7  UNL     1      -3.471  -5.148 -26.263  1.00  0.00    -0.646 OA
ENDBRANCH  19  20
ENDBRANCH  18  19
ENDBRANCH  16  18
ENDBRANCH  15  16
ENDBRANCH  14  15
ENDBRANCH  13  14
BRANCH   4  23
HETATM   23  C5  UNL     1       2.464 -11.986 -26.408  1.00  0.00     0.037 C
BRANCH  23  24
HETATM   24  C6  UNL     1       2.742 -13.032 -27.415  1.00  0.00    -0.002 C
HETATM   25  C7  UNL     1       2.685 -14.325 -27.111  1.00  0.00     0.127 C
BRANCH  25  26
HETATM   26  O1  UNL     1       2.351 -14.681 -25.811  1.00  0.00    -0.373 OA
ATOM     27  H1  UNL     1       1.672 -15.333 -25.684  1.00  0.00     0.216 HD
ENDBRANCH  25  26
ENDBRANCH  23  24
ENDBRANCH   4  23
BRANCH   7  28
HETATM   28  O3  UNL     1       0.172  -9.697 -23.791  1.00  0.00    -0.389 OA
ATOM     29  H3  UNL     1      -0.190  -9.919 -22.941  1.00  0.00     0.210 HD
ENDBRANCH   7  28
BRANCH   5  30
HETATM   30  O2  UNL     1      -0.173 -12.984 -25.805  1.00  0.00    -0.395 OA
ATOM     31  H2  UNL     1       0.364 -13.585 -25.301  1.00  0.00     0.210 HD
ENDBRANCH   5  30
TORSDOF 11
ENDMDL