MODEL 1
REMARK VINA RESULT: -8.320968067      0.000      0.000
REMARK  10 active torsions:
REMARK  status: ('A' for Active; 'I' for Inactive)
REMARK    1  A    between atoms: C2_2  and  O1_3
REMARK    2  A    between atoms: O1_3  and  C3_4
REMARK    3  A    between atoms: C3_4  and  C4_6
REMARK    4  A    between atoms: C5_10  and  N2_11
REMARK    5  A    between atoms: N2_11  and  C6_13
REMARK    6  A    between atoms: C6_13  and  N3_15
REMARK       I    between atoms: N3_15  and  C7_16
REMARK    7  A    between atoms: C7_16  and  C8_18
REMARK    8  A    between atoms: C8_18  and  C9_19
REMARK    9  A    between atoms: C9_19  and  N4_20
REMARK       I    between atoms: N4_20  and  C10_22
REMARK   10  A    between atoms: C10_22  and  C11_24
ROOT
HETATM    1  N3  UNL     1       0.584 -10.866 -26.814  1.00  0.00    -0.341 NA
HETATM    2  C7  UNL     1       0.772 -10.247 -27.927  1.00  0.00     0.295 C
HETATM    3  O3  UNL     1      -0.058 -10.045 -28.885  1.00  0.00    -0.257 OA
ENDROOT
BRANCH   1   4
HETATM    4  C6  UNL     1       0.346 -11.549 -25.612  1.00  0.00     0.254 C
HETATM    5  S2  UNL     1       1.621 -12.555 -25.239  1.00  0.00    -0.025 SA
BRANCH   4   6
HETATM    6  N2  UNL     1      -0.723 -11.408 -24.779  1.00  0.00    -0.313 N
ATOM      7  H2  UNL     1      -1.219 -12.299 -24.740  1.00  0.00     0.170 HD
BRANCH   6   8
HETATM    8  C5  UNL     1      -1.395 -10.493 -23.954  1.00  0.00     0.127 A
HETATM    9  C4  UNL     1      -2.098 -10.320 -22.828  1.00  0.00     0.150 A
HETATM   10  N1  UNL     1      -2.206  -8.976 -22.919  1.00  0.00    -0.317 N
HETATM   11  S1  UNL     1      -1.410  -8.752 -24.292  1.00  0.00     0.007 SA
ATOM     12  H1  UNL     1      -2.659  -8.305 -22.300  1.00  0.00     0.175 HD
BRANCH   9  13
HETATM   13  C3  UNL     1      -2.622 -11.208 -21.759  1.00  0.00     0.313 C
HETATM   14  O2  UNL     1      -3.405 -10.927 -20.881  1.00  0.00    -0.257 OA
BRANCH  13  15
HETATM   15  O1  UNL     1      -2.166 -12.566 -21.715  1.00  0.00    -0.317 OA
BRANCH  15  16
HETATM   16  C2  UNL     1      -2.997 -13.521 -21.049  1.00  0.00     0.175 C
HETATM   17  C1  UNL     1      -2.480 -14.894 -21.419  1.00  0.00     0.034 C
ENDBRANCH  15  16
ENDBRANCH  13  15
ENDBRANCH   9  13
ENDBRANCH   6   8
ENDBRANCH   4   6
ENDBRANCH   1   4
BRANCH   2  18
HETATM   18  C8  UNL     1       2.130  -9.616 -28.317  1.00  0.00     0.139 C
BRANCH  18  19
HETATM   19  C9  UNL     1       2.078  -8.135 -28.253  1.00  0.00     0.133 C
BRANCH  19  20
HETATM   20  N4  UNL     1       1.077  -7.515 -27.474  1.00  0.00    -0.360 N
HETATM   21  C10 UNL     1       0.076  -6.676 -27.891  1.00  0.00     0.221 C
HETATM   22  O4  UNL     1      -0.062  -6.366 -29.126  1.00  0.00    -0.273 OA
ATOM     23  H4  UNL     1       1.101  -7.718 -26.474  1.00  0.00     0.162 HD
BRANCH  21  24
HETATM   24  C11 UNL     1      -0.936  -6.037 -26.977  1.00  0.00     0.078 C
HETATM   25  C12 UNL     1      -0.616  -4.577 -26.860  1.00  0.00     0.014 C
HETATM   26  C13 UNL     1      -1.875  -3.767 -26.571  1.00  0.00     0.001 C
HETATM   27  C14 UNL     1      -2.849  -4.627 -25.778  1.00  0.00     0.000 C
HETATM   28  C15 UNL     1      -3.412  -5.741 -26.636  1.00  0.00     0.001 C
HETATM   29  C16 UNL     1      -2.296  -6.370 -27.463  1.00  0.00     0.014 C
ENDBRANCH  21  24
ENDBRANCH  19  20
ENDBRANCH  18  19
ENDBRANCH   2  18
TORSDOF 10
ENDMDL