MODEL 2
REMARK VINA RESULT: -8.182825906      1.220      1.632
REMARK  8 active torsions:
REMARK  status: ('A' for Active; 'I' for Inactive)
REMARK    1  A    between atoms: C2_2  and  C3_3
REMARK    2  A    between atoms: C3_3  and  C4_4
REMARK    3  A    between atoms: C4_4  and  N1_5
REMARK       I    between atoms: N1_5  and  C5_7
REMARK    4  A    between atoms: C5_7  and  C6_9
REMARK    5  A    between atoms: C6_9  and  S1_10
REMARK    6  A    between atoms: S1_10  and  C7_11
REMARK    7  A    between atoms: C9_16  and  N3_17
REMARK       I    between atoms: N3_17  and  C10_19
REMARK       I    between atoms: C10_19  and  N4_21
REMARK       I    between atoms: N4_21  and  C11_23
REMARK    8  A    between atoms: C11_23  and  C12_25
ROOT
HETATM    1  C7  UNL     1       1.156 -12.664 -24.395  1.00  0.00     0.147 A
HETATM    2  N2  UNL     1      -0.081 -12.170 -24.136  1.00  0.00    -0.302 N
ATOM      3  H2  UNL     1      -0.731 -12.761 -23.619  1.00  0.00     0.171 HD
HETATM    4  C8  UNL     1      -0.502 -10.970 -24.509  1.00  0.00     0.276 A
HETATM    5  O2  UNL     1      -1.647 -10.524 -24.262  1.00  0.00    -0.266 OA
HETATM    6  C9  UNL     1       0.393 -10.181 -25.211  1.00  0.00     0.127 A
HETATM    7  C16 UNL     1       1.652 -10.645 -25.492  1.00  0.00     0.040 A
HETATM    8  C17 UNL     1       2.610  -9.790 -26.238  1.00  0.00     0.071 C
HETATM    9  N5  UNL     1       2.002 -11.888 -25.072  1.00  0.00    -0.338 N
ATOM     10  H5  UNL     1       2.938 -12.237 -25.281  1.00  0.00     0.168 HD
ENDROOT
BRANCH   6  11
HETATM   11  N3  UNL     1      -0.067  -8.882 -25.630  1.00  0.00    -0.302 N
HETATM   12  C10 UNL     1      -0.648  -8.689 -26.895  1.00  0.00     0.327 C
HETATM   13  O3  UNL     1      -0.768  -9.725 -27.666  1.00  0.00    -0.247 OA
HETATM   14  N4  UNL     1      -1.107  -7.470 -27.388  1.00  0.00    -0.278 N
HETATM   15  C11 UNL     1      -1.071  -6.232 -26.731  1.00  0.00     0.233 C
ATOM     16  H4  UNL     1      -1.513  -7.479 -28.324  1.00  0.00     0.173 HD
HETATM   17  O4  UNL     1      -0.606  -6.108 -25.587  1.00  0.00    -0.272 OA
ATOM     18  H3  UNL     1       0.030  -8.087 -24.997  1.00  0.00     0.171 HD
BRANCH  15  19
HETATM   19  C12 UNL     1      -1.619  -5.013 -27.443  1.00  0.00     0.030 C
HETATM   20  C13 UNL     1      -0.533  -4.265 -28.149  1.00  0.00     0.025 C
HETATM   21  C14 UNL     1      -2.748  -5.413 -28.343  1.00  0.00     0.025 C
HETATM   22  C15 UNL     1      -2.161  -4.073 -26.355  1.00  0.00     0.025 C
ENDBRANCH  15  19
ENDBRANCH   6  11
BRANCH   1  23
HETATM   23  S1  UNL     1       1.490 -14.286 -23.791  1.00  0.00    -0.085 SA
BRANCH  23  24
HETATM   24  C6  UNL     1       0.035 -15.190 -23.285  1.00  0.00     0.185 C
BRANCH  24  25
HETATM   25  C5  UNL     1      -0.632 -14.713 -22.078  1.00  0.00     0.227 C
HETATM   26  N1  UNL     1      -1.748 -15.388 -21.439  1.00  0.00    -0.360 N
ATOM     27  H1  UNL     1      -2.129 -16.238 -21.854  1.00  0.00     0.162 HD
HETATM   28  O1  UNL     1      -0.246 -13.665 -21.535  1.00  0.00    -0.273 OA
BRANCH  26  29
HETATM   29  C4  UNL     1      -2.325 -14.864 -20.217  1.00  0.00     0.122 C
BRANCH  29  30
HETATM   30  C3  UNL     1      -2.199 -15.900 -19.130  1.00  0.00     0.019 C
BRANCH  30  31
HETATM   31  C2  UNL     1      -1.397 -15.444 -17.940  1.00  0.00    -0.003 C
HETATM   32  C1  UNL     1       0.021 -15.085 -18.332  1.00  0.00     0.005 C
ENDBRANCH  30  31
ENDBRANCH  29  30
ENDBRANCH  26  29
ENDBRANCH  24  25
ENDBRANCH  23  24
ENDBRANCH   1  23
TORSDOF 8
ENDMDL