MODEL 5
REMARK VINA RESULT: -7.234197723      3.098      4.843
REMARK  11 active torsions:
REMARK  status: ('A' for Active; 'I' for Inactive)
REMARK    1  A    between atoms: O1_2  and  C2_3
REMARK    2  A    between atoms: C2_3  and  C3_5
REMARK    3  A    between atoms: C3_5  and  C4_6
REMARK    4  A    between atoms: C4_6  and  C5_7
REMARK    5  A    between atoms: C5_7  and  C6_8
REMARK    6  A    between atoms: C6_8  and  C7_9
REMARK    7  A    between atoms: C9_11  and  S1_12
REMARK    8  A    between atoms: S1_12  and  N1_15
REMARK    9  A    between atoms: N1_15  and  C10_17
REMARK   10  A    between atoms: C10_17  and  C13_20
REMARK   11  A    between atoms: C17_24  and  N2_25
ROOT
HETATM    1  C7  UNL     1       3.268  -8.663 -28.518  1.00  0.00    -0.015 A
HETATM    2  C8  UNL     1       1.926  -8.515 -28.239  1.00  0.00     0.039 A
HETATM    3  C9  UNL     1       1.287  -9.386 -27.348  1.00  0.00     0.123 A
HETATM    4  C17 UNL     1       2.106 -10.362 -26.805  1.00  0.00     0.123 A
HETATM    5  N3  UNL     1       3.413 -10.485 -27.091  1.00  0.00    -0.330 N
ATOM      6  H3  UNL     1       3.949 -11.232 -26.647  1.00  0.00     0.168 HD
HETATM    7  C18 UNL     1       4.039  -9.655 -27.946  1.00  0.00     0.124 A
HETATM    8  N4  UNL     1       5.425  -9.833 -28.212  1.00  0.00    -0.082 NA
ENDROOT
BRANCH   3   9
HETATM    9  S1  UNL     1      -0.411  -9.235 -26.981  1.00  0.00     0.263 S
HETATM   10  O3  UNL     1      -1.066 -10.497 -27.487  1.00  0.00    -0.200 OA
HETATM   11  O4  UNL     1      -0.604  -9.302 -25.453  1.00  0.00    -0.200 OA
BRANCH   9  12
HETATM   12  N1  UNL     1      -1.123  -7.816 -27.511  1.00  0.00    -0.305 N
ATOM     13  H1  UNL     1      -1.326  -7.689 -28.503  1.00  0.00     0.173 HD
BRANCH  12  14
HETATM   14  C10 UNL     1      -1.445  -6.791 -26.588  1.00  0.00     0.040 C
HETATM   15  C11 UNL     1      -0.290  -6.564 -25.613  1.00  0.00     0.039 C
HETATM   16  C12 UNL     1      -2.726  -7.039 -25.845  1.00  0.00     0.039 C
BRANCH  14  17
HETATM   17  C13 UNL     1      -1.581  -5.505 -27.409  1.00  0.00    -0.026 C
HETATM   18  C14 UNL     1      -2.736  -5.597 -28.359  1.00  0.00     0.017 C
HETATM   19  C15 UNL     1      -0.304  -5.291 -28.226  1.00  0.00     0.017 C
HETATM   20  C16 UNL     1      -1.770  -4.307 -26.520  1.00  0.00     0.017 C
ENDBRANCH  14  17
ENDBRANCH  12  14
ENDBRANCH   9  12
ENDBRANCH   3   9
BRANCH   4  21
HETATM   21  N2  UNL     1       1.552 -11.203 -25.976  1.00  0.00    -0.384 N
ATOM     22  H22 UNL     1       0.549 -11.142 -25.799  1.00  0.00     0.157 HD
ATOM     23  H21 UNL     1       2.165 -11.888 -25.535  1.00  0.00     0.157 HD
ENDBRANCH   4  21
BRANCH   1  24
HETATM   24  C6  UNL     1       3.954  -7.748 -29.458  1.00  0.00     0.042 C
BRANCH  24  25
HETATM   25  C5  UNL     1       3.783  -8.198 -30.898  1.00  0.00     0.005 C
BRANCH  25  26
HETATM   26  C4  UNL     1       5.121  -8.391 -31.572  1.00  0.00     0.010 C
BRANCH  26  27
HETATM   27  C3  UNL     1       5.125  -9.698 -32.304  1.00  0.00     0.111 C
BRANCH  27  28
HETATM   28  C2  UNL     1       5.826  -9.669 -33.583  1.00  0.00     0.258 C
HETATM   29  O2  UNL     1       7.072  -9.846 -33.620  1.00  0.00    -0.265 OA
BRANCH  28  30
HETATM   30  O1  UNL     1       5.208  -9.456 -34.813  1.00  0.00    -0.326 OA
HETATM   31  C1  UNL     1       5.980  -9.191 -35.976  1.00  0.00     0.213 C
ENDBRANCH  28  30
ENDBRANCH  27  28
ENDBRANCH  26  27
ENDBRANCH  25  26
ENDBRANCH  24  25
ENDBRANCH   1  24
TORSDOF 11
ENDMDL