MODEL 2
REMARK VINA RESULT: -7.571748814      1.107      1.487
REMARK  14 active torsions:
REMARK  status: ('A' for Active; 'I' for Inactive)
REMARK    1  A    between atoms: C2_2  and  O2_4
REMARK    2  A    between atoms: O2_4  and  C3_5
REMARK    3  A    between atoms: C3_5  and  C4_6
REMARK    4  A    between atoms: C4_6  and  C5_7
REMARK    5  A    between atoms: C5_7  and  C6_8
REMARK    6  A    between atoms: C6_8  and  C7_9
REMARK    7  A    between atoms: C11_13  and  C12_14
REMARK    8  A    between atoms: C13_15  and  O3_16
REMARK    9  A    between atoms: C14_18  and  O4_19
REMARK   10  A    between atoms: C19_25  and  C20_26
REMARK   11  A    between atoms: C20_26  and  C21_27
REMARK   12  A    between atoms: C21_27  and  O5_28
REMARK   13  A    between atoms: C21_27  and  C22_30
REMARK   14  A    between atoms: C22_30  and  O6_31
ROOT
HETATM    1  C7  UNL     1       0.774  -7.106 -27.869  1.00  0.00    -0.005 C
HETATM    2  C8  UNL     1      -0.353  -6.619 -28.691  1.00  0.00     0.014 C
HETATM    3  C9  UNL     1      -1.275  -5.629 -28.022  1.00  0.00     0.014 C
HETATM    4  C10 UNL     1      -0.523  -4.468 -27.418  1.00  0.00     0.015 C
HETATM    5  C11 UNL     1      -2.133  -6.334 -27.091  1.00  0.00    -0.040 C
HETATM    6  C14 UNL     1      -1.692  -7.086 -25.906  1.00  0.00     0.089 C
HETATM    7  C15 UNL     1      -2.580  -8.335 -25.796  1.00  0.00     0.044 C
HETATM    8  C16 UNL     1      -1.323  -9.004 -25.287  1.00  0.00     0.016 C
HETATM    9  C17 UNL     1      -0.459  -7.825 -25.806  1.00  0.00    -0.005 C
HETATM   10  C18 UNL     1       0.401  -7.209 -24.676  1.00  0.00     0.019 C
HETATM   11  C19 UNL     1       0.328  -8.257 -26.939  1.00  0.00     0.004 C
ENDROOT
BRANCH   1  12
HETATM   12  C6  UNL     1       1.881  -7.577 -28.775  1.00  0.00     0.031 C
BRANCH  12  13
HETATM   13  C5  UNL     1       2.909  -6.570 -29.112  1.00  0.00    -0.028 C
BRANCH  13  14
HETATM   14  C4  UNL     1       4.178  -6.798 -28.910  1.00  0.00    -0.004 C
BRANCH  14  15
HETATM   15  C3  UNL     1       4.715  -8.143 -28.693  1.00  0.00     0.206 C
BRANCH  15  16
HETATM   16  O2  UNL     1       5.348  -8.606 -29.862  1.00  0.00    -0.318 OA
BRANCH  16  17
HETATM   17  C2  UNL     1       4.710  -9.304 -30.843  1.00  0.00     0.255 C
HETATM   18  C1  UNL     1       4.943  -9.032 -32.267  1.00  0.00     0.126 C
HETATM   19  O1  UNL     1       3.899 -10.206 -30.523  1.00  0.00    -0.266 OA
ENDBRANCH  16  17
ENDBRANCH  15  16
ENDBRANCH  14  15
ENDBRANCH  13  14
ENDBRANCH  12  13
ENDBRANCH   1  12
BRANCH  11  20
HETATM   20  C20 UNL     1       1.513  -9.081 -26.661  1.00  0.00     0.039 C
BRANCH  20  21
HETATM   21  C21 UNL     1       1.500 -10.395 -26.003  1.00  0.00     0.142 C
BRANCH  21  22
HETATM   22  O5  UNL     1       2.254 -10.592 -24.869  1.00  0.00    -0.393 OA
ATOM     23  H5  UNL     1       2.027 -11.297 -24.274  1.00  0.00     0.210 HD
ENDBRANCH  21  22
BRANCH  21  24
HETATM   24  C22 UNL     1       2.067 -11.481 -26.960  1.00  0.00     0.195 C
BRANCH  24  25
HETATM   25  O6  UNL     1       2.285 -10.964 -28.210  1.00  0.00    -0.398 OA
ATOM     26  H6  UNL     1       1.495 -11.002 -28.735  1.00  0.00     0.209 HD
ENDBRANCH  24  25
ENDBRANCH  21  24
ENDBRANCH  20  21
ENDBRANCH  11  20
BRANCH   5  27
HETATM   27  C12 UNL     1      -3.432  -6.327 -27.248  1.00  0.00     0.030 C
HETATM   28  C13 UNL     1      -4.341  -6.066 -28.343  1.00  0.00     0.131 C
BRANCH  28  29
HETATM   29  O3  UNL     1      -3.915  -5.733 -29.573  1.00  0.00    -0.373 OA
ATOM     30  H3  UNL     1      -4.491  -5.723 -30.328  1.00  0.00     0.216 HD
ENDBRANCH  28  29
ENDBRANCH   5  27
BRANCH   6  31
HETATM   31  O4  UNL     1      -1.995  -6.295 -24.764  1.00  0.00    -0.384 OA
ATOM     32  H4  UNL     1      -2.569  -6.808 -24.207  1.00  0.00     0.211 HD
ENDBRANCH   6  31
TORSDOF 14
ENDMDL