MODEL 2
REMARK VINA RESULT: -6.952606548      3.015      5.584
REMARK  12 active torsions:
REMARK  status: ('A' for Active; 'I' for Inactive)
REMARK    1  A    between atoms: O1_2  and  C2_3
REMARK    2  A    between atoms: C2_3  and  C3_4
REMARK    3  A    between atoms: C3_4  and  O2_5
REMARK    4  A    between atoms: O2_5  and  C4_6
REMARK    5  A    between atoms: C7_9  and  O3_10
REMARK    6  A    between atoms: O3_10  and  C8_11
REMARK    7  A    between atoms: C8_11  and  C9_12
REMARK    8  A    between atoms: C9_12  and  N1_13
REMARK    9  A    between atoms: N1_13  and  C10_16
REMARK   10  A    between atoms: C10_16  and  C11_17
REMARK   11  A    between atoms: C12_18  and  C13_19
REMARK   12  A    between atoms: C20_35  and  N6_36
ROOT
HETATM    1  C11 UNL     1      11.973  43.039  -9.062  1.00  0.00     0.008 A
HETATM    2  C12 UNL     1      13.345  43.275  -9.364  1.00  0.00     0.024 A
HETATM    3  N2  UNL     1      13.349  44.103 -10.394  1.00  0.00    -0.344 N
ATOM      4  H2  UNL     1      14.195  44.450 -10.845  1.00  0.00     0.167 HD
HETATM    5  C18 UNL     1      12.088  44.434 -10.779  1.00  0.00     0.136 A
HETATM    6  N3  UNL     1      11.575  45.311 -11.690  1.00  0.00    -0.176 N
ATOM      7  H3  UNL     1      12.222  45.788 -12.318  1.00  0.00     0.186 HD
HETATM    8  C19 UNL     1      10.271  45.579 -11.804  1.00  0.00     0.679 A
HETATM    9  N4  UNL     1       9.834  46.401 -12.739  1.00  0.00    -0.234 N
ATOM     10  H41 UNL     1       8.839  46.605 -12.826  1.00  0.00     0.174 HD
ATOM     11  H42 UNL     1      10.488  46.879 -13.359  1.00  0.00     0.174 HD
HETATM   12  N5  UNL     1       9.389  44.935 -10.968  1.00  0.00    -0.176 N
ATOM     13  H5  UNL     1       8.389  45.122 -11.037  1.00  0.00     0.186 HD
HETATM   14  C20 UNL     1       9.852  44.052 -10.053  1.00  0.00     0.129 A
HETATM   15  C21 UNL     1      11.228  43.772  -9.937  1.00  0.00     0.062 A
ENDROOT
BRANCH   1  16
HETATM   16  C10 UNL     1      11.606  42.248  -7.904  1.00  0.00     0.274 C
BRANCH  16  17
HETATM   17  N1  UNL     1      11.268  40.844  -8.404  1.00  0.00    -0.069 N
ATOM     18  H12 UNL     1      11.514  40.617  -9.368  1.00  0.00     0.277 HD
ATOM     19  H11 UNL     1      10.283  40.621  -8.548  1.00  0.00     0.277 HD
BRANCH  17  20
HETATM   20  C9  UNL     1      12.007  40.090  -7.289  1.00  0.00     0.259 C
BRANCH  20  21
HETATM   21  C8  UNL     1      12.631  38.841  -7.892  1.00  0.00     0.203 C
BRANCH  21  22
HETATM   22  O3  UNL     1      13.593  39.380  -8.832  1.00  0.00    -0.349 OA
BRANCH  22  23
HETATM   23  C7  UNL     1      13.605  38.717 -10.068  1.00  0.00     0.069 A
HETATM   24  C6  UNL     1      13.307  37.386 -10.082  1.00  0.00     0.039 A
HETATM   25  C5  UNL     1      13.298  36.629 -11.230  1.00  0.00     0.040 A
HETATM   26  C4  UNL     1      13.605  37.260 -12.441  1.00  0.00     0.074 A
HETATM   27  C23 UNL     1      13.928  38.647 -12.445  1.00  0.00    -0.026 A
HETATM   28  C22 UNL     1      13.907  39.312 -11.265  1.00  0.00     0.046 A
HETATM   29  C24 UNL     1      14.382  39.221 -13.744  1.00  0.00     0.051 C
BRANCH  26  30
HETATM   30  O2  UNL     1      13.584  36.592 -13.549  1.00  0.00    -0.349 OA
BRANCH  30  31
HETATM   31  C3  UNL     1      13.342  35.734 -14.500  1.00  0.00     0.201 C
BRANCH  31  32
HETATM   32  C2  UNL     1      13.882  36.097 -15.891  1.00  0.00     0.193 C
BRANCH  32  33
HETATM   33  O1  UNL     1      12.988  35.883 -16.911  1.00  0.00    -0.394 OA
HETATM   34  C1  UNL     1      13.503  35.390 -18.087  1.00  0.00     0.201 C
ENDBRANCH  32  33
ENDBRANCH  31  32
ENDBRANCH  30  31
ENDBRANCH  26  30
ENDBRANCH  22  23
ENDBRANCH  21  22
ENDBRANCH  20  21
ENDBRANCH  17  20
ENDBRANCH  16  17
ENDBRANCH   1  16
BRANCH   2  35
HETATM   35  C13 UNL     1      14.491  42.648  -8.646  1.00  0.00     0.036 C
HETATM   36  C14 UNL     1      14.979  43.686  -7.602  1.00  0.00     0.011 C
HETATM   37  C15 UNL     1      16.190  44.309  -8.140  1.00  0.00     0.001 C
HETATM   38  C16 UNL     1      16.771  43.365  -9.163  1.00  0.00     0.001 C
HETATM   39  C17 UNL     1      15.727  42.311  -9.404  1.00  0.00     0.011 C
ENDBRANCH   2  35
BRANCH  14  40
HETATM   40  N6  UNL     1       9.057  43.558  -9.197  1.00  0.00    -0.384 N
ATOM     41  H62 UNL     1       8.592  42.676  -9.414  1.00  0.00     0.157 HD
ATOM     42  H61 UNL     1       8.970  43.991  -8.278  1.00  0.00     0.157 HD
ENDBRANCH  14  40
TORSDOF 12
ENDMDL