MODEL 1
REMARK VINA RESULT: -7.811481172      0.000      0.000
REMARK  13 active torsions:
REMARK  status: ('A' for Active; 'I' for Inactive)
REMARK    1  A    between atoms: C2_2  and  C3_3
REMARK    2  A    between atoms: C3_3  and  C4_4
REMARK    3  A    between atoms: C4_4  and  C5_5
REMARK    4  A    between atoms: C5_5  and  C6_6
REMARK    5  A    between atoms: C6_6  and  C7_7
REMARK    6  A    between atoms: C8_9  and  O2_10
REMARK    7  A    between atoms: C9_12  and  C10_13
REMARK    8  A    between atoms: C10_13  and  C11_14
REMARK    9  A    between atoms: C11_14  and  C12_15
REMARK   10  A    between atoms: C15_21  and  C16_22
REMARK   11  A    between atoms: C16_22  and  N2_23
REMARK   12  A    between atoms: C16_22  and  C17_27
REMARK   13  A    between atoms: C17_27  and  C18_28
ROOT
HETATM    1  C7  UNL     1      12.411  42.516  -8.196  1.00  0.00     0.216 C
HETATM    2  O1  UNL     1      11.864  41.527  -8.971  1.00  0.00    -0.345 OA
HETATM    3  C8  UNL     1      12.738  41.055  -9.937  1.00  0.00     0.280 C
HETATM    4  C9  UNL     1      13.744  40.075  -9.496  1.00  0.00     0.139 C
HETATM    5  N1  UNL     1      13.341  39.141  -8.465  1.00  0.00    -0.350 N
ATOM      6  H1  UNL     1      14.077  38.497  -8.179  1.00  0.00     0.163 HD
HETATM    7  C14 UNL     1      12.151  38.960  -7.798  1.00  0.00     0.243 C
HETATM    8  O3  UNL     1      11.531  37.846  -8.025  1.00  0.00    -0.271 OA
HETATM    9  C15 UNL     1      11.425  39.829  -6.841  1.00  0.00     0.206 C
HETATM   10  N3  UNL     1      12.225  40.856  -6.261  1.00  0.00    -0.344 N
ATOM     11  H3  UNL     1      12.320  40.844  -5.245  1.00  0.00     0.163 HD
HETATM   12  C25 UNL     1      12.896  41.883  -6.944  1.00  0.00     0.247 C
HETATM   13  O4  UNL     1      13.985  42.307  -6.477  1.00  0.00    -0.271 OA
ENDROOT
BRANCH   9  14
HETATM   14  C16 UNL     1      10.888  38.912  -5.720  1.00  0.00     0.215 C
BRANCH  14  15
HETATM   15  N2  UNL     1      12.005  38.098  -5.320  1.00  0.00    -0.073 N
ATOM     16  H23 UNL     1      11.913  37.117  -5.584  1.00  0.00     0.274 HD
ATOM     17  H22 UNL     1      12.858  38.285  -5.847  1.00  0.00     0.274 HD
ATOM     18  H21 UNL     1      12.104  38.245  -4.315  1.00  0.00     0.274 HD
ENDBRANCH  14  15
BRANCH  14  19
HETATM   19  C17 UNL     1      10.223  39.686  -4.648  1.00  0.00     0.040 C
BRANCH  19  20
HETATM   20  C18 UNL     1       9.823  38.885  -3.439  1.00  0.00    -0.012 C
HETATM   21  C19 UNL     1       8.681  39.583  -2.733  1.00  0.00     0.005 C
HETATM   22  C20 UNL     1       9.165  40.416  -1.567  1.00  0.00     0.001 C
HETATM   23  C21 UNL     1       9.828  39.559  -0.510  1.00  0.00     0.004 C
HETATM   24  C22 UNL     1      10.462  38.336  -1.079  1.00  0.00    -0.018 C
HETATM   25  C23 UNL     1       9.594  37.112  -0.982  1.00  0.00     0.010 C
HETATM   26  C24 UNL     1      10.957  38.584  -2.491  1.00  0.00     0.009 C
ENDBRANCH  19  20
ENDBRANCH  14  19
ENDBRANCH   9  14
BRANCH   4  27
HETATM   27  C10 UNL     1      14.107  39.198 -10.705  1.00  0.00     0.030 C
BRANCH  27  28
HETATM   28  C11 UNL     1      14.218  37.743 -10.373  1.00  0.00     0.002 C
BRANCH  28  29
HETATM   29  C12 UNL     1      13.399  36.998 -11.447  1.00  0.00    -0.004 C
HETATM   30  C13 UNL     1      13.767  37.550 -12.808  1.00  0.00     0.005 C
ENDBRANCH  28  29
ENDBRANCH  27  28
ENDBRANCH   4  27
BRANCH   1  31
HETATM   31  C6  UNL     1      11.315  43.545  -7.883  1.00  0.00     0.042 C
BRANCH  31  32
HETATM   32  C5  UNL     1      10.235  43.458  -8.934  1.00  0.00     0.003 C
BRANCH  32  33
HETATM   33  C4  UNL     1       9.018  44.205  -8.460  1.00  0.00     0.000 C
BRANCH  33  34
HETATM   34  C3  UNL     1       9.078  44.550  -6.991  1.00  0.00    -0.000 C
BRANCH  34  35
HETATM   35  C2  UNL     1       7.868  43.940  -6.312  1.00  0.00    -0.005 C
HETATM   36  C1  UNL     1       8.332  42.931  -5.294  1.00  0.00     0.005 C
ENDBRANCH  34  35
ENDBRANCH  33  34
ENDBRANCH  32  33
ENDBRANCH  31  32
ENDBRANCH   1  31
BRANCH   3  37
HETATM   37  O2  UNL     1      13.445  42.170 -10.453  1.00  0.00    -0.369 OA
ATOM     38  H2  UNL     1      13.191  42.275 -11.363  1.00  0.00     0.212 HD
ENDBRANCH   3  37
TORSDOF 13
ENDMDL