MODEL 2
REMARK VINA RESULT: -7.268444875      2.474      3.896
REMARK  16 active torsions:
REMARK  status: ('A' for Active; 'I' for Inactive)
REMARK    1  A    between atoms: C2_2  and  C3_3
REMARK    2  A    between atoms: C4_4  and  C5_5
REMARK    3  A    between atoms: C5_5  and  C6_6
REMARK    4  A    between atoms: C7_7  and  O1_8
REMARK    5  A    between atoms: C9_11  and  O2_12
REMARK    6  A    between atoms: C10_14  and  C11_15
REMARK    7  A    between atoms: C13_17  and  C14_18
REMARK    8  A    between atoms: C14_18  and  C16_20
REMARK    9  A    between atoms: C16_20  and  C17_21
REMARK   10  A    between atoms: C17_21  and  C18_22
REMARK   11  A    between atoms: C17_21  and  N2_32
REMARK   12  A    between atoms: C18_22  and  C19_23
REMARK   13  A    between atoms: C19_23  and  C20_24
REMARK   14  A    between atoms: C20_24  and  O3_25
REMARK   15  A    between atoms: C21_27  and  C22_28
REMARK   16  A    between atoms: N2_32  and  N3_33
REMARK       I    between atoms: N3_33  and  C25_35
ROOT
HETATM    1  C22 UNL     1      14.264  35.916 -14.445  1.00  0.00     0.013 C
HETATM    2  C23 UNL     1      15.329  36.245 -15.142  1.00  0.00     0.093 C
HETATM    3  C24 UNL     1      15.808  35.488 -16.255  1.00  0.00     0.087 C
HETATM    4  N1  UNL     1      16.184  34.854 -17.154  1.00  0.00    -0.192 NA
ENDROOT
BRANCH   1   5
HETATM    5  C21 UNL     1      13.789  36.702 -13.310  1.00  0.00     0.037 C
HETATM    6  C20 UNL     1      13.606  36.160 -12.146  1.00  0.00     0.062 C
BRANCH   6   7
HETATM    7  C19 UNL     1      13.150  36.732 -10.896  1.00  0.00     0.017 C
BRANCH   7   8
HETATM    8  C18 UNL     1      14.074  37.168  -9.858  1.00  0.00     0.104 C
BRANCH   8   9
HETATM    9  C17 UNL     1      13.551  38.260  -8.926  1.00  0.00     0.113 C
BRANCH   9  10
HETATM   10  C16 UNL     1      13.520  39.605  -9.442  1.00  0.00     0.049 C
BRANCH  10  11
HETATM   11  C14 UNL     1      14.431  40.486  -9.755  1.00  0.00    -0.059 C
HETATM   12  C15 UNL     1      14.231  41.862  -9.132  1.00  0.00     0.048 C
BRANCH  11  13
HETATM   13  C13 UNL     1      15.579  40.310 -10.605  1.00  0.00     0.009 C
HETATM   14  C11 UNL     1      15.755  40.108 -11.867  1.00  0.00    -0.076 C
HETATM   15  C12 UNL     1      14.672  40.058 -12.854  1.00  0.00     0.044 C
BRANCH  14  16
HETATM   16  C10 UNL     1      17.132  39.959 -12.424  1.00  0.00     0.050 C
HETATM   17  C6  UNL     1      17.471  40.997 -13.476  1.00  0.00     0.028 C
HETATM   18  C7  UNL     1      18.842  40.488 -13.938  1.00  0.00     0.125 C
HETATM   19  C8  UNL     1      18.665  38.999 -13.965  1.00  0.00     0.064 C
HETATM   20  C9  UNL     1      17.316  38.716 -13.266  1.00  0.00     0.129 C
BRANCH  17  21
HETATM   21  C5  UNL     1      17.659  42.381 -12.971  1.00  0.00     0.035 C
BRANCH  21  22
HETATM   22  C4  UNL     1      18.529  42.310 -11.744  1.00  0.00    -0.030 C
HETATM   23  C3  UNL     1      18.311  42.904 -10.611  1.00  0.00    -0.031 C
BRANCH  23  24
HETATM   24  C2  UNL     1      17.199  43.776 -10.227  1.00  0.00     0.022 C
HETATM   25  C1  UNL     1      17.246  44.147  -8.744  1.00  0.00     0.009 C
ENDBRANCH  23  24
ENDBRANCH  21  22
ENDBRANCH  17  21
BRANCH  18  26
HETATM   26  O1  UNL     1      19.183  40.993 -15.195  1.00  0.00    -0.395 OA
ATOM     27  H1  UNL     1      20.120  40.954 -15.347  1.00  0.00     0.210 HD
ENDBRANCH  18  26
BRANCH  20  28
HETATM   28  O2  UNL     1      17.396  37.543 -12.546  1.00  0.00    -0.395 OA
ATOM     29  H2  UNL     1      16.524  37.255 -12.299  1.00  0.00     0.210 HD
ENDBRANCH  20  28
ENDBRANCH  14  16
ENDBRANCH  11  13
ENDBRANCH  10  11
ENDBRANCH   9  10
BRANCH   9  30
HETATM   30  N2  UNL     1      13.263  37.948  -7.803  1.00  0.00    -0.326 NA
BRANCH  30  31
HETATM   31  N3  UNL     1      12.721  37.898  -6.604  1.00  0.00    -0.187 N
HETATM   32  C25 UNL     1      11.406  38.199  -6.155  1.00  0.00     0.357 C
HETATM   33  N4  UNL     1      11.051  38.075  -4.812  1.00  0.00    -0.038 NA
HETATM   34  O4  UNL     1      10.554  38.581  -6.980  1.00  0.00    -0.248 OA
ATOM     35  H3  UNL     1      13.356  37.590  -5.867  1.00  0.00     0.206 HD
ENDBRANCH  30  31
ENDBRANCH   9  30
ENDBRANCH   8   9
ENDBRANCH   7   8
ENDBRANCH   6   7
BRANCH   6  36
HETATM   36  O3  UNL     1      13.901  34.766 -12.082  1.00  0.00    -0.361 OA
ATOM     37  H3  UNL     1      13.486  34.246 -12.760  1.00  0.00     0.217 HD
ENDBRANCH   6  36
ENDBRANCH   1   5
TORSDOF 16
ENDMDL