MODEL 1
REMARK VINA RESULT: -6.958858592      0.000      0.000
REMARK  17 active torsions:
REMARK  status: ('A' for Active; 'I' for Inactive)
REMARK    1  A    between atoms: C2_2  and  C3_3
REMARK    2  A    between atoms: C3_3  and  C4_4
REMARK    3  A    between atoms: C4_4  and  C5_5
REMARK    4  A    between atoms: C5_5  and  C6_6
REMARK    5  A    between atoms: C6_6  and  O1_7
REMARK    6  A    between atoms: C6_6  and  C7_9
REMARK    7  A    between atoms: C8_10  and  C9_11
REMARK    8  A    between atoms: C12_14  and  C13_15
REMARK    9  A    between atoms: C14_16  and  C15_17
REMARK   10  A    between atoms: C15_17  and  O2_18
REMARK   11  A    between atoms: C15_17  and  C16_20
REMARK   12  A    between atoms: C16_20  and  C17_21
REMARK   13  A    between atoms: C17_21  and  O3_23
REMARK   14  A    between atoms: C22_27  and  O4_28
REMARK   15  A    between atoms: C22_27  and  C23_30
REMARK   16  A    between atoms: C23_30  and  O5_31
REMARK   17  A    between atoms: C25_34  and  O6_35
ROOT
HETATM    1  C9  UNL     1      14.231  42.203 -10.854  1.00  0.00    -0.073 C
HETATM    2  C10 UNL     1      12.909  41.608 -11.239  1.00  0.00     0.035 C
HETATM    3  C11 UNL     1      12.052  41.464 -10.002  1.00  0.00     0.013 C
HETATM    4  C12 UNL     1      12.905  40.864  -8.906  1.00  0.00     0.013 C
HETATM    5  C20 UNL     1      13.796  41.873  -8.367  1.00  0.00     0.007 C
HETATM    6  C21 UNL     1      13.304  42.783  -7.299  1.00  0.00     0.046 C
HETATM    7  C22 UNL     1      14.359  43.806  -6.959  1.00  0.00     0.082 C
HETATM    8  C24 UNL     1      15.646  43.687  -7.680  1.00  0.00     0.072 C
HETATM    9  C25 UNL     1      15.563  43.452  -9.149  1.00  0.00     0.129 C
HETATM   10  C26 UNL     1      14.269  42.784  -9.486  1.00  0.00     0.048 C
ENDROOT
BRANCH   1  11
HETATM   11  C8  UNL     1      15.384  41.399 -11.264  1.00  0.00     0.002 C
HETATM   12  C7  UNL     1      15.543  40.675 -12.342  1.00  0.00     0.005 C
BRANCH  12  13
HETATM   13  C6  UNL     1      14.548  40.501 -13.430  1.00  0.00     0.141 C
BRANCH  13  14
HETATM   14  C5  UNL     1      14.275  39.036 -13.596  1.00  0.00     0.036 C
BRANCH  14  15
HETATM   15  C4  UNL     1      14.613  38.124 -12.496  1.00  0.00     0.003 C
BRANCH  15  16
HETATM   16  C3  UNL     1      13.508  37.228 -12.013  1.00  0.00    -0.000 C
BRANCH  16  17
HETATM   17  C2  UNL     1      13.167  37.567 -10.550  1.00  0.00    -0.005 C
HETATM   18  C1  UNL     1      14.317  37.228  -9.655  1.00  0.00     0.005 C
ENDBRANCH  16  17
ENDBRANCH  15  16
ENDBRANCH  14  15
ENDBRANCH  13  14
BRANCH  13  19
HETATM   19  O1  UNL     1      15.066  41.027 -14.587  1.00  0.00    -0.392 OA
ATOM     20  H1  UNL     1      15.879  41.485 -14.409  1.00  0.00     0.210 HD
ENDBRANCH  13  19
ENDBRANCH  12  13
ENDBRANCH   1  11
BRANCH   9  21
HETATM   21  O6  UNL     1      16.684  42.694  -9.496  1.00  0.00    -0.395 OA
ATOM     22  H6  UNL     1      16.375  41.810  -9.659  1.00  0.00     0.210 HD
ENDBRANCH   9  21
BRANCH   4  23
HETATM   23  C13 UNL     1      12.065  40.074  -8.009  1.00  0.00    -0.023 C
HETATM   24  C14 UNL     1      12.398  39.171  -7.143  1.00  0.00     0.001 C
BRANCH  24  25
HETATM   25  C15 UNL     1      11.352  38.487  -6.327  1.00  0.00     0.143 C
BRANCH  25  26
HETATM   26  O2  UNL     1      11.808  37.296  -5.774  1.00  0.00    -0.392 OA
ATOM     27  H2  UNL     1      11.201  36.938  -5.136  1.00  0.00     0.210 HD
ENDBRANCH  25  26
BRANCH  25  28
HETATM   28  C16 UNL     1      10.832  39.351  -5.217  1.00  0.00     0.067 C
BRANCH  28  29
HETATM   29  C17 UNL     1       9.695  38.700  -4.464  1.00  0.00     0.119 C
HETATM   30  C18 UNL     1       8.902  39.689  -3.664  1.00  0.00     0.039 C
BRANCH  29  31
HETATM   31  O3  UNL     1      10.272  37.777  -3.593  1.00  0.00    -0.391 OA
HETATM   32  C19 UNL     1       9.396  37.425  -2.598  1.00  0.00     0.202 C
ENDBRANCH  29  31
ENDBRANCH  28  29
ENDBRANCH  25  28
ENDBRANCH  24  25
ENDBRANCH   4  23
BRANCH   7  33
HETATM   33  O4  UNL     1      14.704  43.714  -5.575  1.00  0.00    -0.388 OA
ATOM     34  H4  UNL     1      15.288  44.425  -5.336  1.00  0.00     0.210 HD
ENDBRANCH   7  33
BRANCH   7  35
HETATM   35  C23 UNL     1      13.838  45.241  -7.087  1.00  0.00     0.201 C
BRANCH  35  36
HETATM   36  O5  UNL     1      13.602  45.739  -5.803  1.00  0.00    -0.398 OA
ATOM     37  H5  UNL     1      12.833  46.296  -5.835  1.00  0.00     0.209 HD
ENDBRANCH  35  36
ENDBRANCH   7  35
TORSDOF 17
ENDMDL