MODEL 2
REMARK VINA RESULT: -6.971029535      4.378      8.592
REMARK  16 active torsions:
REMARK  status: ('A' for Active; 'I' for Inactive)
REMARK    1  A    between atoms: C2_2  and  C3_3
REMARK    2  A    between atoms: C3_3  and  C4_4
REMARK    3  A    between atoms: C4_4  and  C5_5
REMARK    4  A    between atoms: C5_5  and  C6_6
REMARK    5  A    between atoms: C6_6  and  C7_7
REMARK    6  A    between atoms: C7_7  and  C8_8
REMARK    7  A    between atoms: C9_9  and  C10_10
REMARK    8  A    between atoms: C10_10  and  C11_11
REMARK    9  A    between atoms: C11_11  and  O1_12
REMARK   10  A    between atoms: C12_15  and  C13_16
REMARK   11  A    between atoms: C13_16  and  C15_18
REMARK   12  A    between atoms: C15_18  and  O3_19
REMARK   13  A    between atoms: C15_18  and  C16_21
REMARK   14  A    between atoms: C16_21  and  O4_22
REMARK   15  A    between atoms: C20_27  and  O5_28
REMARK   16  A    between atoms: C25_34  and  O6_36
ROOT
HETATM    1  C8  UNL     1      13.478  39.508  -9.293  1.00  0.00     0.049 C
HETATM    2  C9  UNL     1      12.752  39.738  -7.997  1.00  0.00     0.131 C
HETATM    3  O2  UNL     1      11.943  40.848  -7.988  1.00  0.00    -0.379 OA
HETATM    4  C12 UNL     1      12.065  41.725  -9.022  1.00  0.00     0.139 C
HETATM    5  C22 UNL     1      13.544  42.004  -9.177  1.00  0.00     0.010 C
HETATM    6  C23 UNL     1      13.858  43.134 -10.119  1.00  0.00     0.020 C
HETATM    7  C24 UNL     1      14.156  42.282  -7.879  1.00  0.00     0.020 C
HETATM    8  C25 UNL     1      14.042  40.736  -9.902  1.00  0.00     0.069 C
HETATM    9  C26 UNL     1      15.486  40.786 -10.210  1.00  0.00     0.047 C
ENDROOT
BRANCH   4  10
HETATM   10  C13 UNL     1      11.181  42.921  -9.003  1.00  0.00     0.043 C
HETATM   11  C14 UNL     1      10.371  43.104  -7.742  1.00  0.00     0.015 C
BRANCH  10  12
HETATM   12  C15 UNL     1      10.633  43.421 -10.261  1.00  0.00     0.158 C
BRANCH  12  13
HETATM   13  O3  UNL     1       9.463  42.639 -10.523  1.00  0.00    -0.392 OA
ATOM     14  H3  UNL     1       9.759  41.875 -11.002  1.00  0.00     0.210 HD
ENDBRANCH  12  13
BRANCH  12  15
HETATM   15  C16 UNL     1      10.304  44.796 -10.587  1.00  0.00     0.086 C
HETATM   16  C17 UNL     1      11.167  45.875  -9.964  1.00  0.00     0.041 C
HETATM   17  C18 UNL     1      10.548  47.245 -10.014  1.00  0.00     0.006 C
HETATM   18  C19 UNL     1       9.884  47.403 -11.365  1.00  0.00     0.032 C
HETATM   19  C20 UNL     1       8.776  46.414 -11.573  1.00  0.00     0.121 C
HETATM   20  C21 UNL     1       8.862  45.208 -10.645  1.00  0.00     0.072 C
BRANCH  15  21
HETATM   21  O4  UNL     1      10.656  44.897 -11.990  1.00  0.00    -0.387 OA
ATOM     22  H4  UNL     1      10.106  45.606 -12.302  1.00  0.00     0.210 HD
ENDBRANCH  15  21
BRANCH  19  23
HETATM   23  O5  UNL     1       8.710  46.028 -12.905  1.00  0.00    -0.395 OA
ATOM     24  H5  UNL     1       8.869  45.095 -12.991  1.00  0.00     0.210 HD
ENDBRANCH  19  23
ENDBRANCH  12  15
ENDBRANCH  10  12
ENDBRANCH   4  10
BRANCH   2  25
HETATM   25  C10 UNL     1      11.871  38.578  -7.575  1.00  0.00     0.058 C
BRANCH  25  26
HETATM   26  C11 UNL     1      11.232  38.910  -6.232  1.00  0.00     0.166 C
BRANCH  26  27
HETATM   27  O1  UNL     1      10.093  38.163  -6.042  1.00  0.00    -0.401 OA
ATOM     28  H1  UNL     1      10.279  37.404  -5.502  1.00  0.00     0.209 HD
ENDBRANCH  26  27
ENDBRANCH  25  26
ENDBRANCH   2  25
BRANCH   8  29
HETATM   29  O6  UNL     1      13.407  40.893 -11.176  1.00  0.00    -0.389 OA
ATOM     30  H6  UNL     1      14.088  40.813 -11.833  1.00  0.00     0.210 HD
ENDBRANCH   8  29
BRANCH   1  31
HETATM   31  C7  UNL     1      14.414  38.348  -9.136  1.00  0.00     0.010 C
BRANCH  31  32
HETATM   32  C6  UNL     1      13.978  37.058  -9.731  1.00  0.00     0.001 C
BRANCH  32  33
HETATM   33  C5  UNL     1      13.113  37.375 -10.959  1.00  0.00     0.000 C
BRANCH  33  34
HETATM   34  C4  UNL     1      13.361  36.321 -12.016  1.00  0.00     0.000 C
BRANCH  34  35
HETATM   35  C3  UNL     1      13.821  36.947 -13.294  1.00  0.00    -0.000 C
BRANCH  35  36
HETATM   36  C2  UNL     1      14.590  38.217 -13.095  1.00  0.00    -0.005 C
HETATM   37  C1  UNL     1      14.150  39.207 -14.153  1.00  0.00     0.005 C
ENDBRANCH  35  36
ENDBRANCH  34  35
ENDBRANCH  33  34
ENDBRANCH  32  33
ENDBRANCH  31  32
ENDBRANCH   1  31
TORSDOF 16
ENDMDL