MODEL 5
REMARK VINA RESULT: -7.095187778      1.512      3.534
REMARK  16 active torsions:
REMARK  status: ('A' for Active; 'I' for Inactive)
REMARK    1  A    between atoms: C2_2  and  C3_3
REMARK    2  A    between atoms: C3_3  and  C4_4
REMARK    3  A    between atoms: C4_4  and  C5_5
REMARK    4  A    between atoms: C5_5  and  C6_6
REMARK    5  A    between atoms: C6_6  and  C7_7
REMARK    6  A    between atoms: C7_7  and  C8_8
REMARK    7  A    between atoms: C8_8  and  C9_9
REMARK    8  A    between atoms: C9_9  and  C11_11
REMARK    9  A    between atoms: C11_11  and  O1_12
REMARK   10  A    between atoms: C11_11  and  C12_14
REMARK   11  A    between atoms: C12_14  and  C13_15
REMARK   12  A    between atoms: C13_15  and  C14_16
REMARK   13  A    between atoms: C15_18  and  O3_19
REMARK   14  A    between atoms: C16_21  and  O4_22
REMARK   15  A    between atoms: C17_24  and  O5_25
REMARK   16  A    between atoms: C22_31  and  O6_32
ROOT
HETATM    1  C14 UNL     1      13.548  38.488 -11.193  1.00  0.00     0.132 C
HETATM    2  O2  UNL     1      13.735  39.820 -10.751  1.00  0.00    -0.353 OA
HETATM    3  C15 UNL     1      13.877  40.636 -11.876  1.00  0.00     0.288 C
HETATM    4  C16 UNL     1      15.260  40.392 -12.385  1.00  0.00     0.208 C
HETATM    5  C17 UNL     1      15.583  38.935 -12.612  1.00  0.00     0.099 C
HETATM    6  C18 UNL     1      15.296  38.678 -14.091  1.00  0.00     0.023 C
HETATM    7  C19 UNL     1      16.272  39.390 -14.968  1.00  0.00     0.013 C
HETATM    8  C20 UNL     1      15.283  37.230 -14.446  1.00  0.00    -0.005 C
HETATM    9  C21 UNL     1      13.809  36.791 -14.426  1.00  0.00     0.037 C
HETATM   10  C22 UNL     1      13.574  36.266 -13.010  1.00  0.00     0.127 C
HETATM   11  C23 UNL     1      14.815  36.603 -12.254  1.00  0.00    -0.009 C
HETATM   12  C24 UNL     1      15.131  35.561 -11.180  1.00  0.00     0.018 C
HETATM   13  C25 UNL     1      15.839  36.353 -13.368  1.00  0.00     0.017 C
HETATM   14  C26 UNL     1      14.885  37.986 -11.707  1.00  0.00     0.063 C
ENDROOT
BRANCH   1  15
HETATM   15  C13 UNL     1      13.120  37.730  -9.954  1.00  0.00     0.035 C
BRANCH  15  16
HETATM   16  C12 UNL     1      13.556  38.432  -8.686  1.00  0.00     0.034 C
BRANCH  16  17
HETATM   17  C11 UNL     1      12.467  38.525  -7.673  1.00  0.00     0.122 C
BRANCH  17  18
HETATM   18  C9  UNL     1      12.222  39.940  -7.201  1.00  0.00     0.010 C
HETATM   19  C10 UNL     1      11.219  39.964  -6.056  1.00  0.00     0.012 C
BRANCH  18  20
HETATM   20  C8  UNL     1      11.674  40.837  -8.291  1.00  0.00     0.007 C
BRANCH  20  21
HETATM   21  C7  UNL     1      12.273  42.204  -8.267  1.00  0.00     0.000 C
BRANCH  21  22
HETATM   22  C6  UNL     1      13.735  42.105  -7.925  1.00  0.00     0.000 C
BRANCH  22  23
HETATM   23  C5  UNL     1      14.194  43.147  -6.936  1.00  0.00     0.000 C
BRANCH  23  24
HETATM   24  C4  UNL     1      15.382  43.883  -7.494  1.00  0.00     0.000 C
BRANCH  24  25
HETATM   25  C3  UNL     1      15.895  43.252  -8.769  1.00  0.00    -0.000 C
BRANCH  25  26
HETATM   26  C2  UNL     1      17.203  43.838  -9.214  1.00  0.00    -0.005 C
HETATM   27  C1  UNL     1      17.593  44.964  -8.306  1.00  0.00     0.005 C
ENDBRANCH  25  26
ENDBRANCH  24  25
ENDBRANCH  23  24
ENDBRANCH  22  23
ENDBRANCH  21  22
ENDBRANCH  20  21
ENDBRANCH  18  20
ENDBRANCH  17  18
BRANCH  17  28
HETATM   28  O1  UNL     1      12.756  37.733  -6.556  1.00  0.00    -0.395 OA
ATOM     29  H1  UNL     1      12.455  36.849  -6.732  1.00  0.00     0.210 HD
ENDBRANCH  17  28
ENDBRANCH  16  17
ENDBRANCH  15  16
ENDBRANCH   1  15
BRANCH   3  30
HETATM   30  O3  UNL     1      13.801  41.955 -11.430  1.00  0.00    -0.368 OA
ATOM     31  H3  UNL     1      12.906  42.242 -11.570  1.00  0.00     0.212 HD
ENDBRANCH   3  30
BRANCH   5  32
HETATM   32  O5  UNL     1      16.979  38.850 -12.379  1.00  0.00    -0.386 OA
ATOM     33  H5  UNL     1      17.279  38.203 -13.006  1.00  0.00     0.210 HD
ENDBRANCH   5  32
BRANCH   4  34
HETATM   34  O4  UNL     1      16.150  40.947 -11.437  1.00  0.00    -0.388 OA
ATOM     35  H4  UNL     1      16.309  41.845 -11.701  1.00  0.00     0.210 HD
ENDBRANCH   4  34
BRANCH  10  36
HETATM   36  O6  UNL     1      13.549  34.858 -13.145  1.00  0.00    -0.395 OA
ATOM     37  H6  UNL     1      14.419  34.573 -12.892  1.00  0.00     0.210 HD
ENDBRANCH  10  36
TORSDOF 16
ENDMDL