MODEL 3
REMARK VINA RESULT: -7.902234893      1.472      2.347
REMARK  16 active torsions:
REMARK  status: ('A' for Active; 'I' for Inactive)
REMARK    1  A    between atoms: C2_2  and  C4_4
REMARK    2  A    between atoms: C11_11  and  O1_12
REMARK    3  A    between atoms: C11_11  and  C12_14
REMARK    4  A    between atoms: C12_14  and  C13_15
REMARK    5  A    between atoms: C13_15  and  C14_16
REMARK    6  A    between atoms: C14_16  and  C15_17
REMARK    7  A    between atoms: C15_17  and  C16_18
REMARK    8  A    between atoms: C16_18  and  C17_19
REMARK    9  A    between atoms: C17_19  and  C18_20
REMARK   10  A    between atoms: C18_20  and  C19_21
REMARK   11  A    between atoms: C19_21  and  O2_22
REMARK   12  A    between atoms: C19_21  and  C20_24
REMARK   13  A    between atoms: C21_26  and  C22_27
REMARK   14  A    between atoms: C22_27  and  O4_28
REMARK   15  A    between atoms: C23_30  and  O5_31
REMARK   16  A    between atoms: C24_33  and  O6_34
ROOT
HETATM    1  C15 UNL     1      12.824  38.352  -8.838  1.00  0.00     0.000 C
ENDROOT
BRANCH   1   2
HETATM    2  C14 UNL     1      14.297  38.085  -9.213  1.00  0.00     0.000 C
BRANCH   2   3
HETATM    3  C13 UNL     1      14.336  36.714  -9.878  1.00  0.00     0.003 C
BRANCH   3   4
HETATM    4  C12 UNL     1      13.523  36.815 -11.133  1.00  0.00     0.038 C
BRANCH   4   5
HETATM    5  C11 UNL     1      14.221  36.230 -12.327  1.00  0.00     0.062 C
HETATM    6  C10 UNL     1      15.639  36.652 -12.374  1.00  0.00     0.042 C
HETATM    7  C9  UNL     1      15.822  38.134 -12.609  1.00  0.00     0.036 C
HETATM    8  C7  UNL     1      14.722  38.682 -13.463  1.00  0.00    -0.085 C
HETATM    9  C6  UNL     1      13.975  37.747 -14.309  1.00  0.00     0.021 C
HETATM   10  C8  UNL     1      14.466  39.990 -13.423  1.00  0.00     0.014 C
HETATM   11  C5  UNL     1      14.757  37.241 -15.486  1.00  0.00     0.018 C
HETATM   12  C25 UNL     1      13.462  36.539 -13.598  1.00  0.00     0.029 C
HETATM   13  C4  UNL     1      13.973  36.006 -15.877  1.00  0.00     0.014 C
HETATM   14  C26 UNL     1      13.496  35.390 -14.582  1.00  0.00     0.017 C
BRANCH  13  15
HETATM   15  C2  UNL     1      14.737  35.085 -16.725  1.00  0.00    -0.089 C
HETATM   16  C1  UNL     1      16.058  35.165 -16.739  1.00  0.00     0.014 C
HETATM   17  C3  UNL     1      14.106  34.045 -17.587  1.00  0.00     0.043 C
ENDBRANCH  13  15
BRANCH   5  18
HETATM   18  O1  UNL     1      14.194  34.835 -12.169  1.00  0.00    -0.389 OA
ATOM     19  H1  UNL     1      13.356  34.602 -11.785  1.00  0.00     0.210 HD
ENDBRANCH   5  18
ENDBRANCH   4   5
ENDBRANCH   3   4
ENDBRANCH   2   3
ENDBRANCH   1   2
BRANCH   1  20
HETATM   20  C16 UNL     1      12.772  38.630  -7.385  1.00  0.00     0.000 C
BRANCH  20  21
HETATM   21  C17 UNL     1      11.452  38.926  -6.816  1.00  0.00     0.002 C
BRANCH  21  22
HETATM   22  C18 UNL     1      11.055  38.286  -5.574  1.00  0.00     0.034 C
BRANCH  22  23
HETATM   23  C19 UNL     1      10.040  38.794  -4.638  1.00  0.00     0.149 C
BRANCH  23  24
HETATM   24  O2  UNL     1       9.909  40.177  -4.569  1.00  0.00    -0.393 OA
ATOM     25  H2  UNL     1       9.493  40.594  -5.315  1.00  0.00     0.210 HD
ENDBRANCH  23  24
BRANCH  23  26
HETATM   26  C20 UNL     1      10.529  38.315  -3.231  1.00  0.00     0.182 C
HETATM   27  O3  UNL     1       9.989  37.086  -2.948  1.00  0.00    -0.371 OA
HETATM   28  C21 UNL     1      10.251  36.910  -1.609  1.00  0.00     0.177 C
HETATM   29  C23 UNL     1      10.106  38.235  -0.932  1.00  0.00     0.180 C
HETATM   30  C24 UNL     1       9.987  39.189  -2.135  1.00  0.00     0.180 C
BRANCH  28  31
HETATM   31  C22 UNL     1       9.290  35.935  -0.956  1.00  0.00     0.198 C
BRANCH  31  32
HETATM   32  O4  UNL     1       8.186  35.754  -1.754  1.00  0.00    -0.398 OA
ATOM     33  H4  UNL     1       7.880  34.856  -1.689  1.00  0.00     0.209 HD
ENDBRANCH  31  32
ENDBRANCH  28  31
BRANCH  29  34
HETATM   34  O5  UNL     1       9.019  38.325  -0.098  1.00  0.00    -0.390 OA
ATOM     35  H5  UNL     1       8.407  37.603  -0.177  1.00  0.00     0.210 HD
ENDBRANCH  29  34
BRANCH  30  36
HETATM   36  O6  UNL     1       8.645  39.431  -2.284  1.00  0.00    -0.390 OA
ATOM     37  H6  UNL     1       8.474  40.300  -2.628  1.00  0.00     0.210 HD
ENDBRANCH  30  36
ENDBRANCH  23  26
ENDBRANCH  22  23
ENDBRANCH  21  22
ENDBRANCH  20  21
ENDBRANCH   1  20
TORSDOF 16
ENDMDL