MODEL 4
REMARK VINA RESULT: -7.810377197      5.847      8.556
REMARK  12 active torsions:
REMARK  status: ('A' for Active; 'I' for Inactive)
REMARK    1  A    between atoms: C3_3  and  N1_4
REMARK    2  A    between atoms: N1_4  and  C4_5
REMARK    3  A    between atoms: N1_4  and  C11_16
REMARK    4  A    between atoms: C7_8  and  C8_9
REMARK    5  A    between atoms: C17_24  and  S1_25
REMARK    6  A    between atoms: S1_25  and  C18_26
REMARK    7  A    between atoms: C18_26  and  C19_27
REMARK    8  A    between atoms: C19_27  and  C20_28
REMARK    9  A    between atoms: C20_28  and  N5_29
REMARK   10  A    between atoms: N5_29  and  C21_32
REMARK   11  A    between atoms: C21_32  and  C22_33
REMARK   12  A    between atoms: C25_36  and  N6_37
ROOT
HETATM    1  C1  UNL     1      11.278  43.011  -8.139  1.00  0.00     0.014 C
HETATM    2  C2  UNL     1      11.848  43.295  -9.160  1.00  0.00    -0.097 C
HETATM    3  C3  UNL     1      12.532  43.656 -10.433  1.00  0.00     0.240 C
ENDROOT
BRANCH   3   4
HETATM    4  N1  UNL     1      13.762  42.943 -10.553  1.00  0.00    -0.172 N
BRANCH   4   5
HETATM    5  C4  UNL     1      14.942  43.540 -10.032  1.00  0.00     0.052 A
HETATM    6  C5  UNL     1      15.679  44.453 -10.755  1.00  0.00     0.031 A
HETATM    7  C6  UNL     1      16.833  45.020 -10.220  1.00  0.00     0.017 A
HETATM    8  C7  UNL     1      17.305  44.717  -8.968  1.00  0.00     0.005 A
HETATM    9  C9  UNL     1      16.542  43.785  -8.246  1.00  0.00     0.017 A
HETATM   10  C10 UNL     1      15.403  43.215  -8.753  1.00  0.00     0.031 A
BRANCH   8  11
HETATM   11  C8  UNL     1      18.500  45.286  -8.383  1.00  0.00     0.120 C
HETATM   12  N2  UNL     1      19.634  45.151  -8.925  1.00  0.00    -0.387 N
ATOM     13  H22 UNL     1      19.707  44.627  -9.797  1.00  0.00     0.157 HD
ATOM     14  H21 UNL     1      20.477  45.552  -8.513  1.00  0.00     0.157 HD
HETATM   15  N3  UNL     1      18.398  46.012  -7.176  1.00  0.00    -0.082 NA
ENDBRANCH   8  11
ENDBRANCH   4   5
BRANCH   4  16
HETATM   16  C11 UNL     1      13.845  41.678 -11.162  1.00  0.00     0.687 A
HETATM   17  N4  UNL     1      13.531  40.595 -10.393  1.00  0.00    -0.190 N
HETATM   18  C12 UNL     1      13.559  39.329 -10.819  1.00  0.00     0.064 A
ATOM     19  H4  UNL     1      13.255  40.764  -9.425  1.00  0.00     0.184 HD
HETATM   20  C13 UNL     1      13.225  38.274  -9.973  1.00  0.00     0.031 A
HETATM   21  C24 UNL     1      13.928  39.105 -12.113  1.00  0.00     0.053 A
HETATM   22  C14 UNL     1      13.285  37.027 -10.497  1.00  0.00     0.010 A
HETATM   23  C15 UNL     1      13.656  36.787 -11.804  1.00  0.00    -0.044 A
HETATM   24  C16 UNL     1      13.656  35.365 -12.232  1.00  0.00     0.049 C
HETATM   25  C17 UNL     1      13.991  37.798 -12.659  1.00  0.00     0.022 A
HETATM   26  C25 UNL     1      14.249  40.192 -12.900  1.00  0.00     0.128 A
HETATM   27  N7  UNL     1      14.212  41.468 -12.441  1.00  0.00    -0.176 N
ATOM     28  H7  UNL     1      14.457  42.250 -13.048  1.00  0.00     0.186 HD
BRANCH  25  29
HETATM   29  S1  UNL     1      14.496  37.657 -14.329  1.00  0.00    -0.128 SA
BRANCH  29  30
HETATM   30  C18 UNL     1      15.935  36.718 -14.727  1.00  0.00     0.081 C
BRANCH  30  31
HETATM   31  C19 UNL     1      16.994  36.810 -13.620  1.00  0.00     0.038 C
BRANCH  31  32
HETATM   32  C20 UNL     1      17.676  38.121 -13.596  1.00  0.00     0.233 C
BRANCH  32  33
HETATM   33  N5  UNL     1      17.554  38.865 -12.384  1.00  0.00    -0.072 N
ATOM     34  H52 UNL     1      16.608  38.788 -12.011  1.00  0.00     0.277 HD
ATOM     35  H51 UNL     1      18.073  38.413 -11.632  1.00  0.00     0.277 HD
BRANCH  33  36
HETATM   36  C21 UNL     1      17.937  40.244 -12.501  1.00  0.00     0.259 C
BRANCH  36  37
HETATM   37  C22 UNL     1      17.689  41.017 -11.263  1.00  0.00    -0.010 C
HETATM   38  C23 UNL     1      18.637  41.813 -10.803  1.00  0.00     0.008 C
ENDBRANCH  36  37
ENDBRANCH  33  36
ENDBRANCH  32  33
ENDBRANCH  31  32
ENDBRANCH  30  31
ENDBRANCH  29  30
ENDBRANCH  25  29
BRANCH  26  39
HETATM   39  N6  UNL     1      14.602  39.998 -14.130  1.00  0.00    -0.384 N
ATOM     40  H62 UNL     1      13.909  39.614 -14.773  1.00  0.00     0.157 HD
ATOM     41  H61 UNL     1      15.552  40.232 -14.417  1.00  0.00     0.157 HD
ENDBRANCH  26  39
ENDBRANCH   4  16
ENDBRANCH   3   4
TORSDOF 12
ENDMDL