MODEL 4
REMARK VINA RESULT: -8.231274017      1.412      1.590
REMARK  14 active torsions:
REMARK  status: ('A' for Active; 'I' for Inactive)
REMARK    1  A    between atoms: C4_4  and  C5_5
REMARK    2  A    between atoms: C7_11  and  C8_12
REMARK    3  A    between atoms: C10_16  and  S1_17
REMARK    4  A    between atoms: S1_17  and  C11_18
REMARK    5  A    between atoms: C11_18  and  C12_19
REMARK    6  A    between atoms: C12_19  and  C13_20
REMARK    7  A    between atoms: C13_20  and  C14_21
REMARK    8  A    between atoms: C14_21  and  C15_22
REMARK    9  A    between atoms: C15_22  and  N4_23
REMARK   10  A    between atoms: C18_26  and  N5_27
REMARK   11  A    between atoms: N5_27  and  C19_29
REMARK   12  A    between atoms: C19_29  and  O1_30
REMARK   13  A    between atoms: C19_29  and  N6_32
REMARK   14  A    between atoms: N6_32  and  O2_34
ROOT
HETATM    1  S1  UNL     1      10.341  38.370  -4.907  1.00  0.00    -0.094 SA
ENDROOT
BRANCH   1   2
HETATM    2  C10 UNL     1      11.346  39.080  -6.133  1.00  0.00     0.144 A
HETATM    3  N3  UNL     1      11.950  40.262  -6.183  1.00  0.00    -0.344 N
HETATM    4  C9  UNL     1      12.624  40.361  -7.352  1.00  0.00     0.120 A
ATOM      5  H3  UNL     1      11.911  40.978  -5.457  1.00  0.00     0.167 HD
HETATM    6  C8  UNL     1      12.443  39.203  -8.067  1.00  0.00     0.060 A
HETATM    7  N7  UNL     1      11.661  38.438  -7.306  1.00  0.00    -0.335 N
ATOM      8  H7  UNL     1      11.341  37.504  -7.559  1.00  0.00     0.168 HD
BRANCH   6   9
HETATM    9  C7  UNL     1      13.002  38.908  -9.380  1.00  0.00    -0.007 A
HETATM   10  C6  UNL     1      13.155  37.608  -9.811  1.00  0.00     0.028 A
HETATM   11  C4  UNL     1      13.687  37.379 -11.058  1.00  0.00     0.006 A
HETATM   12  C3  UNL     1      14.054  38.474 -11.846  1.00  0.00     0.021 A
HETATM   13  C2  UNL     1      13.905  39.758 -11.427  1.00  0.00    -0.060 A
HETATM   14  C1  UNL     1      14.290  40.955 -12.242  1.00  0.00     0.048 C
HETATM   15  C21 UNL     1      13.375  39.969 -10.183  1.00  0.00     0.020 A
BRANCH  11  16
HETATM   16  C5  UNL     1      13.883  36.046 -11.584  1.00  0.00     0.120 C
HETATM   17  N1  UNL     1      15.024  35.478 -11.543  1.00  0.00    -0.387 N
ATOM     18  H12 UNL     1      15.810  35.980 -11.130  1.00  0.00     0.157 HD
ATOM     19  H11 UNL     1      15.162  34.538 -11.914  1.00  0.00     0.157 HD
HETATM   20  N2  UNL     1      12.790  35.348 -12.158  1.00  0.00    -0.082 NA
ENDBRANCH  11  16
ENDBRANCH   6   9
ENDBRANCH   1   2
BRANCH   1  21
HETATM   21  C11 UNL     1       9.837  39.281  -3.510  1.00  0.00     0.082 C
BRANCH  21  22
HETATM   22  C12 UNL     1       8.489  39.854  -3.518  1.00  0.00     0.010 C
BRANCH  22  23
HETATM   23  C13 UNL     1       8.373  41.280  -3.080  1.00  0.00     0.002 C
BRANCH  23  24
HETATM   24  C14 UNL     1       8.341  42.098  -4.383  1.00  0.00     0.020 C
BRANCH  24  25
HETATM   25  C15 UNL     1       7.844  43.490  -4.148  1.00  0.00     0.126 C
BRANCH  25  26
HETATM   26  N4  UNL     1       6.398  43.454  -4.103  1.00  0.00    -0.350 N
HETATM   27  C16 UNL     1       5.541  43.582  -2.941  1.00  0.00     0.128 C
HETATM   28  C17 UNL     1       4.469  42.560  -3.213  1.00  0.00     0.054 C
HETATM   29  C18 UNL     1       4.226  42.690  -4.695  1.00  0.00     0.179 C
HETATM   30  C20 UNL     1       5.498  43.289  -5.190  1.00  0.00     0.242 C
HETATM   31  O3  UNL     1       5.736  43.596  -6.374  1.00  0.00    -0.271 OA
BRANCH  29  32
HETATM   32  N5  UNL     1       3.110  43.526  -5.013  1.00  0.00    -0.342 N
ATOM     33  H5  UNL     1       3.248  44.360  -5.584  1.00  0.00     0.164 HD
BRANCH  32  34
HETATM   34  C19 UNL     1       1.823  43.207  -4.541  1.00  0.00     0.237 C
BRANCH  34  35
HETATM   35  O1  UNL     1       1.176  44.037  -3.658  1.00  0.00    -0.331 OA
ATOM     36  H1  UNL     1       0.892  43.714  -2.811  1.00  0.00     0.221 HD
ENDBRANCH  34  35
BRANCH  34  37
HETATM   37  N6  UNL     1       1.253  42.131  -4.944  1.00  0.00    -0.233 N
ATOM     38  H6  UNL     1       0.806  42.132  -5.860  1.00  0.00     0.198 HD
BRANCH  37  39
HETATM   39  O2  UNL     1       1.217  40.976  -4.199  1.00  0.00    -0.287 OA
ATOM     40  H2  UNL     1       0.876  40.154  -4.532  1.00  0.00     0.244 HD
ENDBRANCH  37  39
ENDBRANCH  34  37
ENDBRANCH  32  34
ENDBRANCH  29  32
ENDBRANCH  25  26
ENDBRANCH  24  25
ENDBRANCH  23  24
ENDBRANCH  22  23
ENDBRANCH  21  22
ENDBRANCH   1  21
TORSDOF 14
ENDMDL