MODEL 2
REMARK VINA RESULT: -8.028124280      2.263      3.039
REMARK  13 active torsions:
REMARK  status: ('A' for Active; 'I' for Inactive)
REMARK    1  A    between atoms: N1_2  and  C2_4
REMARK    2  A    between atoms: C2_4  and  C3_8
REMARK    3  A    between atoms: C6_11  and  C7_12
REMARK    4  A    between atoms: C8_15  and  C9_16
REMARK    5  A    between atoms: N4_19  and  C12_20
REMARK    6  A    between atoms: C15_23  and  C16_24
REMARK    7  A    between atoms: C16_24  and  N5_25
REMARK    8  A    between atoms: C16_24  and  C17_29
REMARK    9  A    between atoms: C17_29  and  C18_30
REMARK   10  A    between atoms: C18_30  and  C19_31
REMARK   11  A    between atoms: C19_31  and  C20_32
REMARK   12  A    between atoms: C20_32  and  C21_33
REMARK   13  A    between atoms: C21_33  and  N6_34
ROOT
HETATM    1  C9  UNL     1      10.202  38.387  -3.690  1.00  0.00     0.074 C
HETATM    2  C10 UNL     1      10.891  39.021  -2.503  1.00  0.00     0.034 C
HETATM    3  C11 UNL     1       9.665  39.448  -1.680  1.00  0.00     0.124 C
HETATM    4  N4  UNL     1       8.860  40.064  -2.712  1.00  0.00    -0.380 N
HETATM    5  C24 UNL     1       8.920  39.186  -3.859  1.00  0.00     0.135 C
ENDROOT
BRANCH   1   6
HETATM    6  C8  UNL     1      11.033  38.495  -4.935  1.00  0.00     0.103 A
HETATM    7  N3  UNL     1      11.025  39.491  -5.840  1.00  0.00    -0.329 N
HETATM    8  C7  UNL     1      11.903  39.246  -6.814  1.00  0.00     0.131 A
ATOM      9  H3  UNL     1      10.430  40.319  -5.788  1.00  0.00     0.168 HD
HETATM   10  N8  UNL     1      12.478  38.066  -6.514  1.00  0.00    -0.283 N
HETATM   11  N7  UNL     1      11.958  37.613  -5.387  1.00  0.00    -0.287 N
ATOM     12  H8  UNL     1      13.197  37.599  -7.066  1.00  0.00     0.188 HD
ATOM     13  H7  UNL     1      12.212  36.738  -4.929  1.00  0.00     0.188 HD
BRANCH   8  14
HETATM   14  C6  UNL     1      12.225  40.063  -7.990  1.00  0.00     0.009 A
HETATM   15  C5  UNL     1      13.125  39.624  -8.927  1.00  0.00     0.016 A
HETATM   16  C4  UNL     1      13.389  40.450 -10.016  1.00  0.00     0.016 A
HETATM   17  C3  UNL     1      12.787  41.676 -10.183  1.00  0.00     0.007 A
HETATM   18  C26 UNL     1      11.893  42.075  -9.222  1.00  0.00     0.016 A
HETATM   19  C25 UNL     1      11.603  41.302  -8.142  1.00  0.00     0.016 A
BRANCH  17  20
HETATM   20  C2  UNL     1      13.069  42.546 -11.329  1.00  0.00     0.104 C
HETATM   21  N2  UNL     1      14.227  42.736 -11.815  1.00  0.00    -0.385 N
ATOM     22  H22 UNL     1      14.423  43.341 -12.612  1.00  0.00     0.157 HD
ATOM     23  H21 UNL     1      15.003  42.246 -11.370  1.00  0.00     0.157 HD
BRANCH  20  24
HETATM   24  N1  UNL     1      11.983  43.230 -11.951  1.00  0.00    -0.380 N
HETATM   25  C1  UNL     1      12.025  44.675 -11.976  1.00  0.00     0.147 C
ATOM     26  H1  UNL     1      11.204  42.718 -12.365  1.00  0.00     0.160 HD
ENDBRANCH  20  24
ENDBRANCH  17  20
ENDBRANCH   8  14
ENDBRANCH   1   6
BRANCH   4  27
HETATM   27  C12 UNL     1       8.150  41.283  -2.610  1.00  0.00     0.030 A
HETATM   28  C13 UNL     1       8.454  42.209  -1.652  1.00  0.00     0.030 A
HETATM   29  C14 UNL     1       7.741  43.418  -1.567  1.00  0.00     0.012 A
HETATM   30  C15 UNL     1       6.728  43.701  -2.437  1.00  0.00    -0.024 A
HETATM   31  C22 UNL     1       6.420  42.767  -3.406  1.00  0.00     0.012 A
HETATM   32  C23 UNL     1       7.115  41.578  -3.495  1.00  0.00     0.030 A
BRANCH  30  33
HETATM   33  C16 UNL     1       5.920  44.991  -2.397  1.00  0.00     0.239 C
BRANCH  33  34
HETATM   34  N5  UNL     1       5.492  45.310  -3.769  1.00  0.00    -0.068 N
ATOM     35  H53 UNL     1       5.498  44.494  -4.382  1.00  0.00     0.275 HD
ATOM     36  H52 UNL     1       4.496  45.521  -3.831  1.00  0.00     0.275 HD
ATOM     37  H51 UNL     1       6.077  46.068  -4.118  1.00  0.00     0.275 HD
ENDBRANCH  33  34
BRANCH  33  38
HETATM   38  C17 UNL     1       4.732  44.849  -1.572  1.00  0.00     0.010 C
BRANCH  38  39
HETATM   39  C18 UNL     1       3.417  44.585  -2.114  1.00  0.00    -0.002 C
BRANCH  39  40
HETATM   40  C19 UNL     1       2.663  43.373  -2.238  1.00  0.00    -0.003 C
BRANCH  40  41
HETATM   41  C20 UNL     1       2.894  42.155  -2.990  1.00  0.00     0.000 C
BRANCH  41  42
HETATM   42  C21 UNL     1       1.820  41.233  -3.368  1.00  0.00     0.257 C
BRANCH  42  43
HETATM   43  N6  UNL     1       1.051  41.639  -4.521  1.00  0.00    -0.076 N
ATOM     44  H63 UNL     1       0.508  40.852  -4.878  1.00  0.00     0.274 HD
ATOM     45  H62 UNL     1       0.295  42.262  -4.240  1.00  0.00     0.274 HD
ATOM     46  H61 UNL     1       1.597  42.062  -5.272  1.00  0.00     0.274 HD
ENDBRANCH  42  43
ENDBRANCH  41  42
ENDBRANCH  40  41
ENDBRANCH  39  40
ENDBRANCH  38  39
ENDBRANCH  33  38
ENDBRANCH  30  33
ENDBRANCH   4  27
TORSDOF 13
ENDMDL