MODEL 4
REMARK VINA RESULT: -8.497059927      2.313      5.201
REMARK  15 active torsions:
REMARK  status: ('A' for Active; 'I' for Inactive)
REMARK    1  A    between atoms: C2_2  and  C3_3
REMARK    2  A    between atoms: C7_7  and  C8_8
REMARK    3  A    between atoms: C8_8  and  C9_9
REMARK    4  A    between atoms: C9_9  and  C10_10
REMARK    5  A    between atoms: C10_10  and  N1_11
REMARK    6  A    between atoms: C14_15  and  C15_16
REMARK    7  A    between atoms: C15_16  and  C16_17
REMARK    8  A    between atoms: C16_17  and  C18_19
REMARK    9  A    between atoms: C16_17  and  C25_33
REMARK   10  A    between atoms: C20_21  and  N2_22
REMARK   11  A    between atoms: N2_22  and  C21_24
REMARK   12  A    between atoms: N7_42  and  C32_43
REMARK   13  A    between atoms: C32_43  and  C33_44
REMARK   14  A    between atoms: C34_45  and  C35_46
REMARK   15  A    between atoms: C35_46  and  O1_47
ROOT
HETATM    1  C16 UNL     1      10.732  35.220  21.260  1.00  0.00     0.077 C
HETATM    2  C17 UNL     1      11.874  35.801  22.130  1.00  0.00     0.035 C
ENDROOT
BRANCH   1   3
HETATM    3  C15 UNL     1      10.357  36.315  20.366  1.00  0.00     0.009 C
BRANCH   3   4
HETATM    4  C14 UNL     1      11.181  37.512  20.150  1.00  0.00    -0.023 A
HETATM    5  C13 UNL     1      12.502  37.464  19.783  1.00  0.00     0.014 A
HETATM    6  C12 UNL     1      13.227  38.617  19.608  1.00  0.00     0.018 A
HETATM    7  C11 UNL     1      12.658  39.845  19.797  1.00  0.00     0.090 A
HETATM    8  N1  UNL     1      11.360  39.898  20.160  1.00  0.00    -0.366 N
HETATM    9  C36 UNL     1      10.640  38.796  20.334  1.00  0.00     0.101 A
BRANCH   8  10
HETATM   10  C10 UNL     1      10.693  41.171  20.380  1.00  0.00     0.128 C
BRANCH  10  11
HETATM   11  C9  UNL     1      11.596  42.343  20.303  1.00  0.00     0.025 C
BRANCH  11  12
HETATM   12  C8  UNL     1      10.991  43.420  19.472  1.00  0.00     0.040 C
BRANCH  12  13
HETATM   13  C7  UNL     1      11.923  44.381  18.886  1.00  0.00    -0.058 A
HETATM   14  C6  UNL     1      13.237  44.532  19.292  1.00  0.00     0.007 A
HETATM   15  C5  UNL     1      14.092  45.452  18.706  1.00  0.00     0.001 A
HETATM   16  C4  UNL     1      13.623  46.243  17.689  1.00  0.00     0.007 A
HETATM   17  C3  UNL     1      12.321  46.126  17.255  1.00  0.00    -0.058 A
HETATM   18  C37 UNL     1      11.487  45.192  17.863  1.00  0.00     0.014 A
BRANCH  17  19
HETATM   19  C2  UNL     1      11.830  46.990  16.154  1.00  0.00     0.034 C
HETATM   20  C1  UNL     1      12.856  47.086  15.043  1.00  0.00     0.010 C
ENDBRANCH  17  19
ENDBRANCH  12  13
ENDBRANCH  11  12
ENDBRANCH  10  11
ENDBRANCH   8  10
ENDBRANCH   3   4
ENDBRANCH   1   3
BRANCH   1  21
HETATM   21  C18 UNL     1       9.812  34.711  22.296  1.00  0.00     0.031 A
HETATM   22  C19 UNL     1      10.310  33.793  23.246  1.00  0.00     0.056 A
HETATM   23  C20 UNL     1       9.525  33.280  24.274  1.00  0.00     0.036 A
HETATM   24  C23 UNL     1       8.219  33.689  24.358  1.00  0.00     0.046 A
HETATM   25  C24 UNL     1       7.716  34.578  23.444  1.00  0.00     0.090 A
HETATM   26  N4  UNL     1       8.538  35.022  22.486  1.00  0.00    -0.368 N
ATOM     27  H4  UNL     1       8.134  35.681  21.820  1.00  0.00     0.165 HD
BRANCH  23  28
HETATM   28  N2  UNL     1       9.973  32.452  25.131  1.00  0.00    -0.346 N
ATOM     29  H2  UNL     1      10.164  31.486  24.864  1.00  0.00     0.167 HD
BRANCH  28  30
HETATM   30  C21 UNL     1      10.204  32.889  26.460  1.00  0.00     0.071 C
HETATM   31  C22 UNL     1      11.083  34.042  26.787  1.00  0.00     0.088 C
HETATM   32  N3  UNL     1       9.639  32.276  27.433  1.00  0.00    -0.389 N
ATOM     33  H32 UNL     1       9.037  31.484  27.208  1.00  0.00     0.157 HD
ATOM     34  H31 UNL     1       9.806  32.589  28.389  1.00  0.00     0.157 HD
ENDBRANCH  28  30
ENDBRANCH  23  28
ENDBRANCH   1  21
BRANCH   1  35
HETATM   35  C25 UNL     1      11.333  34.071  20.472  1.00  0.00     0.121 A
HETATM   36  N5  UNL     1      10.596  33.326  19.596  1.00  0.00    -0.275 N
HETATM   37  C26 UNL     1       9.231  33.430  19.206  1.00  0.00     0.180 C
HETATM   38  N6  UNL     1      11.379  32.390  19.035  1.00  0.00    -0.248 N
HETATM   39  C27 UNL     1      11.139  31.419  18.122  1.00  0.00     0.118 A
HETATM   40  C31 UNL     1      12.589  32.521  19.528  1.00  0.00     0.131 A
HETATM   41  C28 UNL     1      12.120  30.548  17.677  1.00  0.00     0.019 A
HETATM   42  C29 UNL     1      13.383  30.695  18.200  1.00  0.00     0.005 A
HETATM   43  C30 UNL     1      13.616  31.703  19.143  1.00  0.00     0.051 A
HETATM   44  N7  UNL     1      12.564  33.574  20.426  1.00  0.00    -0.308 N
BRANCH  44  45
HETATM   45  C32 UNL     1      13.759  33.969  21.063  1.00  0.00     0.225 C
BRANCH  45  46
HETATM   46  C33 UNL     1      13.824  33.365  22.438  1.00  0.00    -0.084 C
HETATM   47  C34 UNL     1      13.865  32.899  23.549  1.00  0.00    -0.079 C
BRANCH  47  48
HETATM   48  C35 UNL     1      13.896  32.351  24.904  1.00  0.00     0.257 C
BRANCH  48  49
HETATM   49  O1  UNL     1      12.972  31.285  24.930  1.00  0.00    -0.389 OA
ATOM     50  H1  UNL     1      13.114  30.822  25.747  1.00  0.00     0.210 HD
ENDBRANCH  48  49
ENDBRANCH  47  48
ENDBRANCH  45  46
ENDBRANCH  44  45
ENDBRANCH   1  35
TORSDOF 15
ENDMDL