MODEL 3
REMARK VINA RESULT: -7.743439640      1.599      1.948
REMARK  13 active torsions:
REMARK  status: ('A' for Active; 'I' for Inactive)
REMARK    1  A    between atoms: C4_4  and  C5_5
REMARK    2  A    between atoms: C7_9  and  N2_10
REMARK    3  A    between atoms: N4_18  and  C11_19
REMARK    4  A    between atoms: C11_19  and  C12_20
REMARK    5  A    between atoms: C12_20  and  C13_21
REMARK    6  A    between atoms: C13_21  and  C14_22
REMARK    7  A    between atoms: C15_23  and  C16_24
REMARK    8  A    between atoms: N5_27  and  C19_28
REMARK    9  A    between atoms: C19_28  and  C20_29
REMARK       I    between atoms: C20_29  and  N6_31
REMARK   10  A    between atoms: N6_31  and  C21_33
REMARK   11  A    between atoms: C24_36  and  C25_37
REMARK   12  A    between atoms: C25_37  and  N7_38
REMARK   13  A    between atoms: C28_41  and  N8_42
ROOT
HETATM    1  C1  UNL     1      13.899  32.100  18.791  1.00  0.00     0.017 C
HETATM    2  C2  UNL     1      12.822  31.562  18.918  1.00  0.00    -0.089 C
HETATM    3  C3  UNL     1      11.575  30.930  19.025  1.00  0.00     0.066 C
HETATM    4  C4  UNL     1      10.466  31.220  19.586  1.00  0.00     0.041 C
ENDROOT
BRANCH   4   5
HETATM    5  C5  UNL     1      10.019  32.344  20.376  1.00  0.00     0.064 A
HETATM    6  C6  UNL     1       9.839  33.636  19.965  1.00  0.00     0.103 A
HETATM    7  N1  UNL     1      10.232  34.263  18.837  1.00  0.00    -0.188 N
HETATM    8  C8  UNL     1       9.217  34.576  20.785  1.00  0.00     0.080 A
HETATM    9  C7  UNL     1       9.853  35.565  18.952  1.00  0.00     0.677 A
ATOM     10  H1  UNL     1      10.721  33.841  18.048  1.00  0.00     0.184 HD
HETATM   11  N3  UNL     1       9.249  35.741  20.111  1.00  0.00    -0.190 N
ATOM     12  H3  UNL     1       8.866  36.625  20.445  1.00  0.00     0.184 HD
HETATM   13  C9  UNL     1       8.762  34.231  22.045  1.00  0.00     0.050 A
HETATM   14  C10 UNL     1       8.968  32.929  22.419  1.00  0.00     0.093 A
HETATM   15  N4  UNL     1       9.560  32.014  21.651  1.00  0.00    -0.355 N
BRANCH   9  16
HETATM   16  N2  UNL     1      10.066  36.453  18.049  1.00  0.00    -0.234 N
ATOM     17  H22 UNL     1      10.395  36.293  17.097  1.00  0.00     0.174 HD
ATOM     18  H21 UNL     1       9.925  37.453  18.193  1.00  0.00     0.174 HD
ENDBRANCH   9  16
BRANCH  15  19
HETATM   19  C11 UNL     1       9.765  30.682  22.146  1.00  0.00     0.129 C
BRANCH  19  20
HETATM   20  C12 UNL     1      10.426  30.599  23.479  1.00  0.00     0.032 C
BRANCH  20  21
HETATM   21  C13 UNL     1      11.915  30.485  23.378  1.00  0.00     0.096 C
BRANCH  21  22
HETATM   22  C14 UNL     1      12.482  31.782  23.003  1.00  0.00    -0.101 C
HETATM   23  C15 UNL     1      12.928  32.858  22.690  1.00  0.00    -0.067 C
BRANCH  23  24
HETATM   24  C16 UNL     1      13.434  34.151  22.313  1.00  0.00     0.020 A
HETATM   25  C17 UNL     1      13.887  35.033  23.298  1.00  0.00     0.038 A
HETATM   26  C18 UNL     1      14.369  36.265  22.919  1.00  0.00     0.092 A
HETATM   27  N5  UNL     1      14.427  36.673  21.622  1.00  0.00    -0.358 N
HETATM   28  C35 UNL     1      13.994  35.840  20.658  1.00  0.00     0.092 A
HETATM   29  C36 UNL     1      13.508  34.601  21.019  1.00  0.00     0.038 A
BRANCH  27  30
HETATM   30  C19 UNL     1      14.947  37.974  21.342  1.00  0.00     0.230 C
BRANCH  30  31
HETATM   31  C20 UNL     1      14.030  38.783  20.455  1.00  0.00     0.240 C
HETATM   32  O1  UNL     1      14.489  39.074  19.343  1.00  0.00    -0.271 OA
HETATM   33  N6  UNL     1      12.773  39.124  20.957  1.00  0.00    -0.326 N
ATOM     34  H6  UNL     1      12.548  38.800  21.897  1.00  0.00     0.169 HD
BRANCH  33  35
HETATM   35  C21 UNL     1      11.784  39.875  20.286  1.00  0.00     0.034 A
HETATM   36  C22 UNL     1      11.323  41.054  20.878  1.00  0.00     0.030 A
HETATM   37  C23 UNL     1      10.379  41.856  20.301  1.00  0.00     0.011 A
HETATM   38  C24 UNL     1       9.829  41.525  19.079  1.00  0.00    -0.040 A
HETATM   39  C33 UNL     1      10.276  40.368  18.487  1.00  0.00     0.011 A
HETATM   40  C34 UNL     1      11.235  39.553  19.074  1.00  0.00     0.030 A
BRANCH  38  41
HETATM   41  C25 UNL     1       8.800  42.385  18.433  1.00  0.00     0.166 C
BRANCH  41  42
HETATM   42  N7  UNL     1       9.276  43.760  18.317  1.00  0.00    -0.362 N
HETATM   43  C26 UNL     1      10.310  44.054  17.483  1.00  0.00     0.093 A
HETATM   44  C27 UNL     1      10.763  45.365  17.371  1.00  0.00     0.046 A
HETATM   45  C28 UNL     1      10.190  46.389  18.087  1.00  0.00     0.032 A
HETATM   46  C31 UNL     1       9.147  46.071  18.926  1.00  0.00     0.046 A
HETATM   47  C32 UNL     1       8.706  44.748  19.024  1.00  0.00     0.093 A
BRANCH  45  48
HETATM   48  N8  UNL     1      10.670  47.719  17.955  1.00  0.00    -0.389 N
HETATM   49  C29 UNL     1      11.989  47.936  17.364  1.00  0.00     0.149 C
HETATM   50  C30 UNL     1       9.930  48.890  18.372  1.00  0.00     0.149 C
ENDBRANCH  45  48
ENDBRANCH  41  42
ENDBRANCH  38  41
ENDBRANCH  33  35
ENDBRANCH  30  31
ENDBRANCH  27  30
ENDBRANCH  23  24
ENDBRANCH  21  22
ENDBRANCH  20  21
ENDBRANCH  19  20
ENDBRANCH  15  19
ENDBRANCH   4   5
TORSDOF 13
ENDMDL