MODEL 3
REMARK VINA RESULT: -7.885157724      7.646     13.171
REMARK  12 active torsions:
REMARK  status: ('A' for Active; 'I' for Inactive)
REMARK    1  A    between atoms: C3_3  and  C4_4
REMARK    2  A    between atoms: C7_7  and  N1_8
REMARK       I    between atoms: N1_8  and  C8_10
REMARK    3  A    between atoms: C8_10  and  C9_12
REMARK    4  A    between atoms: C9_12  and  C10_13
REMARK    5  A    between atoms: N2_16  and  C13_17
REMARK    6  A    between atoms: C16_22  and  O2_23
REMARK    7  A    between atoms: C17_25  and  C18_26
REMARK    8  A    between atoms: C18_26  and  C19_27
REMARK    9  A    between atoms: C20_28  and  C21_29
REMARK   10  A    between atoms: C21_29  and  C22_30
REMARK   11  A    between atoms: C25_33  and  C26_34
REMARK   12  A    between atoms: C26_34  and  C27_35
ROOT
HETATM    1  C1  UNL     1      13.523  48.754  17.384  1.00  0.00     0.097 C
HETATM    2  C2  UNL     1      13.080  47.664  17.052  1.00  0.00    -0.183 C
HETATM    3  C3  UNL     1      12.553  46.361  16.648  1.00  0.00     0.124 C
ENDROOT
BRANCH   3   4
HETATM    4  C4  UNL     1      12.343  45.510  17.843  1.00  0.00     0.033 A
HETATM    5  C5  UNL     1      11.279  44.933  18.339  1.00  0.00     0.005 A
HETATM    6  C6  UNL     1       9.979  44.942  17.882  1.00  0.00     0.044 A
HETATM    7  C35 UNL     1      11.596  44.230  19.481  1.00  0.00     0.046 A
HETATM    8  C7  UNL     1       8.949  44.264  18.529  1.00  0.00     0.035 A
HETATM    9  C33 UNL     1       9.286  43.573  19.661  1.00  0.00     0.032 A
HETATM   10  C34 UNL     1      10.600  43.551  20.142  1.00  0.00     0.033 A
HETATM   11  N5  UNL     1      12.862  44.338  19.744  1.00  0.00    -0.322 N
HETATM   12  C36 UNL     1      13.449  45.145  18.751  1.00  0.00     0.254 A
ATOM     13  H5  UNL     1      13.347  43.913  20.534  1.00  0.00     0.169 HD
HETATM   14  O3  UNL     1      14.657  45.487  18.651  1.00  0.00    -0.268 OA
BRANCH   8  15
HETATM   15  N1  UNL     1       7.631  44.309  18.064  1.00  0.00    -0.327 N
HETATM   16  C8  UNL     1       7.044  43.662  16.979  1.00  0.00     0.226 C
HETATM   17  O1  UNL     1       7.658  42.885  16.189  1.00  0.00    -0.273 OA
ATOM     18  H1  UNL     1       7.003  44.907  18.601  1.00  0.00     0.169 HD
BRANCH  16  19
HETATM   19  C9  UNL     1       5.573  43.852  16.660  1.00  0.00     0.142 C
BRANCH  19  20
HETATM   20  C10 UNL     1       5.403  44.688  15.462  1.00  0.00    -0.034 A
HETATM   21  C11 UNL     1       5.585  44.064  14.209  1.00  0.00     0.026 A
HETATM   22  C12 UNL     1       5.516  44.810  13.062  1.00  0.00     0.093 A
HETATM   23  N2  UNL     1       5.278  46.131  13.096  1.00  0.00    -0.343 N
HETATM   24  C15 UNL     1       5.097  46.766  14.275  1.00  0.00     0.120 A
HETATM   25  N3  UNL     1       4.843  48.052  14.575  1.00  0.00    -0.322 N
HETATM   26  C32 UNL     1       5.158  46.040  15.471  1.00  0.00     0.026 A
HETATM   27  C16 UNL     1       4.730  48.224  15.881  1.00  0.00     0.149 A
ATOM     28  H3  UNL     1       4.749  48.797  13.885  1.00  0.00     0.169 HD
HETATM   29  C17 UNL     1       4.919  46.979  16.477  1.00  0.00     0.012 A
BRANCH  23  30
HETATM   30  C13 UNL     1       5.213  46.896  11.864  1.00  0.00     0.125 C
HETATM   31  C14 UNL     1       6.592  47.210  11.323  1.00  0.00     0.027 C
ENDBRANCH  23  30
BRANCH  27  32
HETATM   32  O2  UNL     1       4.473  49.405  16.581  1.00  0.00    -0.346 OA
ATOM     33  H2  UNL     1       4.383  49.528  17.518  1.00  0.00     0.219 HD
ENDBRANCH  27  32
BRANCH  29  34
HETATM   34  C18 UNL     1       4.835  46.660  17.912  1.00  0.00     0.085 C
BRANCH  34  35
HETATM   35  C19 UNL     1       5.245  47.779  18.814  1.00  0.00    -0.025 A
HETATM   36  C20 UNL     1       6.557  48.161  18.876  1.00  0.00    -0.048 A
HETATM   37  C24 UNL     1       6.865  49.198  19.772  1.00  0.00     0.033 A
HETATM   38  C25 UNL     1       5.862  49.775  20.531  1.00  0.00     0.011 A
HETATM   39  N4  UNL     1       4.586  49.380  20.447  1.00  0.00    -0.358 N
HETATM   40  C29 UNL     1       3.558  50.003  21.253  1.00  0.00     0.156 C
HETATM   41  C30 UNL     1       4.259  48.389  19.599  1.00  0.00     0.014 A
HETATM   42  C31 UNL     1       2.843  47.911  19.480  1.00  0.00     0.069 C
BRANCH  36  43
HETATM   43  C21 UNL     1       7.658  47.615  18.057  1.00  0.00     0.039 C
BRANCH  43  44
HETATM   44  C22 UNL     1       8.445  48.676  17.336  1.00  0.00     0.000 C
HETATM   45  C23 UNL     1       9.842  48.700  17.947  1.00  0.00     0.005 C
ENDBRANCH  43  44
ENDBRANCH  36  43
BRANCH  38  46
HETATM   46  C26 UNL     1       6.205  50.864  21.487  1.00  0.00     0.057 C
BRANCH  46  47
HETATM   47  C27 UNL     1       7.452  51.607  21.039  1.00  0.00     0.002 C
HETATM   48  C28 UNL     1       7.090  52.899  20.349  1.00  0.00     0.005 C
ENDBRANCH  46  47
ENDBRANCH  38  46
ENDBRANCH  34  35
ENDBRANCH  29  34
ENDBRANCH  19  20
ENDBRANCH  16  19
ENDBRANCH   8  15
ENDBRANCH   3   4
TORSDOF 12
ENDMDL