MODEL 4
REMARK VINA RESULT: -8.019223539      1.578      2.364
REMARK  12 active torsions:
REMARK  status: ('A' for Active; 'I' for Inactive)
REMARK    1  A    between atoms: C2_2  and  C28_37
REMARK    2  A    between atoms: C3_3  and  C4_4
REMARK    3  A    between atoms: C4_4  and  C5_5
REMARK    4  A    between atoms: C6_6  and  C7_7
REMARK    5  A    between atoms: C7_7  and  N1_8
REMARK    6  A    between atoms: C16_18  and  N3_19
REMARK       I    between atoms: N3_19  and  C17_21
REMARK    7  A    between atoms: N5_23  and  C18_25
REMARK    8  A    between atoms: C18_25  and  C19_26
REMARK    9  A    between atoms: C19_26  and  C20_27
REMARK   10  A    between atoms: C23_32  and  C24_33
REMARK   11  A    between atoms: C28_37  and  C29_38
REMARK   12  A    between atoms: C29_38  and  N7_39
ROOT
HETATM    1  C5  UNL     1      11.209  38.659  20.718  1.00  0.00    -0.020 A
HETATM    2  C6  UNL     1       9.891  38.107  20.662  1.00  0.00    -0.001 A
HETATM    3  C15 UNL     1       9.689  36.851  20.157  1.00  0.00     0.062 A
HETATM    4  C16 UNL     1      10.785  36.144  19.704  1.00  0.00     0.108 A
HETATM    5  N6  UNL     1      11.999  36.683  19.766  1.00  0.00    -0.345 N
ATOM      6  H6  UNL     1      12.782  36.128  19.421  1.00  0.00     0.167 HD
HETATM    7  C23 UNL     1      12.273  37.932  20.260  1.00  0.00     0.026 A
ENDROOT
BRANCH   1   8
HETATM    8  C4  UNL     1      11.342  39.985  21.290  1.00  0.00     0.068 C
BRANCH   8   9
HETATM    9  C3  UNL     1      11.221  41.154  20.388  1.00  0.00    -0.020 C
HETATM   10  C2  UNL     1      10.861  42.352  20.815  1.00  0.00    -0.086 C
HETATM   11  C1  UNL     1      10.536  42.710  22.216  1.00  0.00     0.043 C
BRANCH  10  12
HETATM   12  C28 UNL     1      10.764  43.471  19.820  1.00  0.00     0.053 C
BRANCH  12  13
HETATM   13  C29 UNL     1      12.067  44.281  19.838  1.00  0.00     0.137 C
BRANCH  13  14
HETATM   14  N7  UNL     1      12.221  45.019  18.603  1.00  0.00    -0.309 N
HETATM   15  C30 UNL     1      11.204  45.227  17.753  1.00  0.00     0.101 A
HETATM   16  C31 UNL     1      11.437  45.943  16.598  1.00  0.00     0.092 A
HETATM   17  C32 UNL     1      12.703  46.449  16.300  1.00  0.00     0.250 A
HETATM   18  O1  UNL     1      12.894  47.104  15.230  1.00  0.00    -0.268 OA
HETATM   19  N8  UNL     1      13.674  46.207  17.188  1.00  0.00    -0.275 N
HETATM   20  C33 UNL     1      13.439  45.509  18.311  1.00  0.00     0.329 A
ATOM     21  H8  UNL     1      14.614  46.560  17.008  1.00  0.00     0.173 HD
HETATM   22  O2  UNL     1      14.431  45.337  19.087  1.00  0.00    -0.246 OA
ENDBRANCH  13  14
ENDBRANCH  12  13
ENDBRANCH  10  12
ENDBRANCH   8   9
ENDBRANCH   1   8
BRANCH   2  23
HETATM   23  C7  UNL     1       8.784  38.944  21.084  1.00  0.00     0.214 C
BRANCH  23  24
HETATM   24  N1  UNL     1       8.077  38.727  22.291  1.00  0.00    -0.041 N
HETATM   25  C8  UNL     1       6.779  38.107  22.179  1.00  0.00     0.271 C
HETATM   26  C9  UNL     1       5.818  38.743  23.217  1.00  0.00     0.265 C
HETATM   27  N2  UNL     1       6.665  38.944  24.386  1.00  0.00    -0.066 N
HETATM   28  C10 UNL     1       5.860  38.909  25.555  1.00  0.00     0.272 C
HETATM   29  C11 UNL     1       7.330  40.217  24.136  1.00  0.00     0.265 C
HETATM   30  C13 UNL     1       7.712  37.922  24.489  1.00  0.00     0.265 C
HETATM   31  C12 UNL     1       7.803  40.178  22.726  1.00  0.00     0.271 C
HETATM   32  C14 UNL     1       8.775  38.212  23.414  1.00  0.00     0.271 C
ENDBRANCH  23  24
ENDBRANCH   2  23
BRANCH   7  33
HETATM   33  C24 UNL     1      13.653  38.428  20.278  1.00  0.00    -0.008 C
HETATM   34  C25 UNL     1      14.539  37.229  19.832  1.00  0.00     0.021 C
HETATM   35  C26 UNL     1      14.216  38.686  21.672  1.00  0.00     0.021 C
HETATM   36  C27 UNL     1      14.028  39.457  19.273  1.00  0.00     0.021 C
ENDBRANCH   7  33
BRANCH   4  37
HETATM   37  N3  UNL     1      10.563  34.982  19.235  1.00  0.00    -0.317 N
HETATM   38  C17 UNL     1      11.211  33.765  19.573  1.00  0.00     0.193 C
HETATM   39  N4  UNL     1      10.354  32.745  20.085  1.00  0.00    -0.063 NA
HETATM   40  N5  UNL     1      12.439  33.565  19.444  1.00  0.00    -0.344 N
ATOM     41  H5  UNL     1      12.897  34.394  19.066  1.00  0.00     0.167 HD
ATOM     42  H3  UNL     1       9.828  34.917  18.531  1.00  0.00     0.170 HD
BRANCH  40  43
HETATM   43  C18 UNL     1      13.363  32.555  19.659  1.00  0.00     0.064 C
BRANCH  43  44
HETATM   44  C19 UNL     1      13.834  31.906  18.384  1.00  0.00     0.048 C
BRANCH  44  45
HETATM   45  C20 UNL     1      13.250  30.499  18.242  1.00  0.00    -0.018 C
HETATM   46  C21 UNL     1      12.728  30.048  19.590  1.00  0.00     0.010 C
HETATM   47  C22 UNL     1      12.098  30.570  17.287  1.00  0.00     0.010 C
ENDBRANCH  44  45
ENDBRANCH  43  44
ENDBRANCH  40  43
ENDBRANCH   4  37
TORSDOF 12
ENDMDL