MODEL 2
REMARK VINA RESULT: -8.151400392     12.792     16.470
REMARK  11 active torsions:
REMARK  status: ('A' for Active; 'I' for Inactive)
REMARK    1  A    between atoms: C13_15  and  C14_16
REMARK    2  A    between atoms: C15_17  and  C16_18
REMARK    3  A    between atoms: C16_18  and  C17_19
REMARK    4  A    between atoms: C17_19  and  C18_20
REMARK    5  A    between atoms: C18_20  and  C19_21
REMARK    6  A    between atoms: C19_21  and  N2_22
REMARK    7  A    between atoms: N2_22  and  N3_24
REMARK    8  A    between atoms: N5_30  and  C21_31
REMARK    9  A    between atoms: C21_31  and  C22_32
REMARK   10  A    between atoms: C22_32  and  C23_33
REMARK   11  A    between atoms: C26_38  and  O4_39
ROOT
HETATM    1  C1  UNL     1       5.666  29.411  25.006  1.00  0.00     0.153 C
HETATM    2  N1  UNL     1       6.169  30.761  24.846  1.00  0.00    -0.347 N
HETATM    3  C2  UNL     1       6.013  31.806  25.798  1.00  0.00     0.228 C
HETATM    4  O1  UNL     1       5.301  31.701  26.854  1.00  0.00    -0.273 OA
HETATM    5  C3  UNL     1       6.802  32.919  25.304  1.00  0.00     0.041 C
HETATM    6  C4  UNL     1       6.273  34.272  25.668  1.00  0.00     0.025 C
HETATM    7  C5  UNL     1       6.620  32.783  23.782  1.00  0.00     0.049 C
HETATM    8  C6  UNL     1       6.920  31.329  23.714  1.00  0.00     0.117 C
HETATM    9  C7  UNL     1       8.430  31.025  23.866  1.00  0.00    -0.052 C
HETATM   10  C8  UNL     1       9.086  30.978  22.577  1.00  0.00    -0.020 C
HETATM   11  C9  UNL     1      10.145  31.853  22.078  1.00  0.00     0.042 C
HETATM   12  C10 UNL     1      11.560  31.694  22.667  1.00  0.00    -0.005 C
HETATM   13  C11 UNL     1      12.002  30.420  22.105  1.00  0.00     0.021 C
HETATM   14  C12 UNL     1      12.245  32.943  22.521  1.00  0.00    -0.027 A
HETATM   15  C13 UNL     1      13.107  33.085  21.496  1.00  0.00    -0.013 A
HETATM   16  C20 UNL     1      13.920  34.243  21.305  1.00  0.00     0.102 A
HETATM   17  N5  UNL     1      13.846  35.257  22.163  1.00  0.00    -0.364 N
HETATM   18  C24 UNL     1      13.003  35.147  23.175  1.00  0.00     0.100 A
HETATM   19  C25 UNL     1      12.181  34.031  23.412  1.00  0.00    -0.006 A
HETATM   20  C26 UNL     1      11.458  34.399  24.624  1.00  0.00     0.153 C
HETATM   21  C27 UNL     1      10.943  33.322  25.529  1.00  0.00     0.043 C
HETATM   22  C28 UNL     1      10.389  32.262  24.631  1.00  0.00     0.010 C
HETATM   23  C29 UNL     1       9.045  31.686  25.051  1.00  0.00    -0.013 C
HETATM   24  C30 UNL     1       9.124  30.830  26.296  1.00  0.00     0.020 C
HETATM   25  C31 UNL     1       8.256  32.910  25.543  1.00  0.00     0.033 C
HETATM   26  C32 UNL     1      11.469  31.402  24.195  1.00  0.00    -0.031 C
HETATM   27  C33 UNL     1      11.348  29.952  24.558  1.00  0.00     0.016 C
HETATM   28  C34 UNL     1      12.870  31.614  24.728  1.00  0.00     0.016 C
ENDROOT
BRANCH  15  29
HETATM   29  C14 UNL     1      13.154  32.196  20.391  1.00  0.00     0.009 C
HETATM   30  C15 UNL     1      13.755  32.529  19.230  1.00  0.00    -0.026 C
BRANCH  30  31
HETATM   31  C16 UNL     1      13.807  31.605  18.063  1.00  0.00     0.027 C
BRANCH  31  32
HETATM   32  C17 UNL     1      12.840  30.478  18.160  1.00  0.00     0.005 C
BRANCH  32  33
HETATM   33  C18 UNL     1      11.493  30.927  17.654  1.00  0.00     0.021 C
BRANCH  33  34
HETATM   34  C19 UNL     1      10.500  31.160  18.742  1.00  0.00     0.141 C
BRANCH  34  35
HETATM   35  N2  UNL     1       9.779  32.394  18.461  1.00  0.00    -0.323 N
ATOM     36  H2  UNL     1       8.880  32.345  17.983  1.00  0.00     0.181 HD
BRANCH  35  37
HETATM   37  N3  UNL     1      10.285  33.639  18.827  1.00  0.00    -0.254 N
HETATM   38  N4  UNL     1       9.673  34.680  18.448  1.00  0.00    -0.331 N
ATOM     39  H42 UNL     1       8.827  34.591  17.885  1.00  0.00     0.178 HD
ATOM     40  H41 UNL     1      10.043  35.591  18.716  1.00  0.00     0.178 HD
ATOM     41  H3  UNL     1      11.132  33.711  19.391  1.00  0.00     0.207 HD
ENDBRANCH  35  37
ENDBRANCH  34  35
ENDBRANCH  33  34
ENDBRANCH  32  33
ENDBRANCH  31  32
ENDBRANCH  30  31
ENDBRANCH  15  29
BRANCH  17  42
HETATM   42  C21 UNL     1      14.680  36.424  21.956  1.00  0.00     0.138 C
BRANCH  42  43
HETATM   43  C22 UNL     1      14.996  36.483  20.464  1.00  0.00     0.133 C
BRANCH  43  44
HETATM   44  C23 UNL     1      14.188  37.533  19.796  1.00  0.00     0.174 C
HETATM   45  O2  UNL     1      14.710  38.577  19.340  1.00  0.00    -0.648 OA
HETATM   46  O3  UNL     1      12.819  37.377  19.662  1.00  0.00    -0.648 OA
ENDBRANCH  43  44
ENDBRANCH  42  43
ENDBRANCH  17  42
BRANCH  20  47
HETATM   47  O4  UNL     1      12.082  35.424  25.365  1.00  0.00    -0.391 OA
ATOM     48  H4  UNL     1      11.472  36.052  25.734  1.00  0.00     0.210 HD
ENDBRANCH  20  47
TORSDOF 11
ENDMDL