MODEL 2
REMARK VINA RESULT: -10.622394557      2.243      4.141
REMARK  10 active torsions:
REMARK  status: ('A' for Active; 'I' for Inactive)
REMARK    1  A    between atoms: N1_2  and  C3_4
REMARK    2  A    between atoms: C3_4  and  C4_5
REMARK    3  A    between atoms: C7_8  and  C8_9
REMARK    4  A    between atoms: C8_9  and  C9_10
REMARK    5  A    between atoms: C11_16  and  C12_17
REMARK    6  A    between atoms: C12_17  and  C13_18
REMARK    7  A    between atoms: C17_22  and  C18_23
REMARK    8  A    between atoms: N4_26  and  C21_27
REMARK    9  A    between atoms: C21_27  and  C22_28
REMARK   10  A    between atoms: C25_31  and  C26_32
ROOT
HETATM    1  C13 UNL     1      13.409  34.563  21.410  1.00  0.00     0.028 A
HETATM    2  C14 UNL     1      12.815  35.694  21.083  1.00  0.00     0.003 A
HETATM    3  C15 UNL     1      11.522  35.939  20.644  1.00  0.00     0.015 A
HETATM    4  C16 UNL     1      11.061  37.221  20.354  1.00  0.00     0.015 A
HETATM    5  C17 UNL     1      11.916  38.286  20.508  1.00  0.00    -0.006 A
HETATM    6  C34 UNL     1      13.203  38.052  20.943  1.00  0.00     0.044 A
HETATM    7  C35 UNL     1      13.666  36.768  21.234  1.00  0.00     0.046 A
HETATM    8  N6  UNL     1      14.814  36.340  21.659  1.00  0.00    -0.322 N
ATOM      9  H6  UNL     1      15.628  36.923  21.856  1.00  0.00     0.169 HD
HETATM   10  C36 UNL     1      14.757  34.929  21.807  1.00  0.00     0.253 A
HETATM   11  O1  UNL     1      15.624  34.124  22.185  1.00  0.00    -0.268 OA
ENDROOT
BRANCH   1  12
HETATM   12  C12 UNL     1      12.818  33.193  21.392  1.00  0.00     0.104 C
BRANCH  12  13
HETATM   13  C11 UNL     1      13.080  32.577  20.059  1.00  0.00     0.037 A
HETATM   14  C9  UNL     1      12.237  31.748  19.380  1.00  0.00     0.037 A
HETATM   15  N2  UNL     1      12.908  31.408  18.230  1.00  0.00    -0.354 N
HETATM   16  C10 UNL     1      14.104  32.002  18.205  1.00  0.00     0.180 A
ATOM     17  H2  UNL     1      12.545  30.792  17.502  1.00  0.00     0.166 HD
HETATM   18  N3  UNL     1      14.220  32.720  19.322  1.00  0.00    -0.354 N
ATOM     19  H3  UNL     1      15.029  33.285  19.582  1.00  0.00     0.166 HD
BRANCH  14  20
HETATM   20  C8  UNL     1      10.876  31.283  19.712  1.00  0.00     0.097 C
BRANCH  20  21
HETATM   21  C7  UNL     1      10.694  30.931  21.136  1.00  0.00    -0.052 A
HETATM   22  C6  UNL     1      11.494  30.094  21.871  1.00  0.00     0.008 A
HETATM   23  C5  UNL     1      11.261  29.800  23.197  1.00  0.00     0.009 A
HETATM   24  C4  UNL     1      10.193  30.339  23.881  1.00  0.00    -0.030 A
HETATM   25  C38 UNL     1       9.367  31.194  23.148  1.00  0.00     0.009 A
HETATM   26  C37 UNL     1       9.599  31.488  21.824  1.00  0.00     0.008 A
BRANCH  24  27
HETATM   27  C3  UNL     1       9.899  30.049  25.295  1.00  0.00     0.309 C
BRANCH  27  28
HETATM   28  N1  UNL     1       9.372  31.220  25.952  1.00  0.00     0.084 N
HETATM   29  C1  UNL     1      10.406  31.995  26.601  1.00  0.00     0.309 C
HETATM   30  C2  UNL     1       8.271  30.918  26.828  1.00  0.00     0.309 C
ENDBRANCH  27  28
ENDBRANCH  24  27
ENDBRANCH  20  21
ENDBRANCH  14  20
ENDBRANCH  12  13
ENDBRANCH   1  12
BRANCH   5  31
HETATM   31  C18 UNL     1      11.447  39.654  20.226  1.00  0.00     0.059 A
HETATM   32  C19 UNL     1      10.772  40.111  19.115  1.00  0.00     0.050 A
HETATM   33  C20 UNL     1      10.542  41.462  19.335  1.00  0.00     0.113 A
HETATM   34  N4  UNL     1      11.051  41.810  20.518  1.00  0.00    -0.299 N
HETATM   35  N5  UNL     1      11.586  40.730  21.038  1.00  0.00    -0.298 N
ATOM     36  H5  UNL     1      12.050  40.703  21.946  1.00  0.00     0.187 HD
BRANCH  34  37
HETATM   37  C21 UNL     1      11.002  43.158  21.101  1.00  0.00     0.186 C
BRANCH  37  38
HETATM   38  C22 UNL     1      11.365  44.157  20.049  1.00  0.00    -0.038 A
HETATM   39  C23 UNL     1      10.396  44.946  19.469  1.00  0.00     0.010 A
HETATM   40  C24 UNL     1      10.721  45.885  18.483  1.00  0.00     0.013 A
HETATM   41  C25 UNL     1      12.026  46.030  18.081  1.00  0.00    -0.026 A
HETATM   42  C32 UNL     1      12.985  45.237  18.667  1.00  0.00     0.013 A
HETATM   43  C33 UNL     1      12.687  44.304  19.640  1.00  0.00     0.010 A
BRANCH  41  44
HETATM   44  C26 UNL     1      12.398  46.995  17.074  1.00  0.00    -0.026 A
HETATM   45  C27 UNL     1      12.380  46.638  15.746  1.00  0.00     0.012 A
HETATM   46  C28 UNL     1      12.743  47.556  14.796  1.00  0.00     0.001 A
HETATM   47  C29 UNL     1      13.126  48.825  15.130  1.00  0.00     0.000 A
HETATM   48  C30 UNL     1      13.157  49.228  16.467  1.00  0.00     0.001 A
HETATM   49  C31 UNL     1      12.786  48.285  17.405  1.00  0.00     0.012 A
ENDBRANCH  41  44
ENDBRANCH  37  38
ENDBRANCH  34  37
ENDBRANCH   5  31
TORSDOF 10
ENDMDL