MODEL 2
REMARK VINA RESULT: -8.328247235      1.235      1.859
REMARK  11 active torsions:
REMARK  status: ('A' for Active; 'I' for Inactive)
REMARK    1  A    between atoms: C2_2  and  N1_3
REMARK    2  A    between atoms: N1_3  and  C4_5
REMARK    3  A    between atoms: N1_3  and  C6_7
REMARK    4  A    between atoms: C6_7  and  C7_8
REMARK    5  A    between atoms: C7_8  and  C8_9
REMARK    6  A    between atoms: C8_9  and  C9_10
REMARK    7  A    between atoms: C9_10  and  C10_11
REMARK    8  A    between atoms: C10_11  and  N2_12
REMARK    9  A    between atoms: N2_12  and  C11_14
REMARK   10  A    between atoms: C23_31  and  C24_32
REMARK   11  A    between atoms: C24_32  and  N6_33
ROOT
HETATM    1  C11 UNL     1      11.253  41.324  19.571  1.00  0.00     0.118 A
HETATM    2  C12 UNL     1      10.274  40.363  19.615  1.00  0.00     0.139 A
HETATM    3  N3  UNL     1      10.646  39.068  19.738  1.00  0.00    -0.354 N
HETATM    4  C13 UNL     1       9.665  38.001  19.792  1.00  0.00     0.156 C
HETATM    5  C14 UNL     1      11.948  38.742  19.815  1.00  0.00     0.087 A
HETATM    6  C15 UNL     1      12.633  37.541  19.943  1.00  0.00    -0.000 A
HETATM    7  C16 UNL     1      14.009  37.796  19.976  1.00  0.00     0.024 A
HETATM    8  N4  UNL     1      14.159  39.118  19.868  1.00  0.00    -0.343 N
ATOM      9  H4  UNL     1      15.054  39.607  19.861  1.00  0.00     0.167 HD
HETATM   10  C17 UNL     1      12.943  39.713  19.771  1.00  0.00     0.135 A
HETATM   11  N5  UNL     1      12.555  40.996  19.648  1.00  0.00    -0.326 N
ATOM     12  H5  UNL     1      13.260  41.732  19.613  1.00  0.00     0.169 HD
HETATM   13  C18 UNL     1      14.991  36.667  20.119  1.00  0.00     0.097 C
HETATM   14  C19 UNL     1      14.403  35.764  21.180  1.00  0.00    -0.045 A
HETATM   15  C20 UNL     1      15.163  35.201  22.177  1.00  0.00     0.008 A
HETATM   16  C21 UNL     1      14.602  34.380  23.145  1.00  0.00     0.001 A
HETATM   17  C22 UNL     1      13.238  34.140  23.084  1.00  0.00     0.009 A
HETATM   18  C23 UNL     1      12.455  34.693  22.093  1.00  0.00    -0.033 A
HETATM   19  C32 UNL     1      13.039  35.503  21.145  1.00  0.00    -0.039 A
HETATM   20  C33 UNL     1      12.248  36.133  20.042  1.00  0.00     0.082 C
ENDROOT
BRANCH   1  21
HETATM   21  N2  UNL     1      10.958  42.557  19.452  1.00  0.00    -0.375 N
ATOM     22  H2  UNL     1      10.114  42.767  18.919  1.00  0.00     0.161 HD
BRANCH  21  23
HETATM   23  C10 UNL     1      11.665  43.682  19.975  1.00  0.00     0.121 C
BRANCH  23  24
HETATM   24  C9  UNL     1      11.958  44.729  18.938  1.00  0.00     0.020 C
BRANCH  24  25
HETATM   25  C8  UNL     1      13.415  45.118  18.851  1.00  0.00     0.003 C
BRANCH  25  26
HETATM   26  C7  UNL     1      13.617  46.207  17.854  1.00  0.00     0.028 C
BRANCH  26  27
HETATM   27  C6  UNL     1      12.417  46.819  17.246  1.00  0.00     0.237 C
BRANCH  27  28
HETATM   28  N1  UNL     1      12.506  48.090  16.637  1.00  0.00    -0.072 N
HETATM   29  C3  UNL     1      12.790  48.143  15.236  1.00  0.00     0.272 C
BRANCH  28  30
HETATM   30  C2  UNL     1      13.540  48.881  17.351  1.00  0.00     0.232 C
HETATM   31  C1  UNL     1      13.472  50.329  16.975  1.00  0.00     0.035 C
ENDBRANCH  28  30
BRANCH  28  32
HETATM   32  C4  UNL     1      11.281  48.841  16.869  1.00  0.00     0.232 C
HETATM   33  C5  UNL     1      10.434  48.182  17.934  1.00  0.00     0.035 C
ENDBRANCH  28  32
ENDBRANCH  27  28
ENDBRANCH  26  27
ENDBRANCH  25  26
ENDBRANCH  24  25
ENDBRANCH  23  24
ENDBRANCH  21  23
ENDBRANCH   1  21
BRANCH  18  34
HETATM   34  C24 UNL     1      10.991  34.454  21.990  1.00  0.00     0.165 C
BRANCH  34  35
HETATM   35  N6  UNL     1      10.650  33.176  22.612  1.00  0.00    -0.346 N
HETATM   36  C25 UNL     1      10.997  31.879  22.071  1.00  0.00     0.133 C
HETATM   37  C26 UNL     1      11.093  31.012  23.308  1.00  0.00     0.034 C
HETATM   38  C27 UNL     1      10.776  29.627  22.963  1.00  0.00     0.021 C
HETATM   39  C29 UNL     1      10.091  31.606  24.229  1.00  0.00     0.120 C
HETATM   40  C28 UNL     1       9.318  29.365  22.976  1.00  0.00     0.110 C
HETATM   41  S1  UNL     1       8.608  30.659  24.002  1.00  0.00     0.033 S
HETATM   42  O1  UNL     1       8.080  29.976  25.440  1.00  0.00    -0.257 OA
HETATM   43  C30 UNL     1      10.540  31.427  25.664  1.00  0.00     0.040 C
HETATM   44  C31 UNL     1       9.940  33.010  23.824  1.00  0.00     0.241 C
HETATM   45  O2  UNL     1       9.285  33.912  24.455  1.00  0.00    -0.271 OA
ENDBRANCH  34  35
ENDBRANCH  18  34
TORSDOF 11
ENDMDL