MODEL 4
REMARK VINA RESULT: -8.063088783     11.492     15.791
REMARK  11 active torsions:
REMARK  status: ('A' for Active; 'I' for Inactive)
REMARK    1  A    between atoms: C2_2  and  C3_3
REMARK    2  A    between atoms: C5_5  and  C6_6
REMARK    3  A    between atoms: C6_6  and  C7_7
REMARK    4  A    between atoms: C7_7  and  C8_8
REMARK    5  A    between atoms: C8_8  and  C9_9
REMARK    6  A    between atoms: C9_9  and  N1_10
REMARK    7  A    between atoms: N2_17  and  C16_18
REMARK    8  A    between atoms: C20_22  and  S1_23
REMARK    9  A    between atoms: C22_27  and  C23_28
REMARK   10  A    between atoms: C27_34  and  C28_35
REMARK   11  A    between atoms: C28_35  and  C29_36
ROOT
HETATM    1  C16 UNL     1      12.485  34.347  20.377  1.00  0.00     0.050 A
HETATM    2  C17 UNL     1      13.592  35.051  20.788  1.00  0.00     0.031 A
HETATM    3  C18 UNL     1      13.623  36.441  20.608  1.00  0.00     0.004 A
HETATM    4  C19 UNL     1      12.551  37.094  20.022  1.00  0.00     0.024 A
HETATM    5  C20 UNL     1      11.432  36.376  19.608  1.00  0.00     0.071 A
HETATM    6  C22 UNL     1      11.433  35.013  19.799  1.00  0.00     0.015 A
ENDROOT
BRANCH   1   7
HETATM    7  N2  UNL     1      12.427  32.949  20.527  1.00  0.00    -0.331 N
HETATM    8  C15 UNL     1      12.073  32.335  21.669  1.00  0.00     0.103 A
HETATM    9  C5  UNL     1      12.025  30.947  21.812  1.00  0.00    -0.042 A
HETATM   10  C4  UNL     1      12.353  30.160  20.742  1.00  0.00     0.017 A
HETATM   11  C3  UNL     1      12.726  30.771  19.542  1.00  0.00    -0.042 A
HETATM   12  C33 UNL     1      12.744  32.126  19.496  1.00  0.00     0.103 A
BRANCH   9  13
HETATM   13  C6  UNL     1      11.629  30.343  23.116  1.00  0.00     0.040 C
BRANCH  13  14
HETATM   14  C7  UNL     1      10.578  29.296  22.977  1.00  0.00     0.006 C
BRANCH  14  15
HETATM   15  C8  UNL     1       9.170  29.744  22.953  1.00  0.00     0.021 C
BRANCH  15  16
HETATM   16  C9  UNL     1       8.856  31.037  23.625  1.00  0.00     0.128 C
BRANCH  16  17
HETATM   17  N1  UNL     1       8.386  30.901  24.986  1.00  0.00    -0.366 N
HETATM   18  C10 UNL     1       7.351  30.061  25.255  1.00  0.00     0.090 A
HETATM   19  C11 UNL     1       6.852  29.891  26.505  1.00  0.00     0.017 A
HETATM   20  C12 UNL     1       7.393  30.584  27.560  1.00  0.00     0.003 A
HETATM   21  C13 UNL     1       8.439  31.441  27.312  1.00  0.00     0.017 A
HETATM   22  C14 UNL     1       8.913  31.577  26.013  1.00  0.00     0.090 A
ENDBRANCH  16  17
ENDBRANCH  15  16
ENDBRANCH  14  15
ENDBRANCH  13  14
ENDBRANCH   9  13
BRANCH  11  23
HETATM   23  C2  UNL     1      13.082  29.908  18.379  1.00  0.00     0.035 C
HETATM   24  C1  UNL     1      12.257  30.437  17.198  1.00  0.00     0.010 C
ENDBRANCH  11  23
ENDBRANCH   1   7
BRANCH   6  25
HETATM   25  C23 UNL     1      10.279  34.241  19.387  1.00  0.00     0.045 C
HETATM   26  C24 UNL     1       9.237  34.125  20.209  1.00  0.00     0.043 A
HETATM   27  N3  UNL     1       9.086  34.656  21.450  1.00  0.00    -0.365 N
HETATM   28  C27 UNL     1       8.078  33.426  19.960  1.00  0.00    -0.006 A
HETATM   29  C25 UNL     1       7.911  34.328  21.979  1.00  0.00     0.089 A
ATOM     30  H3  UNL     1       9.786  35.232  21.917  1.00  0.00     0.165 HD
HETATM   31  C26 UNL     1       7.255  33.550  21.055  1.00  0.00     0.030 A
BRANCH  28  32
HETATM   32  C28 UNL     1       7.781  32.746  18.874  1.00  0.00     0.045 C
BRANCH  32  33
HETATM   33  C29 UNL     1       7.267  33.387  17.669  1.00  0.00     0.059 A
HETATM   34  N4  UNL     1       7.460  34.636  17.221  1.00  0.00    -0.307 N
HETATM   35  C30 UNL     1       6.794  34.786  16.067  1.00  0.00     0.325 A
ATOM     36  H4  UNL     1       8.021  35.353  17.682  1.00  0.00     0.170 HD
HETATM   37  O3  UNL     1       6.791  35.873  15.406  1.00  0.00    -0.247 OA
HETATM   38  N5  UNL     1       6.156  33.644  15.740  1.00  0.00    -0.311 N
HETATM   39  C31 UNL     1       6.451  32.782  16.731  1.00  0.00     0.036 A
ATOM     40  H5  UNL     1       5.576  33.470  14.919  1.00  0.00     0.170 HD
HETATM   41  C32 UNL     1       5.967  31.398  16.793  1.00  0.00     0.070 C
ENDBRANCH  32  33
ENDBRANCH  28  32
ENDBRANCH   6  25
BRANCH   5  42
HETATM   42  S1  UNL     1      10.108  37.220  18.857  1.00  0.00     0.172 S
HETATM   43  C21 UNL     1      10.569  38.906  18.476  1.00  0.00     0.167 C
HETATM   44  O1  UNL     1       8.880  37.263  19.691  1.00  0.00    -0.223 OA
HETATM   45  O2  UNL     1       9.769  36.577  17.519  1.00  0.00    -0.223 OA
ENDBRANCH   5  42
TORSDOF 11
ENDMDL