MODEL 3
REMARK VINA RESULT: -9.852406442      3.208      4.391
REMARK  10 active torsions:
REMARK  status: ('A' for Active; 'I' for Inactive)
REMARK    1  A    between atoms: C2_3  and  C3_4
REMARK    2  A    between atoms: C3_4  and  C4_5
REMARK    3  A    between atoms: C4_5  and  C5_6
REMARK    4  A    between atoms: C5_6  and  N2_7
REMARK    5  A    between atoms: C9_11  and  C10_12
REMARK       I    between atoms: N3_20  and  C18_22
REMARK    6  A    between atoms: C18_22  and  C19_24
REMARK    7  A    between atoms: C19_24  and  C20_25
REMARK    8  A    between atoms: C20_25  and  C21_26
REMARK    9  A    between atoms: C21_26  and  N4_27
REMARK   10  A    between atoms: C29_40  and  C30_41
ROOT
HETATM    1  N2  UNL     1       9.031  39.877  19.710  1.00  0.00    -0.366 N
HETATM    2  C6  UNL     1       8.780  39.450  18.462  1.00  0.00     0.090 A
HETATM    3  C7  UNL     1       9.696  38.702  17.746  1.00  0.00     0.018 A
HETATM    4  C8  UNL     1      10.904  38.378  18.311  1.00  0.00     0.015 A
HETATM    5  C9  UNL     1      11.151  38.818  19.583  1.00  0.00    -0.010 A
HETATM    6  C23 UNL     1      10.215  39.560  20.266  1.00  0.00     0.102 A
ENDROOT
BRANCH   5   7
HETATM    7  C10 UNL     1      12.397  38.531  20.284  1.00  0.00    -0.024 A
HETATM    8  C11 UNL     1      13.363  37.815  19.609  1.00  0.00     0.014 A
HETATM    9  C12 UNL     1      14.545  37.539  20.262  1.00  0.00     0.031 A
HETATM   10  C13 UNL     1      14.795  37.956  21.565  1.00  0.00     0.040 A
HETATM   11  C14 UNL     1      13.829  38.670  22.232  1.00  0.00    -0.024 A
HETATM   12  N7  UNL     1      15.916  37.787  22.412  1.00  0.00    -0.345 N
HETATM   13  C15 UNL     1      12.631  38.947  21.568  1.00  0.00     0.022 A
HETATM   14  C16 UNL     1      14.310  39.005  23.590  1.00  0.00     0.117 A
HETATM   15  C17 UNL     1      15.660  38.410  23.660  1.00  0.00     0.088 A
HETATM   16  N3  UNL     1      16.474  38.453  24.691  1.00  0.00    -0.316 N
HETATM   17  C18 UNL     1      17.751  37.842  24.641  1.00  0.00     0.223 C
ATOM     18  H3  UNL     1      16.181  38.934  25.542  1.00  0.00     0.170 HD
HETATM   19  O1  UNL     1      18.765  38.524  24.367  1.00  0.00    -0.273 OA
ATOM     20  H7  UNL     1      16.774  37.294  22.164  1.00  0.00     0.167 HD
BRANCH  17  21
HETATM   21  C19 UNL     1      17.860  36.394  24.915  1.00  0.00     0.105 C
BRANCH  21  22
HETATM   22  C20 UNL     1      16.798  35.926  25.891  1.00  0.00     0.029 C
BRANCH  22  23
HETATM   23  C21 UNL     1      16.181  34.629  25.404  1.00  0.00     0.122 C
BRANCH  23  24
HETATM   24  N4  UNL     1      14.896  34.849  24.805  1.00  0.00    -0.367 N
HETATM   25  C22 UNL     1      14.657  34.813  23.554  1.00  0.00     0.196 C
HETATM   26  N5  UNL     1      13.345  35.046  23.084  1.00  0.00    -0.067 NA
HETATM   27  N6  UNL     1      15.694  34.542  22.641  1.00  0.00    -0.067 NA
ATOM     28  H4  UNL     1      14.114  35.049  25.429  1.00  0.00     0.161 HD
ENDBRANCH  23  24
ENDBRANCH  22  23
ENDBRANCH  21  22
ENDBRANCH  17  21
ENDBRANCH   5   7
BRANCH   1  29
HETATM   29  C5  UNL     1       8.061  40.644  20.419  1.00  0.00     0.128 C
BRANCH  29  30
HETATM   30  C4  UNL     1       8.654  41.891  20.983  1.00  0.00     0.026 C
BRANCH  30  31
HETATM   31  C3  UNL     1       8.454  43.113  20.123  1.00  0.00     0.059 C
BRANCH  31  32
HETATM   32  C2  UNL     1       9.817  43.621  19.794  1.00  0.00     0.011 A
HETATM   33  N1  UNL     1      10.017  44.743  19.066  1.00  0.00    -0.354 N
HETATM   34  C1  UNL     1       8.899  45.510  18.571  1.00  0.00     0.156 C
HETATM   35  C36 UNL     1      11.246  45.218  18.759  1.00  0.00     0.045 A
HETATM   36  C26 UNL     1      12.334  44.510  19.218  1.00  0.00    -0.009 A
HETATM   37  C35 UNL     1      11.420  46.369  18.014  1.00  0.00     0.042 A
HETATM   38  C25 UNL     1      12.162  43.353  19.967  1.00  0.00     0.015 A
HETATM   39  C27 UNL     1      13.591  44.992  18.906  1.00  0.00     0.014 A
HETATM   40  C24 UNL     1      10.895  42.895  20.263  1.00  0.00     0.026 A
HETATM   41  C28 UNL     1      13.762  46.144  18.161  1.00  0.00     0.013 A
HETATM   42  C29 UNL     1      12.669  46.863  17.696  1.00  0.00    -0.024 A
BRANCH  42  43
HETATM   43  C30 UNL     1      12.847  48.078  16.913  1.00  0.00    -0.023 A
HETATM   44  C31 UNL     1      12.453  48.225  15.600  1.00  0.00     0.029 A
HETATM   45  C32 UNL     1      12.641  49.401  14.890  1.00  0.00     0.088 A
HETATM   46  N8  UNL     1      13.236  50.437  15.523  1.00  0.00    -0.375 N
HETATM   47  C33 UNL     1      13.627  50.311  16.802  1.00  0.00     0.088 A
ATOM     48  H8  UNL     1      13.388  51.316  15.028  1.00  0.00     0.164 HD
HETATM   49  C34 UNL     1      13.452  49.154  17.531  1.00  0.00     0.029 A
ENDBRANCH  42  43
ENDBRANCH  31  32
ENDBRANCH  30  31
ENDBRANCH  29  30
ENDBRANCH   1  29
TORSDOF 10
ENDMDL