MODEL 1
REMARK VINA RESULT: -8.664335234      0.000      0.000
REMARK  14 active torsions:
REMARK  status: ('A' for Active; 'I' for Inactive)
REMARK    1  A    between atoms: C6_7  and  C7_8
REMARK    2  A    between atoms: C7_8  and  C8_9
REMARK    3  A    between atoms: C8_9  and  C9_10
REMARK    4  A    between atoms: C9_10  and  N2_11
REMARK    5  A    between atoms: N2_11  and  C12_14
REMARK    6  A    between atoms: C12_14  and  C13_15
REMARK    7  A    between atoms: C17_19  and  C18_20
REMARK    8  A    between atoms: C21_23  and  C22_24
REMARK    9  A    between atoms: C22_24  and  C23_25
REMARK   10  A    between atoms: C26_28  and  C27_29
REMARK   11  A    between atoms: C27_29  and  C28_30
REMARK   12  A    between atoms: C31_33  and  C32_34
REMARK   13  A    between atoms: C32_34  and  N3_35
REMARK   14  A    between atoms: C32_34  and  N4_39
ROOT
HETATM    1  C18 UNL     1      13.160  34.304  20.718  1.00  0.00    -0.026 A
HETATM    2  C19 UNL     1      12.232  35.244  20.343  1.00  0.00     0.013 A
HETATM    3  C20 UNL     1      12.433  36.608  20.583  1.00  0.00     0.012 A
HETATM    4  C21 UNL     1      13.606  37.014  21.220  1.00  0.00    -0.035 A
HETATM    5  C36 UNL     1      14.554  36.082  21.606  1.00  0.00     0.012 A
HETATM    6  C37 UNL     1      14.309  34.767  21.348  1.00  0.00     0.013 A
ENDROOT
BRANCH   4   7
HETATM    7  C22 UNL     1      13.879  38.401  21.530  1.00  0.00     0.028 C
BRANCH   7   8
HETATM    8  C23 UNL     1      13.109  39.392  21.173  1.00  0.00     0.033 A
HETATM    9  C24 UNL     1      12.133  39.854  22.032  1.00  0.00     0.019 A
HETATM   10  C25 UNL     1      11.306  40.916  21.642  1.00  0.00     0.030 A
HETATM   11  C26 UNL     1      11.482  41.485  20.400  1.00  0.00     0.035 A
HETATM   12  N5  UNL     1      12.450  41.012  19.576  1.00  0.00    -0.323 N
HETATM   13  C35 UNL     1      13.254  39.995  19.927  1.00  0.00     0.256 A
ATOM     14  H5  UNL     1      12.571  41.443  18.660  1.00  0.00     0.169 HD
HETATM   15  O1  UNL     1      14.158  39.566  19.133  1.00  0.00    -0.267 OA
BRANCH  11  16
HETATM   16  C27 UNL     1      10.717  42.478  20.024  1.00  0.00     0.041 C
BRANCH  16  17
HETATM   17  C28 UNL     1      11.310  43.582  19.283  1.00  0.00    -0.034 A
HETATM   18  C29 UNL     1      10.664  44.117  18.168  1.00  0.00     0.012 A
HETATM   19  C30 UNL     1      11.215  45.160  17.450  1.00  0.00     0.012 A
HETATM   20  C31 UNL     1      12.426  45.693  17.830  1.00  0.00    -0.001 A
HETATM   21  C33 UNL     1      13.073  45.162  18.942  1.00  0.00     0.012 A
HETATM   22  C34 UNL     1      12.521  44.108  19.672  1.00  0.00     0.012 A
BRANCH  20  23
HETATM   23  C32 UNL     1      12.995  46.818  17.037  1.00  0.00     0.411 C
BRANCH  23  24
HETATM   24  N3  UNL     1      12.322  46.854  15.764  1.00  0.00    -0.046 N
ATOM     25  H33 UNL     1      12.385  45.969  15.260  1.00  0.00     0.277 HD
ATOM     26  H32 UNL     1      11.307  46.887  15.856  1.00  0.00     0.277 HD
ATOM     27  H31 UNL     1      12.696  47.639  15.230  1.00  0.00     0.277 HD
ENDBRANCH  23  24
BRANCH  23  28
HETATM   28  N4  UNL     1      12.704  48.078  17.718  1.00  0.00    -0.046 N
ATOM     29  H43 UNL     1      13.209  48.865  17.310  1.00  0.00     0.277 HD
ATOM     30  H42 UNL     1      11.756  48.406  17.537  1.00  0.00     0.277 HD
ATOM     31  H41 UNL     1      12.894  47.971  18.715  1.00  0.00     0.277 HD
ENDBRANCH  23  28
ENDBRANCH  20  23
ENDBRANCH  16  17
ENDBRANCH  11  16
ENDBRANCH   7   8
ENDBRANCH   4   7
BRANCH   1  32
HETATM   32  C17 UNL     1      12.945  32.878  20.488  1.00  0.00    -0.025 A
HETATM   33  C16 UNL     1      13.448  32.244  19.370  1.00  0.00     0.012 A
HETATM   34  C15 UNL     1      13.205  30.898  19.169  1.00  0.00     0.001 A
HETATM   35  C14 UNL     1      12.457  30.133  20.062  1.00  0.00     0.009 A
HETATM   36  C13 UNL     1      11.957  30.761  21.172  1.00  0.00    -0.032 A
HETATM   37  C38 UNL     1      12.210  32.126  21.368  1.00  0.00     0.021 A
BRANCH  36  38
HETATM   38  C12 UNL     1      11.143  29.998  22.142  1.00  0.00     0.275 C
BRANCH  38  39
HETATM   39  N2  UNL     1      11.210  30.400  23.495  1.00  0.00    -0.071 N
HETATM   40  C10 UNL     1      10.130  31.287  23.844  1.00  0.00     0.272 C
HETATM   41  C11 UNL     1      10.991  29.201  24.349  1.00  0.00     0.272 C
BRANCH  39  42
HETATM   42  C9  UNL     1      12.473  30.979  23.929  1.00  0.00     0.237 C
BRANCH  42  43
HETATM   43  C8  UNL     1      12.362  32.056  24.939  1.00  0.00     0.034 C
BRANCH  43  44
HETATM   44  C7  UNL     1      13.393  33.125  24.700  1.00  0.00     0.059 C
BRANCH  44  45
HETATM   45  C6  UNL     1      12.847  34.458  24.570  1.00  0.00     0.010 A
HETATM   46  N1  UNL     1      13.581  35.510  25.041  1.00  0.00    -0.364 N
HETATM   47  C1  UNL     1      14.878  35.225  25.595  1.00  0.00     0.155 C
HETATM   48  C2  UNL     1      13.117  36.770  24.993  1.00  0.00     0.090 A
HETATM   49  C3  UNL     1      11.881  37.087  24.473  1.00  0.00     0.017 A
HETATM   50  C4  UNL     1      11.122  36.046  23.994  1.00  0.00     0.003 A
HETATM   51  C5  UNL     1      11.629  34.740  24.055  1.00  0.00     0.025 A
ENDBRANCH  44  45
ENDBRANCH  43  44
ENDBRANCH  42  43
ENDBRANCH  39  42
ENDBRANCH  38  39
ENDBRANCH  36  38
ENDBRANCH   1  32
TORSDOF 14
ENDMDL