MODEL 3
REMARK VINA RESULT: -8.506894357      1.082      1.578
REMARK  17 active torsions:
REMARK  status: ('A' for Active; 'I' for Inactive)
REMARK       I    between atoms: C2_2  and  N1_4
REMARK    1  A    between atoms: N1_4  and  C3_5
REMARK    2  A    between atoms: C3_5  and  C5_7
REMARK    3  A    between atoms: C3_5  and  C12_15
REMARK    4  A    between atoms: C5_7  and  C6_8
REMARK    5  A    between atoms: C7_9  and  C8_10
REMARK    6  A    between atoms: C8_10  and  N2_11
REMARK       I    between atoms: C12_15  and  N3_17
REMARK    7  A    between atoms: N3_17  and  C13_18
REMARK    8  A    between atoms: C13_18  and  C14_19
REMARK    9  A    between atoms: C14_19  and  N4_20
REMARK   10  A    between atoms: C18_24  and  C19_25
REMARK       I    between atoms: C19_25  and  N5_26
REMARK   11  A    between atoms: C21_31  and  C22_32
REMARK   12  A    between atoms: C22_32  and  O4_33
REMARK   13  A    between atoms: N6_35  and  C23_37
REMARK   14  A    between atoms: C23_37  and  C24_38
REMARK   15  A    between atoms: C32_46  and  C33_47
REMARK   16  A    between atoms: C33_47  and  C34_49
REMARK   17  A    between atoms: C35_50  and  C36_51
ROOT
HETATM    1  N4  UNL     1      11.501   2.210   1.669  1.00  0.00    -0.053 N
HETATM    2  C15 UNL     1      11.630   1.872   0.315  1.00  0.00     0.274 C
HETATM    3  C16 UNL     1      10.149   1.819   2.121  1.00  0.00     0.243 C
HETATM    4  C17 UNL     1       9.863   2.344   3.502  1.00  0.00     0.068 C
HETATM    5  C18 UNL     1      10.898   1.805   4.455  1.00  0.00    -0.009 C
HETATM    6  C20 UNL     1      12.276   1.978   3.956  1.00  0.00     0.082 C
HETATM    7  C21 UNL     1      12.487   1.531   2.476  1.00  0.00     0.268 C
ENDROOT
BRANCH   7   8
HETATM    8  C22 UNL     1      12.568   0.088   2.491  1.00  0.00     0.143 C
HETATM    9  N6  UNL     1      11.932  -1.045   2.149  1.00  0.00    -0.372 N
ATOM     10  H6  UNL     1      11.067  -0.925   1.622  1.00  0.00     0.161 HD
BRANCH   8  11
HETATM   11  O4  UNL     1      13.777  -0.287   3.154  1.00  0.00    -0.348 OA
ATOM     12  H4  UNL     1      13.626  -1.106   3.612  1.00  0.00     0.219 HD
ENDBRANCH   8  11
BRANCH   9  13
HETATM   13  C23 UNL     1      12.309  -2.410   2.428  1.00  0.00     0.131 C
BRANCH  13  14
HETATM   14  C24 UNL     1      11.407  -3.438   1.806  1.00  0.00    -0.012 C
HETATM   15  C25 UNL     1      12.118  -4.521   1.133  1.00  0.00     0.016 C
HETATM   16  C26 UNL     1      11.151  -5.407   0.368  1.00  0.00    -0.013 C
HETATM   17  C27 UNL     1      10.371  -4.629  -0.674  1.00  0.00     0.009 C
HETATM   18  C31 UNL     1      10.134  -5.938   1.342  1.00  0.00     0.010 C
HETATM   19  C28 UNL     1       9.611  -3.539   0.057  1.00  0.00    -0.013 C
HETATM   20  C29 UNL     1       8.603  -4.092   1.056  1.00  0.00     0.010 C
HETATM   21  C39 UNL     1      10.604  -2.647   0.708  1.00  0.00     0.016 C
HETATM   22  C30 UNL     1       9.415  -4.859   2.083  1.00  0.00    -0.001 C
HETATM   23  C32 UNL     1      10.306  -3.841   2.769  1.00  0.00     0.083 C
BRANCH  23  24
HETATM   24  C33 UNL     1      10.739  -4.263   4.087  1.00  0.00     0.207 C
HETATM   25  O5  UNL     1      10.476  -3.581   5.143  1.00  0.00    -0.283 OA
BRANCH  24  26
HETATM   26  C34 UNL     1      11.495  -5.476   4.356  1.00  0.00    -0.028 C
HETATM   27  C35 UNL     1      12.125  -6.495   4.537  1.00  0.00    -0.094 C
BRANCH  27  28
HETATM   28  C36 UNL     1      12.911  -7.751   4.706  1.00  0.00     0.057 C
HETATM   29  C37 UNL     1      13.392  -7.822   6.139  1.00  0.00     0.023 C
HETATM   30  C38 UNL     1      14.002  -7.736   3.689  1.00  0.00     0.023 C
ENDBRANCH  27  28
ENDBRANCH  24  26
ENDBRANCH  23  24
ENDBRANCH  13  14
ENDBRANCH   9  13
ENDBRANCH   7   8
BRANCH   1  31
HETATM   31  C14 UNL     1      11.615   3.625   1.879  1.00  0.00     0.297 C
BRANCH  31  32
HETATM   32  C13 UNL     1      11.893   4.533   0.710  1.00  0.00     0.187 C
BRANCH  32  33
HETATM   33  N3  UNL     1      13.212   4.787   0.708  1.00  0.00    -0.383 NA
HETATM   34  C12 UNL     1      14.603   5.015   0.732  1.00  0.00     0.333 C
HETATM   35  O2  UNL     1      15.529   4.455   1.118  1.00  0.00    -0.253 OA
BRANCH  34  36
HETATM   36  C3  UNL     1      14.867   6.470   0.096  1.00  0.00     0.190 C
HETATM   37  C4  UNL     1      14.089   6.520  -1.146  1.00  0.00     0.067 C
BRANCH  36  38
HETATM   38  N1  UNL     1      14.499   7.307   1.168  1.00  0.00    -0.393 NA
HETATM   39  C2  UNL     1      14.153   8.103   2.187  1.00  0.00     0.283 C
HETATM   40  C1  UNL     1      12.716   7.942   2.733  1.00  0.00     0.134 C
HETATM   41  O1  UNL     1      14.865   8.988   2.768  1.00  0.00    -0.258 OA
ENDBRANCH  36  38
BRANCH  36  42
HETATM   42  C5  UNL     1      16.341   6.614  -0.123  1.00  0.00     0.083 C
BRANCH  42  43
HETATM   43  C6  UNL     1      16.786   7.977  -0.465  1.00  0.00    -0.025 C
HETATM   44  C7  UNL     1      17.980   8.406  -0.469  1.00  0.00    -0.003 C
BRANCH  44  45
HETATM   45  C8  UNL     1      18.212   9.900  -0.868  1.00  0.00     0.263 C
BRANCH  45  46
HETATM   46  N2  UNL     1      19.522  10.281  -0.439  1.00  0.00    -0.075 N
HETATM   47  C9  UNL     1      20.551   9.775  -1.334  1.00  0.00     0.272 C
HETATM   48  C10 UNL     1      19.760   9.745   0.879  1.00  0.00     0.272 C
HETATM   49  C11 UNL     1      19.630  11.733  -0.308  1.00  0.00     0.272 C
ENDBRANCH  45  46
ENDBRANCH  44  45
ENDBRANCH  42  43
ENDBRANCH  36  42
ENDBRANCH  34  36
ENDBRANCH  32  33
ENDBRANCH  31  32
ENDBRANCH   1  31
BRANCH   5  50
HETATM   50  C19 UNL     1      10.572   0.513   5.070  1.00  0.00     0.241 C
HETATM   51  N5  UNL     1       9.284   0.084   5.307  1.00  0.00    -0.366 N
ATOM     52  H52 UNL     1       8.507   0.692   5.047  1.00  0.00     0.159 HD
ATOM     53  H51 UNL     1       9.057  -0.813   5.735  1.00  0.00     0.159 HD
HETATM   54  O3  UNL     1      11.533  -0.238   5.393  1.00  0.00    -0.269 OA
ENDBRANCH   5  50
TORSDOF 17
ENDMDL