MODEL 5
REMARK VINA RESULT: -6.773811783      4.093      7.890
REMARK  17 active torsions:
REMARK  status: ('A' for Active; 'I' for Inactive)
REMARK    1  A    between atoms: S1_2  and  N1_5
REMARK    2  A    between atoms: N1_5  and  C2_7
REMARK    3  A    between atoms: C2_7  and  C3_8
REMARK    4  A    between atoms: C3_8  and  C4_9
REMARK    5  A    between atoms: C8_13  and  C9_14
REMARK    6  A    between atoms: N2_17  and  C12_18
REMARK    7  A    between atoms: C12_18  and  C13_19
REMARK    8  A    between atoms: C13_19  and  C14_20
REMARK    9  A    between atoms: C14_20  and  N3_21
REMARK   10  A    between atoms: C17_24  and  C18_25
REMARK   11  A    between atoms: C18_25  and  C19_26
REMARK   12  A    between atoms: C20_27  and  C21_28
REMARK   13  A    between atoms: C24_31  and  C25_32
REMARK   14  A    between atoms: C25_32  and  C26_33
REMARK   15  A    between atoms: C29_36  and  C30_37
REMARK   16  A    between atoms: C30_37  and  C31_38
REMARK   17  A    between atoms: C39_51  and  O5_52
ROOT
HETATM    1  C14 UNL     1      14.610   8.102  -1.263  1.00  0.00     0.129 C
ENDROOT
BRANCH   1   2
HETATM    2  C13 UNL     1      14.850   7.176  -2.400  1.00  0.00     0.040 C
BRANCH   2   3
HETATM    3  C12 UNL     1      15.748   6.032  -2.027  1.00  0.00     0.135 C
BRANCH   3   4
HETATM    4  N2  UNL     1      15.043   5.085  -1.177  1.00  0.00    -0.310 N
HETATM    5  C11 UNL     1      13.999   4.392  -1.613  1.00  0.00     0.098 A
HETATM    6  C10 UNL     1      13.339   3.471  -0.791  1.00  0.00     0.048 A
HETATM    7  C9  UNL     1      13.749   3.256   0.485  1.00  0.00     0.050 A
HETATM    8  N5  UNL     1      14.824   3.985   0.905  1.00  0.00    -0.308 N
HETATM    9  C38 UNL     1      15.429   4.857   0.087  1.00  0.00     0.326 A
ATOM     10  H5  UNL     1      15.173   3.863   1.856  1.00  0.00     0.170 HD
HETATM   11  O4  UNL     1      16.435   5.522   0.518  1.00  0.00    -0.246 OA
BRANCH   7  12
HETATM   12  C8  UNL     1      13.086   2.343   1.425  1.00  0.00     0.024 A
HETATM   13  C7  UNL     1      12.942   1.008   1.091  1.00  0.00     0.016 A
HETATM   14  C6  UNL     1      12.278   0.081   1.895  1.00  0.00     0.002 A
HETATM   15  C5  UNL     1      11.737   0.501   3.079  1.00  0.00     0.010 A
HETATM   16  C4  UNL     1      11.863   1.835   3.444  1.00  0.00    -0.022 A
HETATM   17  C39 UNL     1      12.533   2.746   2.618  1.00  0.00     0.084 A
BRANCH  16  18
HETATM   18  C3  UNL     1      11.285   2.276   4.739  1.00  0.00     0.062 C
BRANCH  18  19
HETATM   19  C2  UNL     1      10.901   1.114   5.590  1.00  0.00     0.136 C
BRANCH  19  20
HETATM   20  N1  UNL     1      10.311   1.624   6.831  1.00  0.00    -0.320 N
ATOM     21  H1  UNL     1      10.817   2.161   7.535  1.00  0.00     0.172 HD
BRANCH  20  22
HETATM   22  S1  UNL     1       8.646   1.191   6.938  1.00  0.00     0.222 S
HETATM   23  C1  UNL     1       7.685   2.517   6.226  1.00  0.00     0.185 C
HETATM   24  O1  UNL     1       8.333  -0.041   6.132  1.00  0.00    -0.206 OA
HETATM   25  O2  UNL     1       8.264   0.972   8.366  1.00  0.00    -0.206 OA
ENDBRANCH  20  22
ENDBRANCH  19  20
ENDBRANCH  18  19
ENDBRANCH  16  18
BRANCH  17  26
HETATM   26  O5  UNL     1      12.595   4.042   3.071  1.00  0.00    -0.359 OA
ATOM     27  H5  UNL     1      12.635   4.718   2.404  1.00  0.00     0.217 HD
ENDBRANCH  17  26
ENDBRANCH   7  12
ENDBRANCH   3   4
ENDBRANCH   2   3
ENDBRANCH   1   2
BRANCH   1  28
HETATM   28  N3  UNL     1      13.443   7.769  -0.455  1.00  0.00    -0.366 N
HETATM   29  C15 UNL     1      13.581   7.612   0.869  1.00  0.00     0.091 A
HETATM   30  C16 UNL     1      12.454   7.306   1.603  1.00  0.00     0.025 A
HETATM   31  C17 UNL     1      11.223   7.163   1.023  1.00  0.00    -0.044 A
HETATM   32  C36 UNL     1      11.145   7.336  -0.332  1.00  0.00     0.025 A
HETATM   33  C37 UNL     1      12.272   7.643  -1.085  1.00  0.00     0.091 A
BRANCH  31  34
HETATM   34  C18 UNL     1      10.042   6.840   1.823  1.00  0.00     0.132 C
BRANCH  34  35
HETATM   35  C19 UNL     1       9.672   5.407   1.684  1.00  0.00    -0.097 C
HETATM   36  C20 UNL     1       9.372   4.242   1.600  1.00  0.00    -0.067 C
BRANCH  36  37
HETATM   37  C21 UNL     1       9.019   2.854   1.533  1.00  0.00     0.017 A
HETATM   38  C22 UNL     1       8.302   2.247   2.571  1.00  0.00     0.021 A
HETATM   39  C23 UNL     1       7.966   0.914   2.520  1.00  0.00     0.009 A
HETATM   40  C24 UNL     1       8.325   0.132   1.444  1.00  0.00    -0.054 A
HETATM   41  C34 UNL     1       9.029   0.727   0.422  1.00  0.00     0.009 A
HETATM   42  C35 UNL     1       9.372   2.074   0.466  1.00  0.00     0.021 A
BRANCH  40  43
HETATM   43  C25 UNL     1       7.960  -1.338   1.409  1.00  0.00     0.077 C
BRANCH  43  44
HETATM   44  C26 UNL     1       9.201  -2.138   1.650  1.00  0.00    -0.054 A
HETATM   45  C27 UNL     1       9.626  -2.401   2.924  1.00  0.00     0.008 A
HETATM   46  C28 UNL     1      10.769  -3.158   3.089  1.00  0.00     0.008 A
HETATM   47  C29 UNL     1      11.491  -3.656   2.026  1.00  0.00    -0.050 A
HETATM   48  C32 UNL     1      11.018  -3.362   0.762  1.00  0.00     0.008 A
HETATM   49  C33 UNL     1       9.887  -2.612   0.564  1.00  0.00     0.008 A
BRANCH  47  50
HETATM   50  C30 UNL     1      12.710  -4.472   2.180  1.00  0.00     0.138 C
BRANCH  50  51
HETATM   51  C31 UNL     1      12.360  -5.728   2.875  1.00  0.00     0.235 C
HETATM   52  N4  UNL     1      12.934  -6.048   4.123  1.00  0.00    -0.062 NA
HETATM   53  O3  UNL     1      11.544  -6.519   2.352  1.00  0.00    -0.277 OA
ENDBRANCH  50  51
ENDBRANCH  47  50
ENDBRANCH  43  44
ENDBRANCH  40  43
ENDBRANCH  36  37
ENDBRANCH  34  35
ENDBRANCH  31  34
ENDBRANCH   1  28
TORSDOF 17
ENDMDL