MODEL 3
REMARK VINA RESULT: -8.903773045      3.091      6.050
REMARK  14 active torsions:
REMARK  status: ('A' for Active; 'I' for Inactive)
REMARK    1  A    between atoms: N2_10  and  C9_11
REMARK    2  A    between atoms: N2_10  and  C34_43
REMARK    3  A    between atoms: C9_11  and  C10_12
REMARK    4  A    between atoms: C11_13  and  C12_14
REMARK    5  A    between atoms: C14_16  and  C15_17
REMARK    6  A    between atoms: C18_20  and  N3_21
REMARK    7  A    between atoms: C21_25  and  C22_26
REMARK    8  A    between atoms: C21_25  and  C24_29
REMARK    9  A    between atoms: C24_29  and  N5_30
REMARK   10  A    between atoms: C32_40  and  C33_41
REMARK   11  A    between atoms: C34_43  and  C35_44
REMARK       I    between atoms: C35_44  and  N7_46
REMARK   12  A    between atoms: N7_46  and  C36_48
REMARK   13  A    between atoms: C36_48  and  C37_49
REMARK   14  A    between atoms: C38_50  and  C39_51
ROOT
HETATM    1  C12 UNL     1      10.284  -1.429  -0.919  1.00  0.00    -0.011 A
HETATM    2  C13 UNL     1      10.532  -0.141  -0.418  1.00  0.00     0.043 A
HETATM    3  C14 UNL     1      10.814   0.678  -1.487  1.00  0.00     0.043 A
HETATM    4  N6  UNL     1      10.761  -0.018  -2.607  1.00  0.00    -0.357 N
ATOM      5  H6  UNL     1      10.930   0.337  -3.548  1.00  0.00     0.166 HD
HETATM    6  C32 UNL     1      10.439  -1.299  -2.275  1.00  0.00     0.033 A
ENDROOT
BRANCH   1   7
HETATM    7  C11 UNL     1       9.921  -2.556  -0.078  1.00  0.00     0.011 C
HETATM    8  C10 UNL     1      10.700  -3.265   0.712  1.00  0.00     0.005 C
BRANCH   8   9
HETATM    9  C9  UNL     1      10.118  -4.367   1.472  1.00  0.00     0.304 C
BRANCH   9  10
HETATM   10  N2  UNL     1      10.642  -4.683   2.760  1.00  0.00     0.066 N
HETATM   11  N1  UNL     1      10.622  -6.017   3.070  1.00  0.00    -0.204 N
HETATM   12  C1  UNL     1       9.452  -6.897   3.247  1.00  0.00     0.186 C
HETATM   13  C2  UNL     1      11.827  -6.437   3.188  1.00  0.00     0.070 A
HETATM   14  C3  UNL     1      12.365  -7.693   3.482  1.00  0.00     0.032 A
HETATM   15  C7  UNL     1      12.723  -5.418   2.974  1.00  0.00     0.018 A
HETATM   16  C4  UNL     1      13.718  -7.922   3.559  1.00  0.00     0.002 A
HETATM   17  C5  UNL     1      14.618  -6.897   3.344  1.00  0.00     0.001 A
HETATM   18  C6  UNL     1      14.100  -5.657   3.053  1.00  0.00     0.015 A
HETATM   19  C8  UNL     1      12.012  -4.356   2.715  1.00  0.00     0.249 A
BRANCH  10  20
HETATM   20  C34 UNL     1      10.112  -3.901   3.859  1.00  0.00     0.309 C
BRANCH  20  21
HETATM   21  C35 UNL     1       9.804  -2.519   3.603  1.00  0.00     0.268 C
HETATM   22  O2  UNL     1       8.649  -2.150   3.279  1.00  0.00    -0.267 OA
HETATM   23  N7  UNL     1      10.773  -1.488   3.693  1.00  0.00    -0.346 N
ATOM     24  H7  UNL     1      11.734  -1.713   3.952  1.00  0.00     0.163 HD
BRANCH  23  25
HETATM   25  C36 UNL     1      10.404  -0.125   3.419  1.00  0.00     0.217 C
BRANCH  25  26
HETATM   26  C37 UNL     1      11.520   0.592   2.832  1.00  0.00    -0.086 C
HETATM   27  C38 UNL     1      12.464   1.200   2.375  1.00  0.00    -0.096 C
BRANCH  27  28
HETATM   28  C39 UNL     1      13.626   1.948   1.852  1.00  0.00     0.013 C
HETATM   29  C40 UNL     1      14.144   1.364   0.575  1.00  0.00     0.028 C
HETATM   30  C41 UNL     1      14.680   1.864   2.933  1.00  0.00     0.028 C
HETATM   31  C42 UNL     1      13.305   3.406   1.646  1.00  0.00     0.028 C
ENDBRANCH  27  28
ENDBRANCH  25  26
ENDBRANCH  23  25
ENDBRANCH  20  21
ENDBRANCH  10  20
ENDBRANCH   9  10
ENDBRANCH   8   9
ENDBRANCH   1   7
BRANCH   6  32
HETATM   32  C33 UNL     1      10.308  -2.356  -3.286  1.00  0.00     0.169 C
HETATM   33  S1  UNL     1      11.419  -2.506  -4.491  1.00  0.00    -0.120 SA
ENDBRANCH   6  32
BRANCH   3  34
HETATM   34  C15 UNL     1      11.063   2.140  -1.393  1.00  0.00    -0.009 A
HETATM   35  C16 UNL     1      12.005   2.781  -2.163  1.00  0.00     0.016 A
HETATM   36  C17 UNL     1      12.195   4.147  -2.104  1.00  0.00     0.031 A
HETATM   37  C18 UNL     1      11.435   4.933  -1.256  1.00  0.00     0.038 A
HETATM   38  C30 UNL     1      10.478   4.268  -0.473  1.00  0.00     0.031 A
HETATM   39  C31 UNL     1      10.293   2.900  -0.537  1.00  0.00     0.016 A
BRANCH  37  40
HETATM   40  N3  UNL     1      11.531   6.322  -1.164  1.00  0.00    -0.302 N
HETATM   41  C19 UNL     1      10.821   7.343  -1.908  1.00  0.00     0.228 C
HETATM   42  O1  UNL     1       9.656   7.432  -2.306  1.00  0.00    -0.273 OA
HETATM   43  C20 UNL     1      12.128   8.077  -1.894  1.00  0.00     0.141 C
HETATM   44  C21 UNL     1      12.194   7.415  -0.489  1.00  0.00     0.084 C
BRANCH  44  45
HETATM   45  C22 UNL     1      13.576   7.199  -0.059  1.00  0.00     0.021 C
HETATM   46  C23 UNL     1      14.234   8.057   0.679  1.00  0.00     0.098 C
HETATM   47  N4  UNL     1      15.565   7.875   1.110  1.00  0.00    -0.115 NA
ENDBRANCH  44  45
BRANCH  44  48
HETATM   48  C24 UNL     1      11.341   8.111   0.521  1.00  0.00     0.164 C
BRANCH  48  49
HETATM   49  N5  UNL     1      10.758   7.217   1.467  1.00  0.00    -0.364 N
HETATM   50  C25 UNL     1      11.539   6.554   2.355  1.00  0.00     0.090 A
HETATM   51  C26 UNL     1      11.057   5.685   3.303  1.00  0.00     0.017 A
HETATM   52  C27 UNL     1       9.711   5.453   3.383  1.00  0.00     0.003 A
HETATM   53  C28 UNL     1       8.896   6.137   2.466  1.00  0.00     0.017 A
HETATM   54  C29 UNL     1       9.431   6.995   1.538  1.00  0.00     0.090 A
ENDBRANCH  48  49
ENDBRANCH  44  48
ENDBRANCH  37  40
ENDBRANCH   3  34
TORSDOF 14
ENDMDL