MODEL 2
REMARK VINA RESULT: -10.951797490      2.181      2.896
REMARK  16 active torsions:
REMARK  status: ('A' for Active; 'I' for Inactive)
REMARK    1  A    between atoms: N1_2  and  C4_5
REMARK    2  A    between atoms: C7_8  and  C8_9
REMARK    3  A    between atoms: C10_11  and  N2_12
REMARK    4  A    between atoms: N2_12  and  C11_13
REMARK    5  A    between atoms: N2_12  and  S1_33
REMARK    6  A    between atoms: C11_13  and  C12_14
REMARK    7  A    between atoms: C13_15  and  C14_16
REMARK    8  A    between atoms: C14_16  and  N3_17
REMARK       I    between atoms: N3_17  and  C15_19
REMARK       I    between atoms: C15_19  and  N5_23
REMARK    9  A    between atoms: N5_23  and  C16_25
REMARK   10  A    between atoms: C16_25  and  C17_26
REMARK   11  A    between atoms: C17_26  and  C18_27
REMARK   12  A    between atoms: N6_39  and  C27_40
REMARK   13  A    between atoms: C27_40  and  N7_41
REMARK   14  A    between atoms: N8_43  and  C28_45
REMARK   15  A    between atoms: C28_45  and  C29_46
REMARK   16  A    between atoms: C29_46  and  C30_47
ROOT
HETATM    1  C8  UNL     1      13.627   2.154   0.471  1.00  0.00     0.072 A
HETATM    2  C9  UNL     1      12.488   1.415   0.845  1.00  0.00     0.063 A
HETATM    3  C10 UNL     1      11.993   1.295   2.096  1.00  0.00     0.049 A
HETATM    4  C25 UNL     1      12.698   1.976   3.095  1.00  0.00     0.047 A
HETATM    5  C26 UNL     1      13.803   2.697   2.776  1.00  0.00     0.095 A
HETATM    6  N6  UNL     1      14.247   2.772   1.461  1.00  0.00    -0.337 N
ENDROOT
BRANCH   3   7
HETATM    7  N2  UNL     1      10.843   0.603   2.507  1.00  0.00    -0.265 N
BRANCH   7   8
HETATM    8  C11 UNL     1      10.940  -0.556   3.349  1.00  0.00     0.235 C
BRANCH   8   9
HETATM    9  C12 UNL     1      11.201  -1.772   2.561  1.00  0.00    -0.084 C
HETATM   10  C13 UNL     1      11.419  -2.789   1.932  1.00  0.00    -0.085 C
BRANCH  10  11
HETATM   11  C14 UNL     1      11.683  -4.052   1.185  1.00  0.00     0.232 C
BRANCH  11  12
HETATM   12  N3  UNL     1      10.606  -4.973   1.381  1.00  0.00    -0.216 N
HETATM   13  C15 UNL     1      10.643  -6.034   2.262  1.00  0.00     0.668 C
HETATM   14  N4  UNL     1       9.507  -6.606   2.618  1.00  0.00    -0.235 N
HETATM   15  N5  UNL     1      11.807  -6.582   2.836  1.00  0.00    -0.227 N
ATOM     16  H42 UNL     1       8.664  -6.209   2.202  1.00  0.00     0.174 HD
ATOM     17  H41 UNL     1       9.533  -7.390   3.269  1.00  0.00     0.174 HD
ATOM     18  H5  UNL     1      11.996  -7.570   2.671  1.00  0.00     0.177 HD
ATOM     19  H3  UNL     1       9.757  -4.837   0.834  1.00  0.00     0.178 HD
BRANCH  15  20
HETATM   20  C16 UNL     1      12.742  -5.854   3.634  1.00  0.00     0.142 C
BRANCH  20  21
HETATM   21  C17 UNL     1      14.044  -6.584   3.774  1.00  0.00     0.058 C
BRANCH  21  22
HETATM   22  C18 UNL     1      13.908  -7.899   4.418  1.00  0.00    -0.057 A
HETATM   23  C19 UNL     1      14.162  -9.079   3.738  1.00  0.00     0.007 A
HETATM   24  C20 UNL     1      14.040 -10.316   4.318  1.00  0.00     0.001 A
HETATM   25  C21 UNL     1      13.645 -10.417   5.633  1.00  0.00     0.000 A
HETATM   26  C22 UNL     1      13.393  -9.234   6.306  1.00  0.00     0.001 A
HETATM   27  C23 UNL     1      13.512  -7.993   5.743  1.00  0.00     0.007 A
ENDBRANCH  21  22
ENDBRANCH  20  21
ENDBRANCH  15  20
ENDBRANCH  11  12
ENDBRANCH  10  11
ENDBRANCH   8   9
ENDBRANCH   7   8
BRANCH   7  28
HETATM   28  S1  UNL     1       9.297   1.175   2.003  1.00  0.00     0.230 S
HETATM   29  C24 UNL     1       8.881   0.277   0.524  1.00  0.00     0.186 C
HETATM   30  O1  UNL     1       8.262   1.118   3.056  1.00  0.00    -0.206 OA
HETATM   31  O2  UNL     1       9.393   2.638   1.569  1.00  0.00    -0.206 OA
ENDBRANCH   7  28
ENDBRANCH   3   7
BRANCH   1  32
HETATM   32  C7  UNL     1      13.958   2.230  -0.960  1.00  0.00     0.104 A
HETATM   33  C6  UNL     1      14.580   1.444  -1.842  1.00  0.00     0.044 A
HETATM   34  C5  UNL     1      14.576   2.096  -3.086  1.00  0.00     0.067 A
HETATM   35  C4  UNL     1      13.921   3.287  -2.875  1.00  0.00     0.248 A
HETATM   36  O3  UNL     1      13.585   3.322  -1.647  1.00  0.00    -0.285 OA
BRANCH  35  37
HETATM   37  N1  UNL     1      13.660   4.310  -3.848  1.00  0.00    -0.027 N
HETATM   38  C1  UNL     1      12.955   5.423  -3.262  1.00  0.00     0.281 C
HETATM   39  C2  UNL     1      12.964   3.787  -4.986  1.00  0.00     0.281 C
HETATM   40  C3  UNL     1      14.972   4.811  -4.292  1.00  0.00     0.281 C
ENDBRANCH  35  37
ENDBRANCH   1  32
BRANCH   6  41
HETATM   41  C27 UNL     1      15.430   3.559   1.273  1.00  0.00     0.268 C
BRANCH  41  42
HETATM   42  N7  UNL     1      15.143   4.851   0.687  1.00  0.00    -0.322 N
HETATM   43  N8  UNL     1      15.632   5.286  -0.324  1.00  0.00    -0.339 N
ATOM     44  H8  UNL     1      16.298   4.659  -0.776  1.00  0.00     0.179 HD
ATOM     45  H7  UNL     1      14.468   5.444   1.171  1.00  0.00     0.181 HD
BRANCH  43  46
HETATM   46  C28 UNL     1      15.440   6.519  -0.991  1.00  0.00     0.143 C
BRANCH  46  47
HETATM   47  C29 UNL     1      14.684   7.486  -0.136  1.00  0.00     0.060 C
BRANCH  47  48
HETATM   48  C30 UNL     1      15.520   8.306   0.752  1.00  0.00    -0.045 A
HETATM   49  C31 UNL     1      16.773   8.728   0.300  1.00  0.00     0.008 A
HETATM   50  C32 UNL     1      17.620   9.492   1.065  1.00  0.00     0.001 A
HETATM   51  C33 UNL     1      17.262   9.878   2.327  1.00  0.00     0.012 A
HETATM   52  C34 UNL     1      16.031   9.477   2.804  1.00  0.00    -0.025 A
HETATM   53  C35 UNL     1      15.669   9.872   4.075  1.00  0.00     0.012 A
HETATM   54  C39 UNL     1      15.188   8.708   2.021  1.00  0.00    -0.020 A
HETATM   55  C36 UNL     1      14.446   9.491   4.566  1.00  0.00     0.001 A
HETATM   56  C37 UNL     1      13.612   8.730   3.792  1.00  0.00     0.001 A
HETATM   57  C38 UNL     1      13.965   8.331   2.524  1.00  0.00     0.013 A
ENDBRANCH  47  48
ENDBRANCH  46  47
ENDBRANCH  43  46
ENDBRANCH  41  42
ENDBRANCH   6  41
TORSDOF 16
ENDMDL