MODEL 2
REMARK VINA RESULT: -10.927037776      1.544      2.058
REMARK  15 active torsions:
REMARK  status: ('A' for Active; 'I' for Inactive)
REMARK    1  A    between atoms: C11_11  and  N1_12
REMARK       I    between atoms: N1_12  and  C12_14
REMARK    2  A    between atoms: C12_14  and  C13_16
REMARK    3  A    between atoms: C13_16  and  C14_17
REMARK    4  A    between atoms: C13_16  and  N2_21
REMARK    5  A    between atoms: C14_17  and  C15_18
REMARK       I    between atoms: N2_21  and  C18_23
REMARK    6  A    between atoms: C18_23  and  C19_25
REMARK    7  A    between atoms: N3_29  and  C23_30
REMARK    8  A    between atoms: C23_30  and  C24_31
REMARK    9  A    between atoms: C27_34  and  C28_35
REMARK   10  A    between atoms: C33_40  and  C34_41
REMARK   11  A    between atoms: C34_41  and  N4_42
REMARK   12  A    between atoms: N4_42  and  C35_44
REMARK   13  A    between atoms: C35_44  and  C36_52
REMARK   14  A    between atoms: N5_45  and  N6_47
REMARK   15  A    between atoms: C36_52  and  C37_54
ROOT
HETATM    1  C19 UNL     1      13.013   1.301   1.185  1.00  0.00     0.047 A
HETATM    2  C20 UNL     1      13.872   1.208   2.259  1.00  0.00     0.020 A
HETATM    3  C21 UNL     1      13.724   0.182   3.139  1.00  0.00     0.018 A
HETATM    4  C22 UNL     1      12.730  -0.758   2.968  1.00  0.00     0.090 A
HETATM    5  N3  UNL     1      11.886  -0.683   1.931  1.00  0.00    -0.361 N
HETATM    6  C40 UNL     1      12.039   0.335   1.064  1.00  0.00     0.107 A
ENDROOT
BRANCH   5   7
HETATM    7  C23 UNL     1      10.842  -1.623   1.683  1.00  0.00     0.166 C
BRANCH   7   8
HETATM    8  C24 UNL     1      11.200  -2.947   2.278  1.00  0.00    -0.040 A
HETATM    9  C25 UNL     1      10.495  -3.444   3.366  1.00  0.00     0.010 A
HETATM   10  C26 UNL     1      10.824  -4.679   3.900  1.00  0.00     0.013 A
HETATM   11  C27 UNL     1      11.851  -5.475   3.392  1.00  0.00    -0.025 A
HETATM   12  C38 UNL     1      12.534  -4.963   2.315  1.00  0.00     0.013 A
HETATM   13  C39 UNL     1      12.214  -3.720   1.768  1.00  0.00     0.010 A
BRANCH  11  14
HETATM   14  C28 UNL     1      12.086  -6.775   3.994  1.00  0.00    -0.018 A
HETATM   15  C29 UNL     1      13.056  -6.931   4.984  1.00  0.00     0.013 A
HETATM   16  C30 UNL     1      13.302  -8.115   5.631  1.00  0.00     0.001 A
HETATM   17  C31 UNL     1      12.540  -9.206   5.271  1.00  0.00     0.001 A
HETATM   18  C32 UNL     1      11.570  -9.065   4.284  1.00  0.00     0.010 A
HETATM   19  C33 UNL     1      11.311  -7.884   3.624  1.00  0.00    -0.029 A
BRANCH  19  20
HETATM   20  C34 UNL     1      10.331  -7.688   2.551  1.00  0.00     0.160 C
BRANCH  20  21
HETATM   21  N4  UNL     1       9.973  -8.922   1.898  1.00  0.00    -0.367 N
ATOM     22  H4  UNL     1      10.237  -9.809   2.327  1.00  0.00     0.161 HD
BRANCH  21  23
HETATM   23  C35 UNL     1       9.253  -8.928   0.656  1.00  0.00     0.173 C
HETATM   24  N5  UNL     1       9.082 -10.037   0.055  1.00  0.00    -0.268 N
ATOM     25  H5  UNL     1       8.572 -10.054  -0.828  1.00  0.00     0.190 HD
BRANCH  24  26
HETATM   26  N6  UNL     1       9.576 -11.223   0.578  1.00  0.00    -0.248 N
HETATM   27  N7  UNL     1       8.940 -12.291   0.268  1.00  0.00    -0.331 N
ATOM     28  H72 UNL     1       8.117 -12.254  -0.332  1.00  0.00     0.178 HD
ATOM     29  H71 UNL     1       9.304 -13.163   0.652  1.00  0.00     0.178 HD
ATOM     30  H6  UNL     1      10.401 -11.243   1.177  1.00  0.00     0.207 HD
ENDBRANCH  24  26
BRANCH  23  31
HETATM   31  C36 UNL     1       8.736  -7.704   0.081  1.00  0.00     0.281 C
HETATM   32  O3  UNL     1       7.580  -7.320   0.394  1.00  0.00    -0.279 OA
BRANCH  31  33
HETATM   33  C37 UNL     1       9.508  -6.888  -0.855  1.00  0.00     0.308 C
HETATM   34  N8  UNL     1       9.710  -5.497  -0.675  1.00  0.00    -0.054 NA
HETATM   35  O4  UNL     1       9.999  -7.455  -1.844  1.00  0.00    -0.267 OA
ENDBRANCH  31  33
ENDBRANCH  23  31
ENDBRANCH  21  23
ENDBRANCH  20  21
ENDBRANCH  19  20
ENDBRANCH  11  14
ENDBRANCH   7   8
ENDBRANCH   5   7
BRANCH   1  36
HETATM   36  C18 UNL     1      13.162   2.398   0.247  1.00  0.00     0.253 C
HETATM   37  N2  UNL     1      13.097   3.738   0.694  1.00  0.00    -0.344 N
ATOM     38  H2  UNL     1      12.942   3.923   1.685  1.00  0.00     0.163 HD
HETATM   39  O2  UNL     1      13.351   2.208  -0.990  1.00  0.00    -0.268 OA
BRANCH  37  40
HETATM   40  C13 UNL     1      13.251   4.887  -0.244  1.00  0.00     0.177 C
BRANCH  40  41
HETATM   41  C12 UNL     1      14.274   5.731   0.382  1.00  0.00     0.245 C
HETATM   42  N1  UNL     1      14.238   7.144   0.261  1.00  0.00    -0.324 N
ATOM     43  H1  UNL     1      13.468   7.560  -0.264  1.00  0.00     0.169 HD
HETATM   44  O1  UNL     1      15.204   5.189   1.030  1.00  0.00    -0.271 OA
BRANCH  42  45
HETATM   45  C11 UNL     1      15.208   8.016   0.826  1.00  0.00     0.051 A
HETATM   46  C2  UNL     1      16.367   8.335   0.094  1.00  0.00    -0.034 A
HETATM   47  C1  UNL     1      16.491   7.702  -1.245  1.00  0.00     0.050 C
HETATM   48  C3  UNL     1      17.331   9.179   0.581  1.00  0.00     0.010 A
HETATM   49  C4  UNL     1      17.181   9.741   1.821  1.00  0.00     0.013 A
HETATM   50  C5  UNL     1      16.060   9.458   2.577  1.00  0.00    -0.024 A
HETATM   51  C6  UNL     1      15.914  10.035   3.820  1.00  0.00     0.012 A
HETATM   52  C10 UNL     1      15.088   8.592   2.059  1.00  0.00     0.001 A
HETATM   53  C7  UNL     1      14.794   9.761   4.572  1.00  0.00     0.001 A
HETATM   54  C8  UNL     1      13.839   8.911   4.058  1.00  0.00     0.001 A
HETATM   55  C9  UNL     1      13.958   8.314   2.811  1.00  0.00     0.014 A
ENDBRANCH  42  45
ENDBRANCH  40  41
BRANCH  40  56
HETATM   56  C14 UNL     1      11.901   5.508  -0.316  1.00  0.00     0.038 C
BRANCH  56  57
HETATM   57  C15 UNL     1      11.373   5.837  -1.661  1.00  0.00    -0.020 C
HETATM   58  C16 UNL     1      11.436   7.283  -2.020  1.00  0.00     0.009 C
HETATM   59  C17 UNL     1      12.298   5.125  -2.682  1.00  0.00     0.009 C
ENDBRANCH  56  57
ENDBRANCH  40  56
ENDBRANCH  37  40
ENDBRANCH   1  36
TORSDOF 15
ENDMDL