MODEL 4
REMARK VINA RESULT: -9.309891905      2.262     11.369
REMARK  13 active torsions:
REMARK  status: ('A' for Active; 'I' for Inactive)
REMARK    1  A    between atoms: C4_5  and  C5_6
REMARK    2  A    between atoms: C5_6  and  C6_7
REMARK    3  A    between atoms: C11_12  and  N1_13
REMARK    4  A    between atoms: N1_13  and  C12_15
REMARK    5  A    between atoms: C12_15  and  C13_16
REMARK    6  A    between atoms: C18_21  and  C19_22
REMARK    7  A    between atoms: C19_22  and  N2_23
REMARK    8  A    between atoms: N3_29  and  C25_30
REMARK    9  A    between atoms: C26_31  and  C27_32
REMARK   10  A    between atoms: C29_36  and  N5_37
REMARK   11  A    between atoms: N7_47  and  C33_48
REMARK   12  A    between atoms: C33_48  and  C34_49
REMARK   13  A    between atoms: C34_49  and  C35_50
ROOT
HETATM    1  C1  UNL     1      13.653   0.640   2.468  1.00  0.00     0.041 C
HETATM    2  C2  UNL     1      12.397   1.325   2.143  1.00  0.00     0.155 C
HETATM    3  C3  UNL     1      11.201   0.502   1.886  1.00  0.00     0.172 C
HETATM    4  O1  UNL     1      10.541   1.033   0.946  1.00  0.00    -0.293 OA
HETATM    5  C4  UNL     1      10.492  -0.759   2.369  1.00  0.00     0.168 C
HETATM    6  N3  UNL     1      10.386  -0.725   3.776  1.00  0.00    -0.308 N
HETATM    7  C31 UNL     1      10.800   0.445   4.626  1.00  0.00     0.316 C
HETATM    8  O2  UNL     1      10.865   0.164   5.868  1.00  0.00    -0.262 OA
HETATM    9  C32 UNL     1      11.127   1.773   4.273  1.00  0.00     0.312 C
HETATM   10  O3  UNL     1      10.607   2.710   5.004  1.00  0.00    -0.262 OA
HETATM   11  N7  UNL     1      11.958   2.229   3.203  1.00  0.00    -0.332 N
ENDROOT
BRANCH   5  12
HETATM   12  C5  UNL     1      11.204  -1.861   1.611  1.00  0.00     0.074 C
BRANCH  12  13
HETATM   13  C6  UNL     1      10.373  -2.672   0.693  1.00  0.00    -0.029 A
HETATM   14  C7  UNL     1      10.295  -1.944  -0.558  1.00  0.00     0.009 A
HETATM   15  C8  UNL     1       9.499  -2.404  -1.556  1.00  0.00     0.001 A
HETATM   16  C9  UNL     1       8.777  -3.549  -1.368  1.00  0.00     0.002 A
HETATM   17  C10 UNL     1       8.840  -4.244  -0.200  1.00  0.00     0.030 A
HETATM   18  C11 UNL     1       9.648  -3.819   0.850  1.00  0.00     0.038 A
BRANCH  18  19
HETATM   19  N1  UNL     1       9.813  -4.612   1.998  1.00  0.00    -0.365 N
ATOM     20  H1  UNL     1       9.207  -4.406   2.793  1.00  0.00     0.165 HD
BRANCH  19  21
HETATM   21  C12 UNL     1      10.731  -5.663   2.156  1.00  0.00     0.100 C
BRANCH  21  22
HETATM   22  C13 UNL     1      12.083  -5.677   2.557  1.00  0.00    -0.013 A
HETATM   23  C14 UNL     1      13.086  -4.848   2.209  1.00  0.00     0.013 A
HETATM   24  C15 UNL     1      14.415  -4.959   2.549  1.00  0.00     0.001 A
HETATM   25  C16 UNL     1      14.798  -5.999   3.318  1.00  0.00     0.001 A
HETATM   26  C17 UNL     1      13.813  -6.914   3.715  1.00  0.00     0.010 A
HETATM   27  C18 UNL     1      12.506  -6.777   3.356  1.00  0.00    -0.028 A
BRANCH  27  28
HETATM   28  C19 UNL     1      11.530  -7.823   3.780  1.00  0.00     0.167 C
BRANCH  28  29
HETATM   29  N2  UNL     1      12.305  -8.918   4.400  1.00  0.00    -0.362 N
HETATM   30  C20 UNL     1      12.613  -9.015   5.679  1.00  0.00     0.090 A
HETATM   31  C21 UNL     1      13.473  -9.987   6.178  1.00  0.00     0.017 A
HETATM   32  C22 UNL     1      13.998 -10.854   5.283  1.00  0.00     0.003 A
HETATM   33  C23 UNL     1      13.685 -10.767   3.952  1.00  0.00     0.017 A
HETATM   34  C24 UNL     1      12.830  -9.795   3.491  1.00  0.00     0.090 A
ENDBRANCH  28  29
ENDBRANCH  27  28
ENDBRANCH  21  22
ENDBRANCH  19  21
ENDBRANCH  18  19
ENDBRANCH  12  13
ENDBRANCH   5  12
BRANCH   6  35
HETATM   35  C25 UNL     1       9.985  -1.702   4.712  1.00  0.00     0.096 C
HETATM   36  C26 UNL     1       8.630  -2.154   4.872  1.00  0.00     0.031 C
BRANCH  36  37
HETATM   37  C27 UNL     1       7.773  -3.060   4.178  1.00  0.00    -0.003 A
HETATM   38  C28 UNL     1       7.698  -4.389   4.706  1.00  0.00     0.119 A
HETATM   39  N4  UNL     1       6.853  -5.288   4.239  1.00  0.00    -0.201 N
HETATM   40  C29 UNL     1       6.004  -5.020   3.244  1.00  0.00     0.675 A
ATOM     41  H4  UNL     1       6.848  -6.220   4.653  1.00  0.00     0.183 HD
HETATM   42  N6  UNL     1       6.029  -3.776   2.702  1.00  0.00    -0.201 N
HETATM   43  C30 UNL     1       6.898  -2.833   3.163  1.00  0.00     0.119 A
ATOM     44  H6  UNL     1       5.391  -3.545   1.941  1.00  0.00     0.183 HD
BRANCH  40  45
HETATM   45  N5  UNL     1       5.193  -5.915   2.812  1.00  0.00    -0.234 N
ATOM     46  H52 UNL     1       4.692  -5.791   1.932  1.00  0.00     0.174 HD
ATOM     47  H51 UNL     1       5.034  -6.775   3.338  1.00  0.00     0.174 HD
ENDBRANCH  40  45
ENDBRANCH  36  37
ENDBRANCH   6  35
BRANCH  11  48
HETATM   48  C33 UNL     1      12.198   3.623   3.208  1.00  0.00     0.132 C
BRANCH  48  49
HETATM   49  C34 UNL     1      11.646   4.240   1.939  1.00  0.00     0.061 C
BRANCH  49  50
HETATM   50  C35 UNL     1      12.591   5.254   1.450  1.00  0.00    -0.029 A
HETATM   51  C36 UNL     1      13.210   5.175   0.183  1.00  0.00     0.096 A
HETATM   52  N8  UNL     1      13.995   6.218   0.091  1.00  0.00    -0.365 N
HETATM   53  C37 UNL     1      13.936   6.968   1.194  1.00  0.00     0.042 A
ATOM     54  H8  UNL     1      14.577   6.431  -0.720  1.00  0.00     0.165 HD
HETATM   55  C38 UNL     1      14.555   8.163   1.523  1.00  0.00     0.030 A
HETATM   56  C42 UNL     1      13.052   6.374   2.084  1.00  0.00    -0.002 A
HETATM   57  C39 UNL     1      14.274   8.736   2.731  1.00  0.00     0.002 A
HETATM   58  C40 UNL     1      13.404   8.174   3.633  1.00  0.00     0.001 A
HETATM   59  C41 UNL     1      12.797   6.974   3.287  1.00  0.00     0.014 A
ENDBRANCH  49  50
ENDBRANCH  48  49
ENDBRANCH  11  48
TORSDOF 13
ENDMDL