MODEL 3
REMARK VINA RESULT: -7.068184975      5.721     11.242
REMARK  15 active torsions:
REMARK  status: ('A' for Active; 'I' for Inactive)
REMARK    1  A    between atoms: C3_3  and  N1_4
REMARK    2  A    between atoms: N1_4  and  C4_5
REMARK    3  A    between atoms: C7_8  and  C8_9
REMARK    4  A    between atoms: C11_12  and  N2_13
REMARK    5  A    between atoms: N2_13  and  C12_15
REMARK    6  A    between atoms: C12_15  and  O1_16
REMARK    7  A    between atoms: C12_15  and  C13_18
REMARK    8  A    between atoms: C13_18  and  C14_19
REMARK    9  A    between atoms: C13_18  and  N3_23
REMARK   10  A    between atoms: C14_19  and  C15_20
REMARK   11  A    between atoms: C22_32  and  C23_33
REMARK   12  A    between atoms: C23_33  and  C24_34
REMARK   13  A    between atoms: C28_41  and  C29_42
REMARK   14  A    between atoms: C29_42  and  C30_43
REMARK   15  A    between atoms: C37_53  and  C38_54
ROOT
HETATM    1  C1  UNL     1      15.550   8.721   1.758  1.00  0.00     0.014 C
HETATM    2  C2  UNL     1      16.173   8.723   0.722  1.00  0.00    -0.098 C
HETATM    3  C3  UNL     1      16.900   8.750  -0.562  1.00  0.00     0.215 C
ENDROOT
BRANCH   3   4
HETATM    4  N1  UNL     1      18.332   8.497  -0.385  1.00  0.00    -0.375 N
HETATM    5  C6  UNL     1      18.908   7.563  -0.996  1.00  0.00     0.012 C
HETATM    6  C7  UNL     1      20.225   6.942  -1.163  1.00  0.00     0.035 C
HETATM    7  C11 UNL     1      18.399   6.459  -1.921  1.00  0.00     0.130 C
HETATM    8  C10 UNL     1      19.768   6.469  -2.586  1.00  0.00     0.041 C
BRANCH   4   9
HETATM    9  C4  UNL     1      18.971   9.364   0.559  1.00  0.00     0.119 C
HETATM   10  C5  UNL     1      19.378  10.703   0.061  1.00  0.00     0.026 C
ENDBRANCH   4   9
BRANCH   6  11
HETATM   11  C8  UNL     1      21.441   7.800  -1.245  1.00  0.00     0.006 C
HETATM   12  C9  UNL     1      21.446   8.757  -2.409  1.00  0.00     0.006 C
ENDBRANCH   6  11
BRANCH   7  13
HETATM   13  N2  UNL     1      18.118   5.220  -1.284  1.00  0.00    -0.363 N
ATOM     14  H2  UNL     1      18.316   5.203  -0.284  1.00  0.00     0.162 HD
BRANCH  13  15
HETATM   15  C12 UNL     1      17.614   4.017  -1.798  1.00  0.00     0.135 C
BRANCH  15  16
HETATM   16  O1  UNL     1      18.511   3.067  -1.795  1.00  0.00    -0.348 OA
ATOM     17  H1  UNL     1      18.127   2.214  -1.633  1.00  0.00     0.219 HD
ENDBRANCH  15  16
BRANCH  15  18
HETATM   18  C13 UNL     1      16.280   3.698  -2.318  1.00  0.00     0.163 C
BRANCH  18  19
HETATM   19  C14 UNL     1      16.271   2.577  -3.276  1.00  0.00     0.037 C
BRANCH  19  20
HETATM   20  C15 UNL     1      15.063   2.338  -4.116  1.00  0.00    -0.020 C
HETATM   21  C16 UNL     1      14.989   0.793  -4.281  1.00  0.00     0.009 C
HETATM   22  C17 UNL     1      15.065   2.951  -5.483  1.00  0.00     0.009 C
ENDBRANCH  19  20
ENDBRANCH  18  19
BRANCH  18  23
HETATM   23  N3  UNL     1      15.193   3.670  -1.316  1.00  0.00    -0.321 N
HETATM   24  C18 UNL     1      15.168   2.525  -0.475  1.00  0.00     0.267 C
HETATM   25  O2  UNL     1      16.160   2.215   0.296  1.00  0.00    -0.266 OA
HETATM   26  C19 UNL     1      14.089   1.501  -0.299  1.00  0.00     0.076 C
HETATM   27  C20 UNL     1      12.938   1.573  -1.217  1.00  0.00     0.074 C
HETATM   28  N4  UNL     1      13.786   1.221   1.085  1.00  0.00    -0.324 N
HETATM   29  C21 UNL     1      13.401   2.132   2.088  1.00  0.00     0.244 C
ATOM     30  H4  UNL     1      13.860   0.244   1.370  1.00  0.00     0.169 HD
HETATM   31  O3  UNL     1      14.095   2.189   3.171  1.00  0.00    -0.271 OA
HETATM   32  C22 UNL     1      12.248   3.073   2.053  1.00  0.00     0.177 C
HETATM   33  N5  UNL     1      12.544   4.165   2.951  1.00  0.00    -0.343 N
HETATM   34  C27 UNL     1      12.341   5.527   2.802  1.00  0.00     0.265 C
ATOM     35  H5  UNL     1      12.972   3.890   3.835  1.00  0.00     0.163 HD
HETATM   36  O4  UNL     1      11.849   6.123   3.847  1.00  0.00    -0.266 OA
HETATM   37  C28 UNL     1      12.605   6.369   1.629  1.00  0.00     0.084 C
HETATM   38  N6  UNL     1      13.424   6.215   0.710  1.00  0.00    -0.324 N
HETATM   39  C36 UNL     1      14.398   5.432   0.211  1.00  0.00     0.245 C
ATOM     40  H6  UNL     1      13.314   7.003   0.072  1.00  0.00     0.169 HD
HETATM   41  O5  UNL     1      15.555   5.201   0.710  1.00  0.00    -0.271 OA
HETATM   42  C37 UNL     1      14.201   4.680  -1.108  1.00  0.00     0.184 C
BRANCH  32  43
HETATM   43  C23 UNL     1      11.012   2.292   2.487  1.00  0.00     0.038 C
BRANCH  43  44
HETATM   44  C24 UNL     1       9.959   2.448   1.452  1.00  0.00    -0.020 C
HETATM   45  C25 UNL     1      10.289   3.566   0.465  1.00  0.00     0.009 C
HETATM   46  C26 UNL     1       9.753   1.185   0.636  1.00  0.00     0.009 C
ENDBRANCH  43  44
ENDBRANCH  32  43
BRANCH  37  47
HETATM   47  C29 UNL     1      11.762   7.630   1.610  1.00  0.00     0.101 C
BRANCH  47  48
HETATM   48  C30 UNL     1      10.639   7.603   0.704  1.00  0.00    -0.052 A
HETATM   49  C31 UNL     1       9.335   7.478   1.155  1.00  0.00     0.007 A
HETATM   50  C32 UNL     1       8.270   7.442   0.250  1.00  0.00     0.001 A
HETATM   51  C33 UNL     1       8.489   7.528  -1.110  1.00  0.00     0.000 A
HETATM   52  C34 UNL     1       9.773   7.652  -1.563  1.00  0.00     0.001 A
HETATM   53  C35 UNL     1      10.806   7.685  -0.654  1.00  0.00     0.007 A
ENDBRANCH  47  48
ENDBRANCH  37  47
BRANCH  42  54
HETATM   54  C38 UNL     1      13.797   5.673  -2.084  1.00  0.00     0.010 C
HETATM   55  C39 UNL     1      14.711   6.649  -2.688  1.00  0.00     0.012 C
HETATM   56  C40 UNL     1      12.848   5.138  -3.162  1.00  0.00     0.012 C
ENDBRANCH  42  54
ENDBRANCH  18  23
ENDBRANCH  15  18
ENDBRANCH  13  15
ENDBRANCH   7  13
ENDBRANCH   3   4
TORSDOF 15
ENDMDL