MODEL 2
REMARK VINA RESULT: -8.308126595      3.098      6.357
REMARK  17 active torsions:
REMARK  status: ('A' for Active; 'I' for Inactive)
REMARK       I    between atoms: C3_5  and  N3_7
REMARK    1  A    between atoms: N3_7  and  C4_9
REMARK    2  A    between atoms: N4_12  and  C7_13
REMARK    3  A    between atoms: C7_13  and  C8_14
REMARK    4  A    between atoms: C11_17  and  C12_18
REMARK    5  A    between atoms: C12_18  and  C13_19
REMARK    6  A    between atoms: C13_19  and  C14_20
REMARK    7  A    between atoms: C13_19  and  S1_27
REMARK    8  A    between atoms: C13_19  and  C30_48
REMARK    9  A    between atoms: C14_20  and  C15_21
REMARK   10  A    between atoms: S1_27  and  C21_28
REMARK   11  A    between atoms: C21_28  and  C22_29
REMARK   12  A    between atoms: C23_30  and  C24_31
REMARK   13  A    between atoms: C24_31  and  N5_32
REMARK   14  A    between atoms: C25_34  and  C26_35
REMARK   15  A    between atoms: C25_34  and  N8_43
REMARK   16  A    between atoms: C26_35  and  C27_36
REMARK   17  A    between atoms: N8_43  and  N9_45
ROOT
HETATM    1  C1  UNL     1      21.276   7.581  -0.274  1.00  0.00     0.037 C
HETATM    2  C2  UNL     1      20.917   8.661   0.123  1.00  0.00     0.001 C
HETATM    3  N1  UNL     1      20.495   9.937   0.579  1.00  0.00    -0.290 N
ATOM      4  H1  UNL     1      20.488  10.152   1.575  1.00  0.00     0.178 HD
HETATM    5  C3  UNL     1      20.119  10.827  -0.290  1.00  0.00     0.200 C
HETATM    6  N2  UNL     1      19.710  12.086   0.244  1.00  0.00    -0.063 NA
HETATM    7  N3  UNL     1      20.113  10.573  -1.680  1.00  0.00    -0.330 N
ATOM      8  H3  UNL     1      20.867  10.948  -2.257  1.00  0.00     0.168 HD
ENDROOT
BRANCH   7   9
HETATM    9  C4  UNL     1      19.088   9.811  -2.292  1.00  0.00     0.037 A
HETATM   10  C5  UNL     1      17.739  10.137  -2.115  1.00  0.00     0.046 A
HETATM   11  C6  UNL     1      16.769   9.396  -2.706  1.00  0.00     0.093 A
HETATM   12  N4  UNL     1      17.015   8.324  -3.485  1.00  0.00    -0.356 N
HETATM   13  C38 UNL     1      18.289   7.976  -3.683  1.00  0.00     0.009 A
HETATM   14  C39 UNL     1      18.649   6.787  -4.515  1.00  0.00     0.068 C
HETATM   15  C40 UNL     1      19.334   8.706  -3.096  1.00  0.00     0.054 A
BRANCH  12  16
HETATM   16  C7  UNL     1      15.907   7.615  -4.070  1.00  0.00     0.166 C
BRANCH  16  17
HETATM   17  C8  UNL     1      14.891   7.155  -3.094  1.00  0.00    -0.040 A
HETATM   18  C9  UNL     1      13.606   7.623  -3.028  1.00  0.00     0.009 A
HETATM   19  C10 UNL     1      12.741   7.137  -2.086  1.00  0.00     0.008 A
HETATM   20  C11 UNL     1      13.088   6.158  -1.149  1.00  0.00    -0.056 A
HETATM   21  C36 UNL     1      14.383   5.708  -1.238  1.00  0.00     0.008 A
HETATM   22  C37 UNL     1      15.280   6.190  -2.191  1.00  0.00     0.009 A
BRANCH  20  23
HETATM   23  C12 UNL     1      12.175   5.702  -0.158  1.00  0.00     0.068 C
BRANCH  23  24
HETATM   24  C13 UNL     1      12.262   6.430   1.266  1.00  0.00     0.058 C
BRANCH  24  25
HETATM   25  C14 UNL     1      13.408   7.331   1.130  1.00  0.00     0.010 C
BRANCH  25  26
HETATM   26  C15 UNL     1      13.994   8.081   2.237  1.00  0.00    -0.038 A
HETATM   27  C16 UNL     1      13.495   8.351   3.469  1.00  0.00     0.011 A
HETATM   28  C17 UNL     1      14.116   9.154   4.433  1.00  0.00     0.001 A
HETATM   29  C18 UNL     1      15.329   9.717   4.115  1.00  0.00     0.000 A
HETATM   30  C19 UNL     1      15.892   9.488   2.887  1.00  0.00     0.001 A
HETATM   31  C20 UNL     1      15.250   8.698   1.980  1.00  0.00     0.011 A
ENDBRANCH  25  26
ENDBRANCH  24  25
BRANCH  24  32
HETATM   32  S1  UNL     1      12.594   5.133   2.422  1.00  0.00    -0.138 SA
BRANCH  32  33
HETATM   33  C21 UNL     1      14.217   4.607   2.664  1.00  0.00     0.169 C
BRANCH  33  34
HETATM   34  C22 UNL     1      14.767   3.722   1.629  1.00  0.00    -0.095 C
HETATM   35  C23 UNL     1      15.239   2.936   0.811  1.00  0.00    -0.086 C
BRANCH  35  36
HETATM   36  C24 UNL     1      15.825   1.991  -0.124  1.00  0.00     0.215 C
BRANCH  36  37
HETATM   37  N5  UNL     1      15.844   2.437  -1.493  1.00  0.00    -0.368 N
HETATM   38  C25 UNL     1      16.944   2.640  -2.138  1.00  0.00     0.099 C
ATOM     39  H5  UNL     1      14.956   2.598  -1.970  1.00  0.00     0.161 HD
BRANCH  38  40
HETATM   40  C26 UNL     1      16.880   3.099  -3.542  1.00  0.00     0.154 C
BRANCH  40  41
HETATM   41  C27 UNL     1      16.979   1.989  -4.517  1.00  0.00     0.087 A
HETATM   42  N6  UNL     1      16.989   0.677  -4.248  1.00  0.00    -0.354 N
HETATM   43  C28 UNL     1      17.087  -0.020  -5.402  1.00  0.00     0.106 A
ATOM     44  H6  UNL     1      16.931   0.267  -3.315  1.00  0.00     0.166 HD
HETATM   45  C29 UNL     1      17.140   0.896  -6.429  1.00  0.00     0.106 A
HETATM   46  N7  UNL     1      17.072   2.104  -5.850  1.00  0.00    -0.354 N
ATOM     47  H7  UNL     1      17.089   2.990  -6.355  1.00  0.00     0.166 HD
ENDBRANCH  40  41
ENDBRANCH  38  40
BRANCH  38  48
HETATM   48  N8  UNL     1      18.218   2.442  -1.561  1.00  0.00    -0.295 N
ATOM     49  H8  UNL     1      18.362   1.681  -0.898  1.00  0.00     0.187 HD
BRANCH  48  50
HETATM   50  N9  UNL     1      19.272   3.278  -1.894  1.00  0.00    -0.344 N
ATOM     51  H92 UNL     1      20.177   3.135  -1.446  1.00  0.00     0.176 HD
ATOM     52  H91 UNL     1      19.138   4.023  -2.579  1.00  0.00     0.176 HD
ENDBRANCH  48  50
ENDBRANCH  38  48
ENDBRANCH  36  37
ENDBRANCH  35  36
ENDBRANCH  33  34
ENDBRANCH  32  33
ENDBRANCH  24  32
BRANCH  24  53
HETATM   53  C30 UNL     1      10.898   6.965   1.424  1.00  0.00    -0.033 A
HETATM   54  C31 UNL     1      10.356   8.071   0.877  1.00  0.00     0.026 A
HETATM   55  C32 UNL     1       9.034   8.394   1.116  1.00  0.00     0.090 A
HETATM   56  N10 UNL     1       8.213   7.652   1.884  1.00  0.00    -0.371 N
HETATM   57  C33 UNL     1       6.822   8.036   2.113  1.00  0.00     0.154 C
HETATM   58  C34 UNL     1       8.764   6.543   2.425  1.00  0.00     0.090 A
HETATM   59  C35 UNL     1      10.066   6.168   2.228  1.00  0.00     0.026 A
ENDBRANCH  24  53
ENDBRANCH  23  24
ENDBRANCH  20  23
ENDBRANCH  16  17
ENDBRANCH  12  16
ENDBRANCH   7   9
TORSDOF 17
ENDMDL