MODEL 4
REMARK VINA RESULT: -10.651996481      1.971      3.391
REMARK  16 active torsions:
REMARK  status: ('A' for Active; 'I' for Inactive)
REMARK    1  A    between atoms: C2_2  and  C3_3
REMARK    2  A    between atoms: C3_3  and  C4_4
REMARK    3  A    between atoms: C4_4  and  N1_5
REMARK    4  A    between atoms: C8_9  and  C9_10
REMARK    5  A    between atoms: C9_10  and  O1_11
REMARK    6  A    between atoms: O1_11  and  C10_12
REMARK    7  A    between atoms: C10_12  and  C12_14
REMARK    8  A    between atoms: C16_19  and  C17_20
REMARK    9  A    between atoms: C19_22  and  O2_23
REMARK   10  A    between atoms: C19_22  and  C20_25
REMARK   11  A    between atoms: C22_27  and  O3_28
REMARK   12  A    between atoms: C23_32  and  C24_33
REMARK   13  A    between atoms: C24_33  and  C25_34
REMARK   14  A    between atoms: C25_34  and  C26_35
REMARK   15  A    between atoms: C25_34  and  C32_42
REMARK   16  A    between atoms: C26_35  and  N4_36
ROOT
HETATM    1  C12 UNL     1      10.611  -1.210   2.553  1.00  0.00     0.003 A
HETATM    2  C13 UNL     1      10.264  -1.591   1.212  1.00  0.00     0.034 A
HETATM    3  C14 UNL     1      10.543  -0.727   0.256  1.00  0.00     0.117 A
HETATM    4  N2  UNL     1      11.143   0.518   0.389  1.00  0.00    -0.268 N
HETATM    5  C15 UNL     1      11.470   0.884   1.664  1.00  0.00     0.083 A
HETATM    6  C16 UNL     1      11.203   0.028   2.744  1.00  0.00    -0.018 A
HETATM    7  C19 UNL     1      12.238   2.153   1.892  1.00  0.00     0.166 C
HETATM    8  C22 UNL     1      11.854   3.254   1.018  1.00  0.00     0.159 C
HETATM    9  N3  UNL     1      12.477   4.220   0.274  1.00  0.00    -0.324 N
ATOM     10  H3  UNL     1      11.901   5.055   0.161  1.00  0.00     0.169 HD
HETATM   11  C23 UNL     1      13.756   4.341  -0.390  1.00  0.00     0.107 C
HETATM   12  N6  UNL     1      14.084   3.481  -1.330  1.00  0.00    -0.351 N
ATOM     13  H6  UNL     1      15.009   3.636  -1.731  1.00  0.00     0.166 HD
HETATM   14  C40 UNL     1      13.401   2.397  -1.880  1.00  0.00     0.108 C
HETATM   15  C41 UNL     1      12.412   1.588  -1.658  1.00  0.00     0.124 C
HETATM   16  N7  UNL     1      11.394   1.203  -0.821  1.00  0.00    -0.304 N
ATOM     17  H7  UNL     1      10.508   1.523  -1.210  1.00  0.00     0.186 HD
ENDROOT
BRANCH  11  18
HETATM   18  C24 UNL     1      14.520   5.559  -0.137  1.00  0.00     0.062 C
BRANCH  18  19
HETATM   19  C25 UNL     1      14.025   6.902   0.176  1.00  0.00    -0.004 C
BRANCH  19  20
HETATM   20  C26 UNL     1      12.857   7.232  -0.693  1.00  0.00     0.108 C
BRANCH  20  21
HETATM   21  N4  UNL     1      11.627   7.615  -0.134  1.00  0.00    -0.342 N
HETATM   22  C27 UNL     1      11.160   7.505   1.056  1.00  0.00     0.096 A
HETATM   23  C28 UNL     1       9.908   7.849   1.483  1.00  0.00     0.018 A
HETATM   24  C29 UNL     1       9.007   8.372   0.606  1.00  0.00     0.003 A
HETATM   25  C30 UNL     1       9.470   8.520  -0.718  1.00  0.00     0.018 A
HETATM   26  C31 UNL     1      10.732   8.156  -1.082  1.00  0.00     0.096 A
ENDBRANCH  20  21
ENDBRANCH  19  20
BRANCH  19  27
HETATM   27  C32 UNL     1      14.818   7.897   0.843  1.00  0.00     0.004 A
HETATM   28  C33 UNL     1      16.081   8.398   0.448  1.00  0.00     0.101 A
HETATM   29  N5  UNL     1      16.639   9.147   1.385  1.00  0.00    -0.364 N
HETATM   30  C34 UNL     1      15.816   9.195   2.428  1.00  0.00     0.043 A
ATOM     31  H5  UNL     1      17.546   9.610   1.318  1.00  0.00     0.165 HD
HETATM   32  C35 UNL     1      15.984   9.892   3.632  1.00  0.00     0.030 A
HETATM   33  C39 UNL     1      14.700   8.446   2.131  1.00  0.00     0.003 A
HETATM   34  C36 UNL     1      14.965   9.814   4.555  1.00  0.00     0.002 A
HETATM   35  C37 UNL     1      13.828   9.078   4.294  1.00  0.00     0.001 A
HETATM   36  C38 UNL     1      13.722   8.419   3.107  1.00  0.00     0.014 A
ENDBRANCH  19  27
ENDBRANCH  18  19
ENDBRANCH  11  18
BRANCH   8  37
HETATM   37  O3  UNL     1      10.525   3.329   0.943  1.00  0.00    -0.347 OA
ATOM     38  H3  UNL     1      10.267   3.606   0.072  1.00  0.00     0.219 HD
ENDBRANCH   8  37
BRANCH   7  39
HETATM   39  O2  UNL     1      11.706   2.722   3.158  1.00  0.00    -0.375 OA
ATOM     40  H2  UNL     1      11.833   2.047   3.815  1.00  0.00     0.211 HD
ENDBRANCH   7  39
BRANCH   7  41
HETATM   41  C20 UNL     1      13.636   1.922   2.272  1.00  0.00     0.049 C
HETATM   42  C21 UNL     1      14.545   1.244   1.281  1.00  0.00     0.009 C
ENDBRANCH   7  41
BRANCH   6  43
HETATM   43  C17 UNL     1      11.565   0.322   4.131  1.00  0.00     0.037 C
HETATM   44  C18 UNL     1      10.454   0.508   5.139  1.00  0.00     0.010 C
ENDBRANCH   6  43
BRANCH   1  45
HETATM   45  C10 UNL     1      10.238  -2.241   3.530  1.00  0.00     0.053 C
HETATM   46  C11 UNL     1       8.724  -2.629   3.187  1.00  0.00     0.077 C
BRANCH  45  47
HETATM   47  O1  UNL     1      10.902  -3.231   4.008  1.00  0.00    -0.350 OA
BRANCH  47  48
HETATM   48  C9  UNL     1      11.011  -4.373   3.260  1.00  0.00     0.215 C
BRANCH  48  49
HETATM   49  C8  UNL     1      12.215  -5.178   3.404  1.00  0.00    -0.018 A
HETATM   50  C7  UNL     1      13.300  -4.979   2.606  1.00  0.00     0.012 A
HETATM   51  C6  UNL     1      14.416  -5.793   2.749  1.00  0.00     0.018 A
HETATM   52  C5  UNL     1      14.416  -6.786   3.682  1.00  0.00     0.090 A
HETATM   53  N1  UNL     1      13.339  -7.011   4.499  1.00  0.00    -0.366 N
HETATM   54  C42 UNL     1      12.284  -6.220   4.349  1.00  0.00     0.099 A
BRANCH  53  55
HETATM   55  C4  UNL     1      13.417  -8.134   5.438  1.00  0.00     0.128 C
BRANCH  55  56
HETATM   56  C3  UNL     1      12.398  -9.155   4.944  1.00  0.00     0.020 C
BRANCH  56  57
HETATM   57  C2  UNL     1      12.898  -9.999   3.819  1.00  0.00    -0.003 C
HETATM   58  C1  UNL     1      14.213 -10.672   4.083  1.00  0.00     0.005 C
ENDBRANCH  56  57
ENDBRANCH  55  56
ENDBRANCH  53  55
ENDBRANCH  48  49
ENDBRANCH  47  48
ENDBRANCH  45  47
ENDBRANCH   1  45
TORSDOF 16
ENDMDL