MODEL 1
REMARK VINA RESULT: -5.629823116      0.000      0.000
REMARK  11 active torsions:
REMARK  status: ('A' for Active; 'I' for Inactive)
REMARK    1  A    between atoms: O1_2  and  C2_3
REMARK    2  A    between atoms: C2_3  and  C3_5
REMARK    3  A    between atoms: C3_5  and  C4_6
REMARK    4  A    between atoms: C3_5  and  N1_10
REMARK    5  A    between atoms: C4_6  and  C5_7
REMARK    6  A    between atoms: N1_10  and  C6_13
REMARK    7  A    between atoms: C6_13  and  C8_15
REMARK    8  A    between atoms: C9_16  and  O5_17
REMARK    9  A    between atoms: C12_21  and  C13_22
REMARK   10  A    between atoms: C13_22  and  O6_23
REMARK   11  A    between atoms: N2_25  and  O7_27
ROOT
HETATM    1  C8  UNL     1      37.637  21.847  41.805  1.00  0.00     0.056 C
HETATM    2  C9  UNL     1      39.011  22.471  41.887  1.00  0.00     0.125 C
HETATM    3  C10 UNL     1      39.116  23.009  43.303  1.00  0.00     0.033 C
HETATM    4  C11 UNL     1      37.823  22.609  44.007  1.00  0.00     0.016 C
HETATM    5  C12 UNL     1      36.811  22.502  42.851  1.00  0.00     0.070 C
ENDROOT
BRANCH   1   6
HETATM    6  C6  UNL     1      37.150  21.943  40.395  1.00  0.00     0.190 C
HETATM    7  C7  UNL     1      37.376  20.566  39.777  1.00  0.00     0.040 C
BRANCH   6   8
HETATM    8  N1  UNL     1      35.829  22.385  40.225  1.00  0.00    -0.057 N
ATOM      9  H12 UNL     1      35.544  22.962  41.016  1.00  0.00     0.278 HD
ATOM     10  H11 UNL     1      35.178  21.607  40.333  1.00  0.00     0.278 HD
BRANCH   8  11
HETATM   11  C3  UNL     1      35.588  23.064  39.008  1.00  0.00     0.295 C
BRANCH  11  12
HETATM   12  C2  UNL     1      36.700  23.836  38.440  1.00  0.00     0.290 C
HETATM   13  O2  UNL     1      37.461  23.546  37.517  1.00  0.00    -0.263 OA
BRANCH  12  14
HETATM   14  O1  UNL     1      36.931  25.093  39.036  1.00  0.00    -0.325 OA
HETATM   15  C1  UNL     1      38.060  25.865  38.668  1.00  0.00     0.213 C
ENDBRANCH  12  14
ENDBRANCH  11  12
BRANCH  11  16
HETATM   16  C4  UNL     1      34.365  23.979  39.079  1.00  0.00     0.156 C
BRANCH  16  17
HETATM   17  C5  UNL     1      33.280  23.446  39.901  1.00  0.00     0.175 C
HETATM   18  O3  UNL     1      32.639  22.467  39.394  1.00  0.00    -0.648 OA
HETATM   19  O4  UNL     1      33.000  23.987  41.131  1.00  0.00    -0.648 OA
ENDBRANCH  16  17
ENDBRANCH  11  16
ENDBRANCH   8  11
ENDBRANCH   6   8
ENDBRANCH   1   6
BRANCH   2  20
HETATM   20  O5  UNL     1      39.956  21.470  41.667  1.00  0.00    -0.395 OA
ATOM     21  H5  UNL     1      40.790  21.886  41.484  1.00  0.00     0.210 HD
ENDBRANCH   2  20
BRANCH   5  22
HETATM   22  C13 UNL     1      36.356  23.856  42.576  1.00  0.00     0.140 C
HETATM   23  N2  UNL     1      35.222  24.263  43.038  1.00  0.00    -0.251 N
ATOM     24  H2  UNL     1      34.935  25.218  42.823  1.00  0.00     0.196 HD
BRANCH  22  25
HETATM   25  O6  UNL     1      37.084  24.782  41.824  1.00  0.00    -0.348 OA
ATOM     26  H6  UNL     1      36.691  25.376  41.195  1.00  0.00     0.219 HD
ENDBRANCH  22  25
BRANCH  23  27
HETATM   27  O7  UNL     1      34.380  23.498  43.796  1.00  0.00    -0.288 OA
ATOM     28  H7  UNL     1      33.434  23.494  43.707  1.00  0.00     0.244 HD
ENDBRANCH  23  27
ENDBRANCH   5  22
TORSDOF 11
ENDMDL