MODEL 2
REMARK VINA RESULT: -6.030156121      2.097      3.669
REMARK  12 active torsions:
REMARK  status: ('A' for Active; 'I' for Inactive)
REMARK    1  A    between atoms: O1_1  and  C1_3
REMARK    2  A    between atoms: C3_5  and  O2_6
REMARK    3  A    between atoms: C4_8  and  C5_9
REMARK    4  A    between atoms: C5_9  and  O3_10
REMARK    5  A    between atoms: C5_9  and  C6_12
REMARK    6  A    between atoms: C6_12  and  O4_13
REMARK    7  A    between atoms: C6_12  and  O5_15
REMARK    8  A    between atoms: O5_15  and  C7_16
REMARK    9  A    between atoms: C7_16  and  C8_17
REMARK   10  A    between atoms: C8_17  and  O6_18
REMARK   11  A    between atoms: O6_18  and  C9_19
REMARK   12  A    between atoms: C15_25  and  O7_26
ROOT
HETATM    1  C5  UNL     1      37.051  22.581  43.071  1.00  0.00     0.182 C
ENDROOT
BRANCH   1   2
HETATM    2  C4  UNL     1      35.814  22.752  42.231  1.00  0.00     0.079 C
HETATM    3  C3  UNL     1      36.119  23.103  40.806  1.00  0.00     0.130 C
HETATM    4  C2  UNL     1      35.302  24.353  40.487  1.00  0.00     0.066 C
HETATM    5  C1  UNL     1      34.267  24.429  41.608  1.00  0.00     0.149 C
HETATM    6  C15 UNL     1      35.049  23.928  42.779  1.00  0.00     0.156 C
BRANCH   3   7
HETATM    7  O2  UNL     1      35.622  22.088  39.994  1.00  0.00    -0.395 OA
ATOM      8  H2  UNL     1      35.310  22.507  39.201  1.00  0.00     0.210 HD
ENDBRANCH   3   7
BRANCH   5   9
HETATM    9  O1  UNL     1      33.171  23.656  41.299  1.00  0.00    -0.393 OA
ATOM     10  H1  UNL     1      32.465  24.201  40.972  1.00  0.00     0.210 HD
ENDBRANCH   5   9
BRANCH   6  11
HETATM   11  O7  UNL     1      34.252  23.578  43.867  1.00  0.00    -0.392 OA
ATOM     12  H7  UNL     1      33.804  22.747  43.756  1.00  0.00     0.210 HD
ENDBRANCH   6  11
ENDBRANCH   1   2
BRANCH   1  13
HETATM   13  O3  UNL     1      36.912  21.392  43.786  1.00  0.00    -0.390 OA
ATOM     14  H3  UNL     1      36.676  21.621  44.678  1.00  0.00     0.210 HD
ENDBRANCH   1  13
BRANCH   1  15
HETATM   15  C6  UNL     1      38.305  22.513  42.184  1.00  0.00     0.285 C
BRANCH  15  16
HETATM   16  O4  UNL     1      38.658  21.191  42.131  1.00  0.00    -0.369 OA
ATOM     17  H4  UNL     1      39.573  21.174  41.874  1.00  0.00     0.212 HD
ENDBRANCH  15  16
BRANCH  15  18
HETATM   18  O5  UNL     1      39.273  23.367  42.767  1.00  0.00    -0.357 OA
BRANCH  18  19
HETATM   19  C7  UNL     1      40.088  23.898  41.819  1.00  0.00     0.197 C
BRANCH  19  20
HETATM   20  C8  UNL     1      39.390  24.760  40.821  1.00  0.00     0.194 C
BRANCH  20  21
HETATM   21  O6  UNL     1      40.009  25.810  40.292  1.00  0.00    -0.384 OA
BRANCH  21  22
HETATM   22  C9  UNL     1      41.036  26.515  40.723  1.00  0.00     0.121 C
HETATM   23  C10 UNL     1      40.504  27.823  41.299  1.00  0.00     0.032 C
HETATM   24  C11 UNL     1      40.023  28.760  40.241  1.00  0.00     0.002 C
HETATM   25  C12 UNL     1      41.017  29.008  39.155  1.00  0.00     0.000 C
HETATM   26  C13 UNL     1      41.302  27.652  38.504  1.00  0.00     0.002 C
HETATM   27  C14 UNL     1      41.956  26.801  39.536  1.00  0.00     0.032 C
ENDBRANCH  21  22
ENDBRANCH  20  21
ENDBRANCH  19  20
ENDBRANCH  18  19
ENDBRANCH  15  18
ENDBRANCH   1  15
TORSDOF 12
ENDMDL