MODEL 5
REMARK VINA RESULT: -6.144276550      2.944      5.520
REMARK  11 active torsions:
REMARK  status: ('A' for Active; 'I' for Inactive)
REMARK    1  A    between atoms: C2_2  and  C4_4
REMARK    2  A    between atoms: C4_4  and  C5_5
REMARK    3  A    between atoms: C5_5  and  N1_7
REMARK    4  A    between atoms: N1_7  and  C7_9
REMARK    5  A    between atoms: C8_11  and  C9_12
REMARK    6  A    between atoms: C9_12  and  C10_14
REMARK    7  A    between atoms: C10_14  and  O3_15
REMARK    8  A    between atoms: C10_14  and  C11_17
REMARK    9  A    between atoms: C11_17  and  O4_18
REMARK   10  A    between atoms: C12_20  and  O5_21
REMARK   11  A    between atoms: C13_23  and  O6_24
ROOT
HETATM    1  C7  UNL     1      38.175  20.582  41.202  1.00  0.00     0.224 C
HETATM    2  O1  UNL     1      37.087  21.434  41.543  1.00  0.00    -0.351 OA
HETATM    3  C8  UNL     1      37.538  22.758  41.576  1.00  0.00     0.227 C
HETATM    4  C12 UNL     1      38.379  22.976  42.797  1.00  0.00     0.183 C
HETATM    5  C13 UNL     1      38.752  21.649  43.391  1.00  0.00     0.157 C
HETATM    6  C14 UNL     1      39.184  20.669  42.301  1.00  0.00     0.061 C
HETATM    7  C15 UNL     1      40.564  21.069  41.905  1.00  0.00     0.017 C
ENDROOT
BRANCH   1   8
HETATM    8  N1  UNL     1      37.619  19.318  40.990  1.00  0.00    -0.392 N
ATOM      9  H1  UNL     1      36.805  19.039  41.538  1.00  0.00     0.156 HD
BRANCH   8  10
HETATM   10  C5  UNL     1      38.147  18.417  40.043  1.00  0.00     0.075 C
HETATM   11  C6  UNL     1      37.186  17.777  39.105  1.00  0.00     0.032 C
BRANCH  10  12
HETATM   12  C4  UNL     1      38.749  17.260  40.873  1.00  0.00     0.028 C
BRANCH  12  13
HETATM   13  C2  UNL     1      40.197  17.050  40.501  1.00  0.00    -0.021 C
HETATM   14  C1  UNL     1      40.263  15.831  39.606  1.00  0.00     0.009 C
HETATM   15  C3  UNL     1      40.677  18.231  39.654  1.00  0.00     0.009 C
ENDBRANCH  12  13
ENDBRANCH  10  12
ENDBRANCH   8  10
ENDBRANCH   1   8
BRANCH   3  16
HETATM   16  C9  UNL     1      36.349  23.627  41.619  1.00  0.00     0.188 C
HETATM   17  O2  UNL     1      36.133  24.368  40.659  1.00  0.00    -0.292 OA
BRANCH  16  18
HETATM   18  C10 UNL     1      35.392  23.669  42.761  1.00  0.00     0.213 C
BRANCH  18  19
HETATM   19  O3  UNL     1      35.052  22.453  43.278  1.00  0.00    -0.386 OA
ATOM     20  H3  UNL     1      35.497  21.709  42.890  1.00  0.00     0.210 HD
ENDBRANCH  18  19
BRANCH  18  21
HETATM   21  C11 UNL     1      34.181  24.478  42.367  1.00  0.00     0.203 C
BRANCH  21  22
HETATM   22  O4  UNL     1      33.369  23.786  41.467  1.00  0.00    -0.398 OA
ATOM     23  H4  UNL     1      33.684  23.871  40.574  1.00  0.00     0.209 HD
ENDBRANCH  21  22
ENDBRANCH  18  21
ENDBRANCH  16  18
ENDBRANCH   3  16
BRANCH   5  24
HETATM   24  O6  UNL     1      37.685  21.170  44.133  1.00  0.00    -0.392 OA
ATOM     25  H6  UNL     1      37.957  20.387  44.597  1.00  0.00     0.210 HD
ENDBRANCH   5  24
BRANCH   4  26
HETATM   26  O5  UNL     1      39.486  23.728  42.444  1.00  0.00    -0.390 OA
ATOM     27  H5  UNL     1      39.271  24.648  42.535  1.00  0.00     0.210 HD
ENDBRANCH   4  26
TORSDOF 11
ENDMDL