MODEL 5
REMARK VINA RESULT: -6.468158122      1.864      2.706
REMARK  11 active torsions:
REMARK  status: ('A' for Active; 'I' for Inactive)
REMARK    1  A    between atoms: C2_2  and  C3_3
REMARK    2  A    between atoms: C2_2  and  O4_15
REMARK    3  A    between atoms: C3_3  and  C4_4
REMARK    4  A    between atoms: C6_6  and  O1_7
REMARK    5  A    between atoms: C7_9  and  O2_10
REMARK    6  A    between atoms: O4_15  and  C10_16
REMARK    7  A    between atoms: C10_16  and  O5_17
REMARK    8  A    between atoms: C10_16  and  C11_19
REMARK    9  A    between atoms: C11_19  and  N1_21
REMARK   10  A    between atoms: N1_21  and  C13_23
REMARK   11  A    between atoms: C13_23  and  C14_24
ROOT
HETATM    1  C1  UNL     1      37.495  24.879  38.060  1.00  0.00     0.040 C
HETATM    2  C2  UNL     1      38.490  24.473  39.091  1.00  0.00     0.123 C
ENDROOT
BRANCH   2   3
HETATM    3  C3  UNL     1      37.870  24.104  40.412  1.00  0.00     0.063 C
BRANCH   3   4
HETATM    4  C4  UNL     1      36.376  24.013  40.251  1.00  0.00     0.127 C
HETATM    5  C5  UNL     1      35.728  24.759  41.389  1.00  0.00     0.066 C
HETATM    6  C6  UNL     1      34.622  23.946  42.025  1.00  0.00     0.151 C
HETATM    7  C7  UNL     1      33.774  23.371  40.909  1.00  0.00     0.175 C
HETATM    8  C8  UNL     1      34.594  22.572  39.963  1.00  0.00     0.149 C
HETATM    9  C9  UNL     1      34.148  22.869  38.543  1.00  0.00     0.042 C
HETATM   10  O3  UNL     1      35.961  22.712  40.133  1.00  0.00    -0.378 OA
BRANCH   6  11
HETATM   11  O1  UNL     1      33.897  24.776  42.843  1.00  0.00    -0.393 OA
ATOM     12  H1  UNL     1      33.809  25.617  42.409  1.00  0.00     0.210 HD
ENDBRANCH   6  11
BRANCH   7  13
HETATM   13  O2  UNL     1      33.024  24.381  40.275  1.00  0.00    -0.390 OA
ATOM     14  H2  UNL     1      33.551  24.846  39.637  1.00  0.00     0.210 HD
ENDBRANCH   7  13
ENDBRANCH   3   4
ENDBRANCH   2   3
BRANCH   2  15
HETATM   15  O4  UNL     1      39.447  25.472  39.179  1.00  0.00    -0.354 OA
BRANCH  15  16
HETATM   16  C10 UNL     1      38.878  26.729  39.395  1.00  0.00     0.279 C
BRANCH  16  17
HETATM   17  O5  UNL     1      39.128  27.599  38.353  1.00  0.00    -0.369 OA
ATOM     18  H5  UNL     1      38.329  27.883  37.925  1.00  0.00     0.212 HD
ENDBRANCH  16  17
BRANCH  16  19
HETATM   19  C11 UNL     1      39.565  27.242  40.691  1.00  0.00     0.132 C
HETATM   20  C12 UNL     1      40.837  26.459  40.830  1.00  0.00     0.037 C
BRANCH  19  21
HETATM   21  N1  UNL     1      39.608  28.626  40.799  1.00  0.00    -0.384 N
ATOM     22  H1  UNL     1      38.713  29.110  40.869  1.00  0.00     0.159 HD
BRANCH  21  23
HETATM   23  C13 UNL     1      40.744  29.413  40.821  1.00  0.00     0.168 C
BRANCH  23  24
HETATM   24  C14 UNL     1      40.955  30.428  39.787  1.00  0.00     0.214 C
HETATM   25  O6  UNL     1      40.512  31.589  39.739  1.00  0.00    -0.644 OA
HETATM   26  O7  UNL     1      41.767  30.075  38.681  1.00  0.00    -0.644 OA
ENDBRANCH  23  24
ENDBRANCH  21  23
ENDBRANCH  19  21
ENDBRANCH  16  19
ENDBRANCH  15  16
ENDBRANCH   2  15
TORSDOF 11
ENDMDL