MODEL 5
REMARK VINA RESULT: -5.686593242      3.904      6.400
REMARK  10 active torsions:
REMARK  status: ('A' for Active; 'I' for Inactive)
REMARK    1  A    between atoms: C2_2  and  C3_3
REMARK    2  A    between atoms: C3_3  and  N1_4
REMARK    3  A    between atoms: N1_4  and  C4_7
REMARK    4  A    between atoms: C9_12  and  O1_13
REMARK    5  A    between atoms: O1_13  and  C10_14
REMARK    6  A    between atoms: C11_16  and  C12_17
REMARK    7  A    between atoms: C12_17  and  O3_18
REMARK    8  A    between atoms: C13_20  and  O4_21
REMARK    9  A    between atoms: C14_23  and  O5_24
REMARK   10  A    between atoms: C15_26  and  O6_27
ROOT
HETATM    1  C10 UNL     1      39.357  27.375  39.374  1.00  0.00     0.292 C
HETATM    2  O2  UNL     1      40.186  27.095  38.311  1.00  0.00    -0.348 OA
HETATM    3  C11 UNL     1      41.493  27.372  38.454  1.00  0.00     0.179 C
HETATM    4  C13 UNL     1      41.684  28.845  38.658  1.00  0.00     0.180 C
HETATM    5  C14 UNL     1      40.842  29.394  39.748  1.00  0.00     0.183 C
HETATM    6  C15 UNL     1      39.629  28.609  40.124  1.00  0.00     0.204 C
ENDROOT
BRANCH   1   7
HETATM    7  O1  UNL     1      39.268  26.205  40.117  1.00  0.00    -0.351 OA
BRANCH   7   8
HETATM    8  C9  UNL     1      38.850  25.105  39.430  1.00  0.00     0.155 C
HETATM    9  C4  UNL     1      38.893  23.816  40.228  1.00  0.00     0.215 C
HETATM   10  C5  UNL     1      38.101  23.903  41.496  1.00  0.00     0.036 C
HETATM   11  C6  UNL     1      36.808  24.693  41.281  1.00  0.00     0.002 C
HETATM   12  C7  UNL     1      36.447  24.449  39.827  1.00  0.00     0.003 C
HETATM   13  C8  UNL     1      37.414  25.291  39.003  1.00  0.00     0.034 C
BRANCH   9  14
HETATM   14  N1  UNL     1      40.224  23.374  40.544  1.00  0.00    -0.065 N
ATOM     15  H12 UNL     1      40.944  23.912  40.063  1.00  0.00     0.278 HD
ATOM     16  H11 UNL     1      40.443  22.462  40.142  1.00  0.00     0.278 HD
BRANCH  14  17
HETATM   17  C3  UNL     1      40.373  23.401  41.986  1.00  0.00     0.259 C
BRANCH  17  18
HETATM   18  C2  UNL     1      41.656  24.078  42.324  1.00  0.00    -0.010 C
HETATM   19  C1  UNL     1      42.613  23.482  43.026  1.00  0.00     0.008 C
ENDBRANCH  17  18
ENDBRANCH  14  17
ENDBRANCH   9  14
ENDBRANCH   7   8
ENDBRANCH   1   7
BRANCH   6  20
HETATM   20  O6  UNL     1      39.727  28.288  41.481  1.00  0.00    -0.388 OA
ATOM     21  H6  UNL     1      39.406  27.403  41.604  1.00  0.00     0.210 HD
ENDBRANCH   6  20
BRANCH   3  22
HETATM   22  C12 UNL     1      42.244  26.580  39.485  1.00  0.00     0.198 C
BRANCH  22  23
HETATM   23  O3  UNL     1      42.216  25.226  39.149  1.00  0.00    -0.398 OA
ATOM     24  H3  UNL     1      41.940  25.127  38.246  1.00  0.00     0.209 HD
ENDBRANCH  22  23
ENDBRANCH   3  22
BRANCH   5  25
HETATM   25  O5  UNL     1      40.512  30.720  39.365  1.00  0.00    -0.390 OA
ATOM     26  H5  UNL     1      41.334  31.151  39.161  1.00  0.00     0.210 HD
ENDBRANCH   5  25
BRANCH   4  27
HETATM   27  O4  UNL     1      41.464  29.466  37.425  1.00  0.00    -0.390 OA
ATOM     28  H4  UNL     1      41.311  28.779  36.787  1.00  0.00     0.210 HD
ENDBRANCH   4  27
TORSDOF 10
ENDMDL