MODEL 5
REMARK VINA RESULT: -5.981252130      1.818      5.784
REMARK  11 active torsions:
REMARK  status: ('A' for Active; 'I' for Inactive)
REMARK    1  A    between atoms: C2_2  and  O1_3
REMARK    2  A    between atoms: O1_3  and  C3_4
REMARK       I    between atoms: C3_4  and  N1_6
REMARK    3  A    between atoms: N1_6  and  C4_8
REMARK    4  A    between atoms: C4_8  and  O3_9
REMARK    5  A    between atoms: C4_8  and  C5_11
REMARK    6  A    between atoms: C5_11  and  C6_12
REMARK    7  A    between atoms: C5_11  and  N2_16
REMARK    8  A    between atoms: C6_12  and  C7_13
REMARK    9  A    between atoms: N2_16  and  C10_18
REMARK   10  A    between atoms: C10_18  and  C11_19
REMARK       I    between atoms: C11_19  and  N3_21
REMARK       I    between atoms: N3_21  and  C12_23
REMARK   11  A    between atoms: C12_23  and  O6_25
ROOT
HETATM    1  C5  UNL     1      36.821  22.659  42.278  1.00  0.00     0.130 C
ENDROOT
BRANCH   1   2
HETATM    2  C4  UNL     1      35.624  23.366  42.764  1.00  0.00     0.244 C
BRANCH   2   3
HETATM    3  N1  UNL     1      35.018  24.207  41.757  1.00  0.00    -0.308 N
HETATM    4  C3  UNL     1      34.080  23.741  40.816  1.00  0.00     0.362 C
HETATM    5  O2  UNL     1      33.748  22.537  40.844  1.00  0.00    -0.238 OA
ATOM      6  H1  UNL     1      35.283  25.191  41.727  1.00  0.00     0.167 HD
BRANCH   4   7
HETATM    7  O1  UNL     1      33.547  24.595  39.893  1.00  0.00    -0.304 OA
BRANCH   7   8
HETATM    8  C2  UNL     1      34.037  24.705  38.572  1.00  0.00     0.176 C
HETATM    9  C1  UNL     1      32.964  25.124  37.614  1.00  0.00     0.034 C
ENDBRANCH   7   8
ENDBRANCH   4   7
ENDBRANCH   2   3
BRANCH   2  10
HETATM   10  O3  UNL     1      34.738  22.624  43.515  1.00  0.00    -0.375 OA
ATOM     11  H3  UNL     1      34.667  21.709  43.267  1.00  0.00     0.212 HD
ENDBRANCH   2  10
ENDBRANCH   1   2
BRANCH   1  12
HETATM   12  C6  UNL     1      37.505  21.939  43.459  1.00  0.00     0.033 C
BRANCH  12  13
HETATM   13  C7  UNL     1      38.621  22.816  44.013  1.00  0.00    -0.021 C
HETATM   14  C8  UNL     1      39.619  23.143  42.947  1.00  0.00     0.009 C
HETATM   15  C9  UNL     1      39.218  22.127  45.196  1.00  0.00     0.009 C
ENDBRANCH  12  13
ENDBRANCH   1  12
BRANCH   1  16
HETATM   16  N2  UNL     1      36.794  21.781  41.220  1.00  0.00    -0.386 N
ATOM     17  H2  UNL     1      35.887  21.383  40.978  1.00  0.00     0.159 HD
BRANCH  16  18
HETATM   18  C10 UNL     1      37.870  21.382  40.451  1.00  0.00     0.158 C
BRANCH  18  19
HETATM   19  C11 UNL     1      38.059  19.885  40.590  1.00  0.00     0.264 C
HETATM   20  O4  UNL     1      38.843  19.420  41.464  1.00  0.00    -0.267 OA
HETATM   21  N3  UNL     1      37.330  19.047  39.715  1.00  0.00    -0.268 N
HETATM   22  C12 UNL     1      37.439  17.620  39.764  1.00  0.00     0.367 C
ATOM     23  H3  UNL     1      36.708  19.471  39.027  1.00  0.00     0.174 HD
HETATM   24  O5  UNL     1      38.191  17.050  40.595  1.00  0.00    -0.238 OA
BRANCH  22  25
HETATM   25  O6  UNL     1      36.711  16.825  38.891  1.00  0.00    -0.309 OA
HETATM   26  C13 UNL     1      35.711  17.389  38.037  1.00  0.00     0.215 C
ENDBRANCH  22  25
ENDBRANCH  18  19
ENDBRANCH  16  18
ENDBRANCH   1  16
TORSDOF 11
ENDMDL