MODEL 5
REMARK VINA RESULT: -5.790140213      2.607      3.584
REMARK  12 active torsions:
REMARK  status: ('A' for Active; 'I' for Inactive)
REMARK    1  A    between atoms: C2_2  and  C4_4
REMARK    2  A    between atoms: C5_6  and  C6_7
REMARK    3  A    between atoms: C6_7  and  O2_8
REMARK    4  A    between atoms: C6_7  and  C7_10
REMARK    5  A    between atoms: C6_7  and  C9_14
REMARK    6  A    between atoms: C7_10  and  O3_12
REMARK    7  A    between atoms: C9_14  and  O4_15
REMARK    8  A    between atoms: C9_14  and  C10_17
REMARK    9  A    between atoms: C10_17  and  O5_18
REMARK   10  A    between atoms: O5_18  and  C11_19
REMARK   11  A    between atoms: C14_22  and  O6_23
REMARK   12  A    between atoms: C15_25  and  O7_26
ROOT
HETATM    1  C6  UNL     1      36.422  23.356  41.179  1.00  0.00     0.139 C
ENDROOT
BRANCH   1   2
HETATM    2  C5  UNL     1      35.273  23.849  40.266  1.00  0.00     0.193 C
HETATM    3  O1  UNL     1      35.546  23.468  38.939  1.00  0.00    -0.368 OA
HETATM    4  C4  UNL     1      34.308  23.725  38.344  1.00  0.00     0.181 C
HETATM    5  C15 UNL     1      33.382  22.919  39.233  1.00  0.00     0.182 C
HETATM    6  C14 UNL     1      33.968  23.223  40.620  1.00  0.00     0.181 C
BRANCH   4   7
HETATM    7  C2  UNL     1      34.256  23.321  36.941  1.00  0.00    -0.062 C
HETATM    8  C1  UNL     1      35.288  22.701  36.395  1.00  0.00     0.016 C
HETATM    9  C3  UNL     1      33.064  23.592  36.111  1.00  0.00     0.045 C
ENDBRANCH   4   7
BRANCH   5  10
HETATM   10  O7  UNL     1      33.444  21.567  38.940  1.00  0.00    -0.390 OA
ATOM     11  H7  UNL     1      32.593  21.152  39.018  1.00  0.00     0.210 HD
ENDBRANCH   5  10
BRANCH   6  12
HETATM   12  O6  UNL     1      33.091  24.165  41.184  1.00  0.00    -0.390 OA
ATOM     13  H6  UNL     1      32.556  23.771  41.863  1.00  0.00     0.210 HD
ENDBRANCH   6  12
ENDBRANCH   1   2
BRANCH   1  14
HETATM   14  O2  UNL     1      36.619  22.050  40.850  1.00  0.00    -0.382 OA
ATOM     15  H2  UNL     1      37.407  21.786  41.309  1.00  0.00     0.211 HD
ENDBRANCH   1  14
BRANCH   1  16
HETATM   16  C7  UNL     1      35.854  23.455  42.576  1.00  0.00     0.153 C
HETATM   17  C8  UNL     1      36.613  22.633  43.591  1.00  0.00     0.042 C
BRANCH  16  18
HETATM   18  O3  UNL     1      35.640  24.771  42.979  1.00  0.00    -0.393 OA
ATOM     19  H3  UNL     1      36.118  24.995  43.769  1.00  0.00     0.210 HD
ENDBRANCH  16  18
ENDBRANCH   1  16
BRANCH   1  20
HETATM   20  C9  UNL     1      37.542  24.303  40.917  1.00  0.00     0.181 C
BRANCH  20  21
HETATM   21  O4  UNL     1      37.173  25.321  40.078  1.00  0.00    -0.390 OA
ATOM     22  H4  UNL     1      37.924  25.757  39.692  1.00  0.00     0.210 HD
ENDBRANCH  20  21
BRANCH  20  23
HETATM   23  C10 UNL     1      38.853  23.734  40.543  1.00  0.00     0.203 C
BRANCH  23  24
HETATM   24  O5  UNL     1      39.528  22.938  41.389  1.00  0.00    -0.384 OA
BRANCH  24  25
HETATM   25  C11 UNL     1      40.052  23.410  42.543  1.00  0.00     0.113 C
HETATM   26  C12 UNL     1      41.264  24.286  42.230  1.00  0.00     0.039 C
HETATM   27  C13 UNL     1      40.609  22.305  43.438  1.00  0.00     0.039 C
ENDBRANCH  24  25
ENDBRANCH  23  24
ENDBRANCH  20  23
ENDBRANCH   1  20
TORSDOF 12
ENDMDL