MODEL 5
REMARK VINA RESULT: -5.809814341      1.455      2.518
REMARK  11 active torsions:
REMARK  status: ('A' for Active; 'I' for Inactive)
REMARK    1  A    between atoms: C3_3  and  C4_4
REMARK    2  A    between atoms: C5_5  and  C6_6
REMARK    3  A    between atoms: C6_6  and  C7_8
REMARK    4  A    between atoms: C7_8  and  C9_10
REMARK    5  A    between atoms: C9_10  and  O2_11
REMARK    6  A    between atoms: C9_10  and  C10_13
REMARK    7  A    between atoms: C10_13  and  O3_14
REMARK    8  A    between atoms: C10_13  and  C12_16
REMARK    9  A    between atoms: C12_16  and  O4_17
REMARK   10  A    between atoms: C14_23  and  O5_24
REMARK   11  A    between atoms: C15_26  and  O6_27
ROOT
HETATM    1  C10 UNL     1      40.049  25.811  39.428  1.00  0.00     0.216 C
ENDROOT
BRANCH   1   2
HETATM    2  C9  UNL     1      39.392  25.488  40.714  1.00  0.00     0.163 C
BRANCH   2   3
HETATM    3  C7  UNL     1      40.159  24.696  41.697  1.00  0.00     0.087 C
HETATM    4  C8  UNL     1      41.614  24.573  41.324  1.00  0.00     0.021 C
BRANCH   3   5
HETATM    5  C6  UNL     1      39.642  23.316  41.854  1.00  0.00     0.155 C
HETATM    6  O1  UNL     1      39.676  22.560  40.867  1.00  0.00    -0.293 OA
BRANCH   5   7
HETATM    7  C5  UNL     1      39.107  22.842  43.114  1.00  0.00     0.050 C
HETATM    8  C4  UNL     1      37.867  22.713  43.471  1.00  0.00     0.003 C
BRANCH   8   9
HETATM    9  C3  UNL     1      36.673  22.999  42.732  1.00  0.00    -0.004 C
HETATM   10  C2  UNL     1      35.974  24.101  42.967  1.00  0.00    -0.031 C
HETATM   11  C1  UNL     1      34.742  24.426  42.228  1.00  0.00     0.036 C
ENDBRANCH   8   9
ENDBRANCH   5   7
ENDBRANCH   3   5
ENDBRANCH   2   3
BRANCH   2  12
HETATM   12  O2  UNL     1      38.153  24.913  40.394  1.00  0.00    -0.392 OA
ATOM     13  H2  UNL     1      38.226  24.017  40.086  1.00  0.00     0.210 HD
ENDBRANCH   2  12
ENDBRANCH   1   2
BRANCH   1  14
HETATM   14  O3  UNL     1      39.792  24.906  38.434  1.00  0.00    -0.383 OA
HETATM   15  C11 UNL     1      40.970  24.416  37.819  1.00  0.00     0.202 C
ENDBRANCH   1  14
BRANCH   1  16
HETATM   16  C12 UNL     1      39.973  27.256  38.990  1.00  0.00     0.281 C
HETATM   17  N1  UNL     1      39.380  28.026  40.098  1.00  0.00    -0.035 N
HETATM   18  C13 UNL     1      39.917  29.349  40.023  1.00  0.00     0.270 C
ATOM     19  H12 UNL     1      38.361  28.008  40.098  1.00  0.00     0.281 HD
ATOM     20  H11 UNL     1      39.518  27.589  41.009  1.00  0.00     0.281 HD
HETATM   21  C14 UNL     1      41.345  29.190  39.549  1.00  0.00     0.177 C
HETATM   22  C15 UNL     1      41.268  27.915  38.700  1.00  0.00     0.214 C
BRANCH  16  23
HETATM   23  O4  UNL     1      39.039  27.411  37.951  1.00  0.00    -0.361 OA
ATOM     24  H4  UNL     1      38.607  28.254  38.013  1.00  0.00     0.212 HD
ENDBRANCH  16  23
BRANCH  21  25
HETATM   25  O5  UNL     1      41.811  30.266  38.834  1.00  0.00    -0.391 OA
ATOM     26  H5  UNL     1      41.681  30.186  37.897  1.00  0.00     0.210 HD
ENDBRANCH  21  25
BRANCH  22  27
HETATM   27  O6  UNL     1      41.377  28.272  37.329  1.00  0.00    -0.388 OA
ATOM     28  H6  UNL     1      40.653  28.822  37.051  1.00  0.00     0.210 HD
ENDBRANCH  22  27
ENDBRANCH   1  16
TORSDOF 11
ENDMDL