MODEL 4
REMARK VINA RESULT: -8.995104254      1.027      1.243
REMARK  12 active torsions:
REMARK  status: ('A' for Active; 'I' for Inactive)
REMARK    1  A    between atoms: C2_2  and  C3_3
REMARK    2  A    between atoms: C3_3  and  C4_4
REMARK    3  A    between atoms: C4_4  and  N1_5
REMARK    4  A    between atoms: N1_5  and  C5_6
REMARK    5  A    between atoms: N1_5  and  C16_24
REMARK    6  A    between atoms: C5_6  and  C6_7
REMARK    7  A    between atoms: C6_7  and  N2_8
REMARK    8  A    between atoms: C9_14  and  C10_15
REMARK    9  A    between atoms: C16_24  and  C17_25
REMARK   10  A    between atoms: C17_25  and  O1_26
REMARK   11  A    between atoms: O1_26  and  C18_27
REMARK   12  A    between atoms: C25_34  and  N6_35
ROOT
HETATM    1  N1  UNL     1       8.853  38.973  -3.058  1.00  0.00     0.095 N
ENDROOT
BRANCH   1   2
HETATM    2  C4  UNL     1       9.653  38.355  -2.073  1.00  0.00     0.273 C
BRANCH   2   3
HETATM    3  C3  UNL     1       9.022  37.225  -1.342  1.00  0.00     0.030 C
BRANCH   3   4
HETATM    4  C2  UNL     1       8.930  37.373   0.124  1.00  0.00    -0.003 C
HETATM    5  C1  UNL     1       9.680  38.553   0.627  1.00  0.00     0.005 C
ENDBRANCH   3   4
ENDBRANCH   2   3
ENDBRANCH   1   2
BRANCH   1   6
HETATM    6  C5  UNL     1       9.149  38.700  -4.431  1.00  0.00     0.317 C
BRANCH   6   7
HETATM    7  C6  UNL     1      10.615  38.406  -4.651  1.00  0.00     0.109 C
BRANCH   7   8
HETATM    8  N2  UNL     1      11.295  39.432  -5.281  1.00  0.00    -0.204 N
HETATM    9  C7  UNL     1      11.873  39.560  -6.413  1.00  0.00     0.682 A
HETATM   10  N3  UNL     1      12.487  40.718  -6.800  1.00  0.00    -0.199 N
HETATM   11  N5  UNL     1      12.037  38.709  -7.443  1.00  0.00    -0.190 N
HETATM   12  C8  UNL     1      12.993  40.545  -8.016  1.00  0.00     0.137 A
ATOM     13  H3  UNL     1      12.548  41.573  -6.247  1.00  0.00     0.183 HD
HETATM   14  C9  UNL     1      12.716  39.265  -8.447  1.00  0.00     0.075 A
ATOM     15  H5  UNL     1      11.684  37.753  -7.454  1.00  0.00     0.184 HD
ATOM     16  H2  UNL     1      11.346  40.278  -4.713  1.00  0.00     0.183 HD
BRANCH  14  17
HETATM   17  C10 UNL     1      13.133  38.753  -9.732  1.00  0.00    -0.007 A
HETATM   18  C11 UNL     1      13.634  39.558 -10.729  1.00  0.00     0.015 A
HETATM   19  C12 UNL     1      14.042  39.101 -11.961  1.00  0.00     0.027 A
HETATM   20  C13 UNL     1      13.945  37.733 -12.225  1.00  0.00     0.046 A
HETATM   21  N4  UNL     1      14.370  37.258 -13.497  1.00  0.00    -0.102 NA
HETATM   22  C14 UNL     1      13.452  36.910 -11.251  1.00  0.00     0.027 A
HETATM   23  C15 UNL     1      13.047  37.410 -10.015  1.00  0.00     0.015 A
ENDBRANCH  14  17
ENDBRANCH   7   8
ENDBRANCH   6   7
ENDBRANCH   1   6
BRANCH   1  24
HETATM   24  C16 UNL     1       8.667  40.405  -2.844  1.00  0.00     0.299 C
BRANCH  24  25
HETATM   25  C17 UNL     1       8.221  41.184  -4.014  1.00  0.00     0.206 C
BRANCH  25  26
HETATM   26  O1  UNL     1       7.380  42.249  -3.891  1.00  0.00    -0.349 OA
BRANCH  26  27
HETATM   27  C18 UNL     1       6.045  42.407  -4.106  1.00  0.00     0.069 A
HETATM   28  C19 UNL     1       5.686  43.397  -5.037  1.00  0.00     0.039 A
HETATM   29  C20 UNL     1       4.352  43.633  -5.318  1.00  0.00     0.032 A
HETATM   30  C21 UNL     1       3.357  42.911  -4.697  1.00  0.00     0.034 A
HETATM   31  C22 UNL     1       3.692  41.944  -3.787  1.00  0.00    -0.027 A
HETATM   32  N7  UNL     1       1.984  43.132  -4.948  1.00  0.00    -0.387 N
HETATM   33  C23 UNL     1       5.028  41.694  -3.495  1.00  0.00     0.046 A
HETATM   34  C24 UNL     1       2.656  41.164  -3.117  1.00  0.00     0.075 C
HETATM   35  C25 UNL     1       1.372  41.890  -2.904  1.00  0.00     0.205 C
HETATM   36  C26 UNL     1       1.020  42.931  -3.901  1.00  0.00     0.153 C
ATOM     37  H7  UNL     1       1.678  43.434  -5.873  1.00  0.00     0.159 HD
BRANCH  35  38
HETATM   38  N6  UNL     1       1.390  42.542  -1.582  1.00  0.00    -0.073 N
ATOM     39  H63 UNL     1       0.619  42.234  -0.990  1.00  0.00     0.274 HD
ATOM     40  H62 UNL     1       2.160  42.213  -1.000  1.00  0.00     0.274 HD
ATOM     41  H61 UNL     1       1.403  43.554  -1.702  1.00  0.00     0.274 HD
ENDBRANCH  35  38
ENDBRANCH  26  27
ENDBRANCH  25  26
ENDBRANCH  24  25
ENDBRANCH   1  24
TORSDOF 12
ENDMDL