MODEL 1
REMARK VINA RESULT: -8.552146496      0.000      0.000
REMARK  17 active torsions:
REMARK  status: ('A' for Active; 'I' for Inactive)
REMARK    1  A    between atoms: C4_4  and  C5_5
REMARK    2  A    between atoms: C5_5  and  C7_7
REMARK    3  A    between atoms: C8_8  and  C9_9
REMARK    4  A    between atoms: C10_10  and  O1_11
REMARK    5  A    between atoms: C12_14  and  O2_15
REMARK    6  A    between atoms: C14_18  and  C15_19
REMARK    7  A    between atoms: C15_19  and  C16_20
REMARK    8  A    between atoms: C17_21  and  C18_22
REMARK    9  A    between atoms: C18_22  and  C19_23
REMARK   10  A    between atoms: C19_23  and  C20_24
REMARK   11  A    between atoms: C20_24  and  C21_25
REMARK   12  A    between atoms: C21_25  and  C22_26
REMARK   13  A    between atoms: C22_26  and  C23_27
REMARK   14  A    between atoms: C23_27  and  O3_28
REMARK   15  A    between atoms: C23_27  and  C24_30
REMARK   16  A    between atoms: C26_33  and  O5_34
REMARK   17  A    between atoms: C27_36  and  O6_37
ROOT
HETATM    1  C15 UNL     1      13.479  36.913 -11.500  1.00  0.00     0.032 C
ENDROOT
BRANCH   1   2
HETATM    2  C14 UNL     1      13.955  37.852 -12.596  1.00  0.00     0.001 C
HETATM    3  C9  UNL     1      15.213  38.550 -12.255  1.00  0.00     0.041 C
HETATM    4  C10 UNL     1      16.307  38.420 -13.282  1.00  0.00     0.128 C
HETATM    5  C11 UNL     1      16.379  37.156 -14.033  1.00  0.00     0.064 C
HETATM    6  C12 UNL     1      15.200  36.243 -13.939  1.00  0.00     0.121 C
HETATM    7  C13 UNL     1      13.963  37.115 -13.895  1.00  0.00     0.037 C
BRANCH   3   8
HETATM    8  C8  UNL     1      14.978  39.977 -11.919  1.00  0.00    -0.022 C
HETATM    9  C7  UNL     1      15.682  40.585 -10.994  1.00  0.00    -0.022 C
BRANCH   9  10
HETATM   10  C5  UNL     1      15.526  41.999 -10.587  1.00  0.00     0.026 C
HETATM   11  C6  UNL     1      14.816  42.808 -11.663  1.00  0.00     0.018 C
BRANCH  10  12
HETATM   12  C4  UNL     1      14.751  42.157  -9.346  1.00  0.00    -0.017 C
HETATM   13  C2  UNL     1      15.191  42.975  -8.400  1.00  0.00    -0.091 C
HETATM   14  C1  UNL     1      14.435  43.160  -7.135  1.00  0.00     0.042 C
HETATM   15  C3  UNL     1      16.463  43.747  -8.566  1.00  0.00     0.042 C
ENDBRANCH  10  12
ENDBRANCH   9  10
ENDBRANCH   3   8
BRANCH   4  16
HETATM   16  O1  UNL     1      16.145  39.481 -14.174  1.00  0.00    -0.395 OA
ATOM     17  H1  UNL     1      16.983  39.606 -14.603  1.00  0.00     0.210 HD
ENDBRANCH   4  16
BRANCH   6  18
HETATM   18  O2  UNL     1      15.196  35.453 -15.103  1.00  0.00    -0.395 OA
ATOM     19  H2  UNL     1      15.134  34.547 -14.824  1.00  0.00     0.210 HD
ENDBRANCH   6  18
ENDBRANCH   1   2
BRANCH   1  20
HETATM   20  C16 UNL     1      14.325  36.915 -10.308  1.00  0.00    -0.030 C
HETATM   21  C17 UNL     1      14.026  37.446  -9.163  1.00  0.00    -0.031 C
BRANCH  21  22
HETATM   22  C18 UNL     1      12.758  38.147  -8.888  1.00  0.00     0.027 C
BRANCH  22  23
HETATM   23  C19 UNL     1      13.144  39.508  -8.321  1.00  0.00     0.004 C
BRANCH  23  24
HETATM   24  C20 UNL     1      12.268  39.924  -7.166  1.00  0.00     0.000 C
BRANCH  24  25
HETATM   25  C21 UNL     1      11.227  38.902  -6.853  1.00  0.00     0.002 C
BRANCH  25  26
HETATM   26  C22 UNL     1      11.337  38.369  -5.440  1.00  0.00     0.034 C
BRANCH  26  27
HETATM   27  C23 UNL     1      10.039  38.454  -4.693  1.00  0.00     0.149 C
BRANCH  27  28
HETATM   28  O3  UNL     1       9.009  37.776  -5.343  1.00  0.00    -0.393 OA
ATOM     29  H3  UNL     1       8.874  38.089  -6.230  1.00  0.00     0.210 HD
ENDBRANCH  27  28
BRANCH  27  30
HETATM   30  C24 UNL     1      10.139  37.902  -3.297  1.00  0.00     0.181 C
HETATM   31  O4  UNL     1       9.012  37.194  -2.899  1.00  0.00    -0.378 OA
HETATM   32  C25 UNL     1       9.305  36.904  -1.575  1.00  0.00     0.202 C
HETATM   33  C26 UNL     1       9.654  38.274  -1.017  1.00  0.00     0.173 C
HETATM   34  C27 UNL     1      10.285  38.945  -2.226  1.00  0.00     0.180 C
BRANCH  33  35
HETATM   35  O5  UNL     1      10.561  38.079   0.012  1.00  0.00    -0.391 OA
ATOM     36  H5  UNL     1      10.062  38.015   0.818  1.00  0.00     0.210 HD
ENDBRANCH  33  35
BRANCH  34  37
HETATM   37  O6  UNL     1      11.638  39.148  -1.904  1.00  0.00    -0.390 OA
ATOM     38  H6  UNL     1      11.796  38.979  -0.983  1.00  0.00     0.210 HD
ENDBRANCH  34  37
ENDBRANCH  27  30
ENDBRANCH  26  27
ENDBRANCH  25  26
ENDBRANCH  24  25
ENDBRANCH  23  24
ENDBRANCH  22  23
ENDBRANCH  21  22
ENDBRANCH   1  20
TORSDOF 17
ENDMDL