MODEL 1
REMARK VINA RESULT: -6.356492625      0.000      0.000
REMARK  15 active torsions:
REMARK  status: ('A' for Active; 'I' for Inactive)
REMARK    1  A    between atoms: C2_2  and  C3_3
REMARK    2  A    between atoms: C2_2  and  C4_6
REMARK    3  A    between atoms: C3_3  and  O1_4
REMARK    4  A    between atoms: C5_7  and  C6_8
REMARK    5  A    between atoms: C8_13  and  O5_14
REMARK    6  A    between atoms: C9_16  and  O6_17
REMARK    7  A    between atoms: C10_19  and  O7_21
REMARK    8  A    between atoms: C12_23  and  C13_24
REMARK    9  A    between atoms: C13_24  and  C14_25
REMARK   10  A    between atoms: C15_26  and  C17_28
REMARK   11  A    between atoms: C17_28  and  C18_29
REMARK   12  A    between atoms: C18_29  and  C19_30
REMARK   13  A    between atoms: C19_30  and  C20_31
REMARK   14  A    between atoms: C20_31  and  C21_32
REMARK   15  A    between atoms: C21_32  and  C22_33
ROOT
HETATM    1  C4  UNL     1      15.412  38.171 -12.919  1.00  0.00     0.056 C
HETATM    2  C5  UNL     1      14.475  37.789 -14.075  1.00  0.00     0.238 C
HETATM    3  O4  UNL     1      14.538  36.441 -14.414  1.00  0.00    -0.371 OA
HETATM    4  C7  UNL     1      14.011  35.742 -13.324  1.00  0.00     0.212 C
HETATM    5  C8  UNL     1      14.904  36.010 -12.162  1.00  0.00     0.137 C
HETATM    6  C9  UNL     1      16.127  36.836 -12.589  1.00  0.00     0.174 C
HETATM    7  C10 UNL     1      14.271  36.954 -11.174  1.00  0.00     0.095 C
HETATM    8  C11 UNL     1      12.782  36.739 -11.047  1.00  0.00     0.049 C
HETATM    9  C12 UNL     1      14.618  38.347 -11.708  1.00  0.00     0.045 C
ENDROOT
BRANCH   9  10
HETATM   10  C13 UNL     1      14.987  39.247 -10.611  1.00  0.00     0.036 C
BRANCH  10  11
HETATM   11  C14 UNL     1      14.136  40.373 -10.270  1.00  0.00    -0.024 C
HETATM   12  C15 UNL     1      13.234  40.351  -9.296  1.00  0.00    -0.087 C
HETATM   13  C16 UNL     1      13.011  39.131  -8.448  1.00  0.00     0.043 C
BRANCH  12  14
HETATM   14  C17 UNL     1      12.384  41.560  -8.986  1.00  0.00     0.033 C
BRANCH  14  15
HETATM   15  C18 UNL     1      12.390  41.845  -7.511  1.00  0.00     0.004 C
BRANCH  15  16
HETATM   16  C19 UNL     1      13.691  42.362  -7.007  1.00  0.00     0.001 C
BRANCH  16  17
HETATM   17  C20 UNL     1      13.968  43.787  -7.355  1.00  0.00     0.004 C
BRANCH  17  18
HETATM   18  C21 UNL     1      15.388  44.041  -7.766  1.00  0.00     0.027 C
BRANCH  18  19
HETATM   19  C22 UNL     1      15.847  43.101  -8.833  1.00  0.00    -0.025 C
HETATM   20  C23 UNL     1      16.989  43.244  -9.454  1.00  0.00    -0.091 C
HETATM   21  C24 UNL     1      17.945  44.361  -9.158  1.00  0.00     0.042 C
HETATM   22  C25 UNL     1      17.381  42.269 -10.507  1.00  0.00     0.042 C
ENDBRANCH  18  19
ENDBRANCH  17  18
ENDBRANCH  16  17
ENDBRANCH  15  16
ENDBRANCH  14  15
ENDBRANCH  12  14
ENDBRANCH  10  11
ENDBRANCH   9  10
BRANCH   1  23
HETATM   23  C2  UNL     1      16.433  39.145 -13.299  1.00  0.00    -0.051 C
HETATM   24  C1  UNL     1      16.300  40.429 -13.523  1.00  0.00     0.017 C
BRANCH  23  25
HETATM   25  C3  UNL     1      17.836  38.606 -13.519  1.00  0.00     0.198 C
BRANCH  25  26
HETATM   26  O1  UNL     1      18.140  38.588 -14.909  1.00  0.00    -0.397 OA
ATOM     27  H1  UNL     1      19.050  38.352 -15.041  1.00  0.00     0.209 HD
ENDBRANCH  25  26
ENDBRANCH  23  25
ENDBRANCH   1  23
BRANCH   7  28
HETATM   28  O7  UNL     1      14.839  36.672  -9.953  1.00  0.00    -0.387 OA
ATOM     29  H7  UNL     1      14.118  36.522  -9.353  1.00  0.00     0.210 HD
ENDBRANCH   7  28
BRANCH   2  30
HETATM   30  C6  UNL     1      14.583  38.660 -15.258  1.00  0.00     0.204 C
HETATM   31  O2  UNL     1      15.374  38.476 -16.203  1.00  0.00    -0.646 OA
HETATM   32  O3  UNL     1      13.760  39.777 -15.358  1.00  0.00    -0.646 OA
ENDBRANCH   2  30
BRANCH   6  33
HETATM   33  O6  UNL     1      16.707  36.254 -13.698  1.00  0.00    -0.391 OA
ATOM     34  H6  UNL     1      16.185  36.360 -14.484  1.00  0.00     0.210 HD
ENDBRANCH   6  33
BRANCH   5  35
HETATM   35  O5  UNL     1      15.319  34.849 -11.517  1.00  0.00    -0.382 OA
ATOM     36  H5  UNL     1      15.105  34.842 -10.592  1.00  0.00     0.211 HD
ENDBRANCH   5  35
TORSDOF 15
ENDMDL