MODEL 5
REMARK VINA RESULT: -7.500762040      3.801      6.170
REMARK  14 active torsions:
REMARK  status: ('A' for Active; 'I' for Inactive)
REMARK    1  A    between atoms: C2_2  and  C3_3
REMARK    2  A    between atoms: C3_3  and  C4_4
REMARK    3  A    between atoms: C4_4  and  C5_5
REMARK    4  A    between atoms: C5_5  and  C6_6
REMARK    5  A    between atoms: C6_6  and  C7_7
REMARK    6  A    between atoms: C7_7  and  N1_8
REMARK    7  A    between atoms: N1_8  and  C8_10
REMARK    8  A    between atoms: C9_11  and  O1_12
REMARK    9  A    between atoms: C10_16  and  N3_17
REMARK   10  A    between atoms: N3_17  and  C11_19
REMARK   11  A    between atoms: C15_26  and  C16_27
REMARK   12  A    between atoms: C16_27  and  C17_28
REMARK   13  A    between atoms: C19_30  and  N5_31
REMARK       I    between atoms: N5_31  and  C20_33
REMARK   14  A    between atoms: C20_33  and  C21_35
ROOT
HETATM    1  C8  UNL     1      13.569  36.872 -12.409  1.00  0.00     0.107 A
HETATM    2  C9  UNL     1      13.271  35.671 -13.006  1.00  0.00     0.171 A
HETATM    3  N2  UNL     1      13.486  35.472 -14.341  1.00  0.00    -0.321 N
ATOM      4  H2  UNL     1      13.254  34.568 -14.752  1.00  0.00     0.169 HD
HETATM    5  C10 UNL     1      13.993  36.436 -15.121  1.00  0.00     0.112 A
HETATM    6  C15 UNL     1      14.297  37.641 -14.531  1.00  0.00     0.015 A
HETATM    7  C19 UNL     1      14.092  37.894 -13.148  1.00  0.00     0.075 A
ENDROOT
BRANCH   7   8
HETATM    8  N5  UNL     1      14.479  39.001 -12.742  1.00  0.00    -0.324 N
HETATM    9  C20 UNL     1      14.049  40.239 -12.429  1.00  0.00     0.233 C
HETATM   10  O2  UNL     1      13.587  41.047 -13.269  1.00  0.00    -0.272 OA
ATOM     11  H5  UNL     1      15.487  38.958 -12.593  1.00  0.00     0.169 HD
BRANCH   9  12
HETATM   12  C21 UNL     1      14.086  40.790 -11.014  1.00  0.00     0.147 C
HETATM   13  C22 UNL     1      13.599  42.248 -11.070  1.00  0.00     0.022 C
HETATM   14  C23 UNL     1      14.145  42.851  -9.792  1.00  0.00     0.008 C
HETATM   15  C24 UNL     1      15.317  41.969  -9.384  1.00  0.00     0.079 C
HETATM   16  C25 UNL     1      15.458  40.987 -10.526  1.00  0.00     0.140 C
HETATM   17  O3  UNL     1      16.537  40.559 -10.835  1.00  0.00    -0.297 OA
ENDBRANCH   9  12
ENDBRANCH   7   8
BRANCH   1  18
HETATM   18  N1  UNL     1      13.307  36.975 -11.027  1.00  0.00    -0.385 N
ATOM     19  H1  UNL     1      12.350  37.163 -10.730  1.00  0.00     0.159 HD
BRANCH  18  20
HETATM   20  C7  UNL     1      14.318  36.830 -10.012  1.00  0.00     0.120 C
BRANCH  20  21
HETATM   21  C6  UNL     1      14.324  37.820  -8.912  1.00  0.00     0.020 C
BRANCH  21  22
HETATM   22  C5  UNL     1      12.853  38.236  -8.714  1.00  0.00     0.002 C
BRANCH  22  23
HETATM   23  C4  UNL     1      12.516  38.265  -7.241  1.00  0.00     0.000 C
BRANCH  23  24
HETATM   24  C3  UNL     1      11.693  39.456  -6.864  1.00  0.00    -0.000 C
BRANCH  24  25
HETATM   25  C2  UNL     1      12.390  40.764  -7.182  1.00  0.00    -0.005 C
HETATM   26  C1  UNL     1      11.392  41.824  -7.593  1.00  0.00     0.005 C
ENDBRANCH  24  25
ENDBRANCH  23  24
ENDBRANCH  22  23
ENDBRANCH  21  22
ENDBRANCH  20  21
ENDBRANCH  18  20
ENDBRANCH   1  18
BRANCH   6  27
HETATM   27  C16 UNL     1      14.897  38.707 -15.375  1.00  0.00     0.044 C
BRANCH  27  28
HETATM   28  C17 UNL     1      16.413  38.656 -15.382  1.00  0.00     0.000 C
HETATM   29  C18 UNL     1      17.007  40.018 -15.122  1.00  0.00     0.005 C
ENDBRANCH  27  28
ENDBRANCH   6  27
BRANCH   2  30
HETATM   30  O1  UNL     1      12.741  34.614 -12.278  1.00  0.00    -0.344 OA
ATOM     31  H1  UNL     1      12.280  33.901 -12.705  1.00  0.00     0.219 HD
ENDBRANCH   2  30
BRANCH   5  32
HETATM   32  N3  UNL     1      14.159  36.204 -16.504  1.00  0.00    -0.369 N
ATOM     33  H3  UNL     1      13.528  36.731 -17.109  1.00  0.00     0.161 HD
BRANCH  32  34
HETATM   34  C11 UNL     1      15.064  35.355 -17.179  1.00  0.00     0.110 C
HETATM   35  C12 UNL     1      16.368  35.084 -16.494  1.00  0.00     0.054 C
HETATM   36  C13 UNL     1      16.809  33.786 -17.133  1.00  0.00     0.234 C
HETATM   37  N4  UNL     1      15.619  33.041 -17.392  1.00  0.00    -0.073 N
HETATM   38  C14 UNL     1      14.556  34.025 -17.591  1.00  0.00     0.257 C
ATOM     39  H42 UNL     1      15.712  32.384 -18.165  1.00  0.00     0.277 HD
ATOM     40  H41 UNL     1      15.404  32.355 -16.668  1.00  0.00     0.277 HD
ENDBRANCH  32  34
ENDBRANCH   5  32
TORSDOF 14
ENDMDL