MODEL 4
REMARK VINA RESULT: -6.107798548      1.341      3.896
REMARK  17 active torsions:
REMARK  status: ('A' for Active; 'I' for Inactive)
REMARK    1  A    between atoms: C2_2  and  C3_3
REMARK    2  A    between atoms: C2_2  and  C18_27
REMARK    3  A    between atoms: C3_3  and  C4_4
REMARK    4  A    between atoms: C4_4  and  C5_5
REMARK    5  A    between atoms: C6_6  and  O1_7
REMARK    6  A    between atoms: C8_10  and  O2_11
REMARK    7  A    between atoms: C12_16  and  O3_17
REMARK    8  A    between atoms: C17_24  and  O5_25
REMARK    9  A    between atoms: C18_27  and  C19_28
REMARK   10  A    between atoms: C19_28  and  C20_29
REMARK   11  A    between atoms: C20_29  and  C21_30
REMARK   12  A    between atoms: C21_30  and  C22_31
REMARK   13  A    between atoms: C22_31  and  C23_32
REMARK   14  A    between atoms: C23_32  and  C24_33
REMARK   15  A    between atoms: C24_33  and  C25_34
REMARK   16  A    between atoms: C25_34  and  C26_35
REMARK   17  A    between atoms: C26_35  and  O6_36
ROOT
HETATM    1  C5  UNL     1      12.871  39.884  -9.204  1.00  0.00     0.055 C
HETATM    2  C6  UNL     1      12.157  40.173  -7.937  1.00  0.00     0.128 C
HETATM    3  C7  UNL     1      11.327  41.391  -8.280  1.00  0.00     0.072 C
HETATM    4  C8  UNL     1      12.158  42.600  -8.344  1.00  0.00     0.086 C
HETATM    5  C9  UNL     1      11.269  43.763  -8.746  1.00  0.00     0.011 C
HETATM    6  C10 UNL     1      10.017  43.784  -7.870  1.00  0.00     0.020 C
HETATM    7  C11 UNL     1      11.865  45.113  -8.500  1.00  0.00     0.020 C
HETATM    8  C12 UNL     1      10.875  43.712 -10.194  1.00  0.00     0.136 C
HETATM    9  C13 UNL     1      12.070  43.562 -11.080  1.00  0.00     0.111 C
HETATM   10  C14 UNL     1      13.321  43.327 -10.326  1.00  0.00     0.143 C
HETATM   11  O4  UNL     1      14.341  43.879 -10.641  1.00  0.00    -0.297 OA
HETATM   12  C15 UNL     1      13.372  42.387  -9.138  1.00  0.00     0.075 C
HETATM   13  C16 UNL     1      14.669  42.746  -8.396  1.00  0.00     0.029 C
HETATM   14  C17 UNL     1      13.679  41.044  -9.703  1.00  0.00     0.144 C
ENDROOT
BRANCH   1  15
HETATM   15  C4  UNL     1      13.759  38.670  -8.948  1.00  0.00     0.095 C
BRANCH  15  16
HETATM   16  C3  UNL     1      13.840  37.759  -9.796  1.00  0.00    -0.149 C
BRANCH  16  17
HETATM   17  C2  UNL     1      13.941  36.709 -10.730  1.00  0.00    -0.027 C
HETATM   18  C1  UNL     1      15.073  35.992 -10.636  1.00  0.00     0.027 C
BRANCH  17  19
HETATM   19  C18 UNL     1      13.002  36.472 -11.827  1.00  0.00     0.046 C
BRANCH  19  20
HETATM   20  C19 UNL     1      13.296  35.395 -12.776  1.00  0.00     0.005 C
BRANCH  20  21
HETATM   21  C20 UNL     1      13.812  35.781 -14.107  1.00  0.00     0.000 C
BRANCH  21  22
HETATM   22  C21 UNL     1      13.953  37.319 -14.151  1.00  0.00     0.000 C
BRANCH  22  23
HETATM   23  C22 UNL     1      15.373  37.717 -14.074  1.00  0.00     0.000 C
BRANCH  23  24
HETATM   24  C23 UNL     1      15.596  38.930 -13.188  1.00  0.00     0.000 C
BRANCH  24  25
HETATM   25  C24 UNL     1      14.349  39.703 -13.044  1.00  0.00     0.002 C
BRANCH  25  26
HETATM   26  C25 UNL     1      14.525  41.199 -13.157  1.00  0.00     0.026 C
BRANCH  26  27
HETATM   27  C26 UNL     1      15.906  41.718 -13.053  1.00  0.00     0.164 C
BRANCH  27  28
HETATM   28  O6  UNL     1      16.318  42.112 -11.788  1.00  0.00    -0.401 OA
ATOM     29  H6  UNL     1      16.472  41.415 -11.161  1.00  0.00     0.209 HD
ENDBRANCH  27  28
ENDBRANCH  26  27
ENDBRANCH  25  26
ENDBRANCH  24  25
ENDBRANCH  23  24
ENDBRANCH  22  23
ENDBRANCH  21  22
ENDBRANCH  20  21
ENDBRANCH  19  20
ENDBRANCH  17  19
ENDBRANCH  16  17
ENDBRANCH  15  16
ENDBRANCH   1  15
BRANCH   2  30
HETATM   30  O1  UNL     1      12.875  40.225  -6.798  1.00  0.00    -0.395 OA
ATOM     31  H1  UNL     1      13.821  40.170  -6.859  1.00  0.00     0.210 HD
ENDBRANCH   2  30
BRANCH  14  32
HETATM   32  O5  UNL     1      15.009  40.649  -9.580  1.00  0.00    -0.394 OA
ATOM     33  H5  UNL     1      15.168  40.064 -10.311  1.00  0.00     0.210 HD
ENDBRANCH  14  32
BRANCH   4  34
HETATM   34  O2  UNL     1      12.602  42.953  -7.051  1.00  0.00    -0.388 OA
ATOM     35  H2  UNL     1      12.573  42.197  -6.477  1.00  0.00     0.210 HD
ENDBRANCH   4  34
BRANCH   8  36
HETATM   36  O3  UNL     1       9.807  42.875 -10.496  1.00  0.00    -0.394 OA
ATOM     37  H3  UNL     1       9.970  42.233 -11.176  1.00  0.00     0.210 HD
ENDBRANCH   8  36
TORSDOF 17
ENDMDL