MODEL 4
REMARK VINA RESULT: -7.242510431      2.228      5.877
REMARK  16 active torsions:
REMARK  status: ('A' for Active; 'I' for Inactive)
REMARK    1  A    between atoms: C2_3  and  O1_4
REMARK    2  A    between atoms: O1_4  and  C3_5
REMARK    3  A    between atoms: C3_5  and  C4_7
REMARK    4  A    between atoms: C4_7  and  C5_8
REMARK    5  A    between atoms: C5_8  and  C6_9
REMARK    6  A    between atoms: C6_9  and  C7_10
REMARK    7  A    between atoms: C10_13  and  O3_14
REMARK    8  A    between atoms: C12_17  and  O4_18
REMARK    9  A    between atoms: C13_20  and  C14_21
REMARK   10  A    between atoms: C14_21  and  C15_22
REMARK   11  A    between atoms: C16_23  and  C17_24
REMARK   12  A    between atoms: C17_24  and  C18_25
REMARK   13  A    between atoms: C18_25  and  N2_26
REMARK   14  A    between atoms: N2_26  and  C19_29
REMARK   15  A    between atoms: C19_29  and  C20_30
REMARK   16  A    between atoms: C20_30  and  O5_31
ROOT
HETATM    1  N1  UNL     1       9.792  37.041  -2.099  1.00  0.00    -0.189 NA
HETATM    2  C1  UNL     1       9.628  37.903  -2.880  1.00  0.00     0.125 C
HETATM    3  C2  UNL     1       9.413  38.948  -3.822  1.00  0.00     0.161 C
HETATM    4  C21 UNL     1       9.021  40.129  -3.396  1.00  0.00    -0.035 C
HETATM    5  C22 UNL     1       8.795  41.225  -4.373  1.00  0.00     0.038 C
HETATM    6  C23 UNL     1       7.645  42.115  -4.001  1.00  0.00     0.004 C
HETATM    7  C24 UNL     1       7.537  42.398  -2.535  1.00  0.00     0.001 C
HETATM    8  C25 UNL     1       8.739  41.895  -1.762  1.00  0.00     0.004 C
HETATM    9  C26 UNL     1       8.794  40.399  -1.931  1.00  0.00     0.038 C
ENDROOT
BRANCH   3  10
HETATM   10  O1  UNL     1       9.617  38.710  -5.160  1.00  0.00    -0.267 OA
BRANCH  10  11
HETATM   11  C3  UNL     1      10.818  38.411  -5.755  1.00  0.00     0.264 C
HETATM   12  O2  UNL     1      11.319  37.286  -5.533  1.00  0.00    -0.265 OA
BRANCH  11  13
HETATM   13  C4  UNL     1      11.545  39.361  -6.646  1.00  0.00     0.112 C
BRANCH  13  14
HETATM   14  C5  UNL     1      12.800  38.680  -7.133  1.00  0.00     0.013 C
BRANCH  14  15
HETATM   15  C6  UNL     1      13.122  39.002  -8.563  1.00  0.00     0.028 C
BRANCH  15  16
HETATM   16  C7  UNL     1      12.862  37.889  -9.498  1.00  0.00    -0.023 C
HETATM   17  C8  UNL     1      13.435  37.697 -10.658  1.00  0.00    -0.074 C
HETATM   18  C9  UNL     1      13.081  36.539 -11.495  1.00  0.00     0.066 C
HETATM   19  C13 UNL     1      14.454  38.629 -11.169  1.00  0.00     0.046 C
HETATM   20  C10 UNL     1      14.333  35.726 -11.708  1.00  0.00     0.124 C
HETATM   21  C11 UNL     1      15.573  36.528 -11.909  1.00  0.00     0.064 C
HETATM   22  C12 UNL     1      15.225  37.927 -12.292  1.00  0.00     0.129 C
BRANCH  20  23
HETATM   23  O3  UNL     1      14.179  34.851 -12.799  1.00  0.00    -0.395 OA
ATOM     24  H3  UNL     1      14.145  33.949 -12.505  1.00  0.00     0.210 HD
ENDBRANCH  20  23
BRANCH  22  25
HETATM   25  O4  UNL     1      14.535  37.979 -13.499  1.00  0.00    -0.395 OA
ATOM     26  H4  UNL     1      15.037  38.420 -14.175  1.00  0.00     0.210 HD
ENDBRANCH  22  25
BRANCH  19  27
HETATM   27  C14 UNL     1      13.887  39.891 -11.759  1.00  0.00     0.038 C
BRANCH  27  28
HETATM   28  C15 UNL     1      14.817  41.004 -11.432  1.00  0.00    -0.030 C
HETATM   29  C16 UNL     1      15.151  41.299 -10.180  1.00  0.00    -0.029 C
BRANCH  29  30
HETATM   30  C17 UNL     1      16.075  42.404  -9.836  1.00  0.00     0.054 C
BRANCH  30  31
HETATM   31  C18 UNL     1      15.637  43.054  -8.549  1.00  0.00     0.236 C
BRANCH  31  32
HETATM   32  N2  UNL     1      14.349  42.512  -8.188  1.00  0.00    -0.073 N
ATOM     33  H22 UNL     1      13.978  41.936  -8.944  1.00  0.00     0.277 HD
ATOM     34  H21 UNL     1      14.450  41.800  -7.463  1.00  0.00     0.277 HD
BRANCH  32  35
HETATM   35  C19 UNL     1      13.391  43.498  -7.792  1.00  0.00     0.258 C
BRANCH  35  36
HETATM   36  C20 UNL     1      14.103  44.771  -7.419  1.00  0.00     0.191 C
BRANCH  36  37
HETATM   37  O5  UNL     1      13.909  44.982  -6.055  1.00  0.00    -0.399 OA
ATOM     38  H5  UNL     1      13.755  44.137  -5.650  1.00  0.00     0.209 HD
ENDBRANCH  36  37
ENDBRANCH  35  36
ENDBRANCH  32  35
ENDBRANCH  31  32
ENDBRANCH  30  31
ENDBRANCH  29  30
ENDBRANCH  27  28
ENDBRANCH  19  27
ENDBRANCH  15  16
ENDBRANCH  14  15
ENDBRANCH  13  14
ENDBRANCH  11  13
ENDBRANCH  10  11
ENDBRANCH   3  10
TORSDOF 16
ENDMDL