MODEL 5
REMARK VINA RESULT: -7.450411019      3.837      9.768
REMARK  13 active torsions:
REMARK  status: ('A' for Active; 'I' for Inactive)
REMARK    1  A    between atoms: C2_2  and  C3_3
REMARK    2  A    between atoms: C3_3  and  C4_4
REMARK    3  A    between atoms: C4_4  and  C5_5
REMARK    4  A    between atoms: C5_5  and  N1_6
REMARK    5  A    between atoms: N1_6  and  C6_8
REMARK    6  A    between atoms: C10_16  and  N5_17
REMARK    7  A    between atoms: N5_17  and  C11_19
REMARK    8  A    between atoms: C14_22  and  C15_23
REMARK    9  A    between atoms: C15_23  and  N6_24
REMARK   10  A    between atoms: N6_24  and  C16_26
REMARK   11  A    between atoms: C16_26  and  C17_27
REMARK   12  A    between atoms: C17_27  and  C18_28
REMARK   13  A    between atoms: C18_28  and  N7_29
ROOT
HETATM    1  C6  UNL     1      14.054  38.062  -9.147  1.00  0.00     0.681 A
HETATM    2  N2  UNL     1      13.279  37.589  -8.185  1.00  0.00    -0.177 N
ATOM      3  H2  UNL     1      13.302  36.593  -7.964  1.00  0.00     0.185 HD
HETATM    4  C7  UNL     1      12.464  38.401  -7.496  1.00  0.00     0.156 A
HETATM    5  N3  UNL     1      11.616  37.924  -6.453  1.00  0.00    -0.080 NA
HETATM    6  C8  UNL     1      12.393  39.765  -7.757  1.00  0.00     0.130 A
HETATM    7  C9  UNL     1      11.531  40.654  -7.037  1.00  0.00     0.107 C
HETATM    8  N4  UNL     1      10.823  41.369  -6.430  1.00  0.00    -0.191 NA
HETATM    9  C10 UNL     1      13.204  40.242  -8.760  1.00  0.00     0.145 A
HETATM   10  N8  UNL     1      14.002  39.400  -9.423  1.00  0.00    -0.175 N
ATOM     11  H8  UNL     1      14.596  39.770 -10.164  1.00  0.00     0.186 HD
ENDROOT
BRANCH   9  12
HETATM   12  N5  UNL     1      13.159  41.499  -9.020  1.00  0.00    -0.341 N
ATOM     13  H5  UNL     1      12.281  41.926  -9.314  1.00  0.00     0.167 HD
BRANCH  12  14
HETATM   14  C11 UNL     1      14.321  42.292  -8.899  1.00  0.00     0.033 A
HETATM   15  C12 UNL     1      14.498  43.126  -7.821  1.00  0.00     0.030 A
HETATM   16  C13 UNL     1      15.669  43.894  -7.754  1.00  0.00     0.011 A
HETATM   17  C14 UNL     1      16.622  43.825  -8.726  1.00  0.00    -0.041 A
HETATM   18  C24 UNL     1      16.439  42.989  -9.802  1.00  0.00     0.011 A
HETATM   19  C25 UNL     1      15.280  42.221  -9.883  1.00  0.00     0.030 A
BRANCH  17  20
HETATM   20  C15 UNL     1      17.863  44.636  -8.660  1.00  0.00     0.152 C
BRANCH  20  21
HETATM   21  N6  UNL     1      17.650  45.692  -7.726  1.00  0.00    -0.417 N
ATOM     22  H6  UNL     1      16.840  45.707  -7.106  1.00  0.00     0.153 HD
BRANCH  21  23
HETATM   23  C16 UNL     1      18.633  46.730  -7.706  1.00  0.00     0.115 C
BRANCH  23  24
HETATM   24  C17 UNL     1      19.291  46.829  -9.059  1.00  0.00     0.049 C
BRANCH  24  25
HETATM   25  C18 UNL     1      20.789  46.729  -8.942  1.00  0.00     0.274 C
BRANCH  25  26
HETATM   26  N7  UNL     1      21.330  45.600  -9.644  1.00  0.00     0.088 N
HETATM   27  C19 UNL     1      21.493  44.494  -8.761  1.00  0.00     0.272 C
HETATM   28  C20 UNL     1      21.906  43.219  -9.461  1.00  0.00     0.030 C
HETATM   29  C21 UNL     1      20.724  42.880 -10.370  1.00  0.00     0.003 C
HETATM   30  C22 UNL     1      20.650  43.980 -11.392  1.00  0.00     0.030 C
HETATM   31  C23 UNL     1      20.655  45.348 -10.865  1.00  0.00     0.272 C
ENDBRANCH  25  26
ENDBRANCH  24  25
ENDBRANCH  23  24
ENDBRANCH  21  23
ENDBRANCH  20  21
ENDBRANCH  17  20
ENDBRANCH  12  14
ENDBRANCH   9  12
BRANCH   1  32
HETATM   32  N1  UNL     1      14.861  37.357  -9.855  1.00  0.00    -0.226 N
ATOM     33  H1  UNL     1      15.843  37.626  -9.808  1.00  0.00     0.177 HD
BRANCH  32  34
HETATM   34  C5  UNL     1      14.562  36.251 -10.693  1.00  0.00     0.138 C
BRANCH  34  35
HETATM   35  C4  UNL     1      13.356  36.493 -11.579  1.00  0.00     0.020 C
BRANCH  35  36
HETATM   36  C3  UNL     1      13.299  35.537 -12.734  1.00  0.00     0.001 C
BRANCH  36  37
HETATM   37  C2  UNL     1      14.050  36.008 -13.938  1.00  0.00    -0.004 C
HETATM   38  C1  UNL     1      13.248  35.566 -15.170  1.00  0.00     0.005 C
ENDBRANCH  36  37
ENDBRANCH  35  36
ENDBRANCH  34  35
ENDBRANCH  32  34
ENDBRANCH   1  32
TORSDOF 13
ENDMDL