MODEL 4
REMARK VINA RESULT: -7.786696760      1.532      4.206
REMARK  13 active torsions:
REMARK  status: ('A' for Active; 'I' for Inactive)
REMARK    1  A    between atoms: C2_2  and  C3_3
REMARK    2  A    between atoms: C3_3  and  C4_4
REMARK    3  A    between atoms: C4_4  and  C5_5
REMARK    4  A    between atoms: C5_5  and  C6_6
REMARK    5  A    between atoms: C6_6  and  N1_7
REMARK    6  A    between atoms: N1_7  and  C7_9
REMARK    7  A    between atoms: N3_13  and  C9_15
REMARK    8  A    between atoms: C9_15  and  C10_16
REMARK    9  A    between atoms: C10_16  and  C11_17
REMARK   10  A    between atoms: N6_26  and  C16_27
REMARK   11  A    between atoms: C19_30  and  N7_31
REMARK   12  A    between atoms: N7_31  and  C20_33
REMARK   13  A    between atoms: C20_33  and  C21_34
ROOT
HETATM    1  C7  UNL     1      11.672  38.950  -5.734  1.00  0.00     0.151 A
HETATM    2  N2  UNL     1      12.442  38.056  -6.367  1.00  0.00    -0.174 N
ATOM      3  H2  UNL     1      12.674  37.180  -5.897  1.00  0.00     0.186 HD
HETATM    4  C8  UNL     1      12.919  38.277  -7.604  1.00  0.00     0.681 A
HETATM    5  N3  UNL     1      13.661  37.413  -8.207  1.00  0.00    -0.226 N
ATOM      6  H3  UNL     1      13.888  36.540  -7.729  1.00  0.00     0.177 HD
HETATM    7  N4  UNL     1      12.606  39.430  -8.208  1.00  0.00    -0.174 N
ATOM      8  H4  UNL     1      12.964  39.607  -9.146  1.00  0.00     0.186 HD
HETATM    9  C13 UNL     1      11.823  40.379  -7.613  1.00  0.00     0.155 A
HETATM   10  C14 UNL     1      11.341  40.156  -6.364  1.00  0.00     0.123 A
HETATM   11  N5  UNL     1      10.614  41.205  -5.992  1.00  0.00    -0.346 N
ATOM     12  H5  UNL     1      10.125  41.328  -5.106  1.00  0.00     0.167 HD
HETATM   13  C15 UNL     1      10.655  42.079  -7.033  1.00  0.00     0.185 A
HETATM   14  N6  UNL     1      11.390  41.585  -8.028  1.00  0.00    -0.322 N
ENDROOT
BRANCH  14  15
HETATM   15  C16 UNL     1      11.727  42.121  -9.317  1.00  0.00     0.094 C
HETATM   16  C17 UNL     1      12.351  43.478  -9.111  1.00  0.00     0.028 C
HETATM   17  C18 UNL     1      13.498  43.599 -10.104  1.00  0.00     0.027 C
HETATM   18  C19 UNL     1      13.349  42.375 -10.950  1.00  0.00     0.079 C
HETATM   19  C25 UNL     1      12.892  41.346  -9.952  1.00  0.00     0.050 C
BRANCH  18  20
HETATM   20  N7  UNL     1      14.481  42.021 -11.712  1.00  0.00    -0.412 N
ATOM     21  H7  UNL     1      14.714  42.510 -12.576  1.00  0.00     0.153 HD
BRANCH  20  22
HETATM   22  C20 UNL     1      15.281  40.957 -11.230  1.00  0.00     0.171 C
BRANCH  22  23
HETATM   23  C21 UNL     1      15.327  39.880 -12.244  1.00  0.00     0.026 A
HETATM   24  C22 UNL     1      14.379  39.583 -13.201  1.00  0.00     0.028 A
HETATM   25  C23 UNL     1      14.811  38.508 -13.943  1.00  0.00     0.019 A
HETATM   26  C24 UNL     1      16.027  38.147 -13.436  1.00  0.00     0.088 A
HETATM   27  N8  UNL     1      16.307  38.986 -12.422  1.00  0.00    -0.368 N
ATOM     28  H8  UNL     1      17.158  38.945 -11.861  1.00  0.00     0.165 HD
ENDBRANCH  22  23
ENDBRANCH  20  22
ENDBRANCH  18  20
ENDBRANCH  14  15
BRANCH   1  29
HETATM   29  N1  UNL     1      11.246  38.694  -4.562  1.00  0.00    -0.354 N
ATOM     30  H1  UNL     1      11.940  38.768  -3.818  1.00  0.00     0.166 HD
BRANCH  29  31
HETATM   31  C6  UNL     1       9.952  38.324  -4.146  1.00  0.00     0.062 C
BRANCH  31  32
HETATM   32  C5  UNL     1       9.825  38.213  -2.672  1.00  0.00     0.044 C
BRANCH  32  33
HETATM   33  C4  UNL     1       9.433  36.881  -2.166  1.00  0.00     0.005 C
BRANCH  33  34
HETATM   34  C3  UNL     1       9.215  36.824  -0.691  1.00  0.00     0.000 C
BRANCH  34  35
HETATM   35  C2  UNL     1       9.777  38.110  -0.044  1.00  0.00    -0.005 C
HETATM   36  C1  UNL     1       9.212  38.326   1.329  1.00  0.00     0.005 C
ENDBRANCH  34  35
ENDBRANCH  33  34
ENDBRANCH  32  33
ENDBRANCH  31  32
ENDBRANCH  29  31
ENDBRANCH   1  29
BRANCH   5  37
HETATM   37  C9  UNL     1      14.183  37.636  -9.540  1.00  0.00     0.138 C
BRANCH  37  38
HETATM   38  C10 UNL     1      13.296  36.969 -10.572  1.00  0.00     0.020 C
BRANCH  38  39
HETATM   39  C11 UNL     1      14.139  35.958 -11.340  1.00  0.00    -0.003 C
HETATM   40  C12 UNL     1      13.318  35.424 -12.491  1.00  0.00     0.005 C
ENDBRANCH  38  39
ENDBRANCH  37  38
ENDBRANCH   5  37
TORSDOF 13
ENDMDL