MODEL 3
REMARK VINA RESULT: -7.985190513      3.902     10.082
REMARK  14 active torsions:
REMARK  status: ('A' for Active; 'I' for Inactive)
REMARK    1  A    between atoms: C2_2  and  C3_3
REMARK    2  A    between atoms: C3_3  and  C4_4
REMARK    3  A    between atoms: C4_4  and  C5_5
REMARK    4  A    between atoms: C4_4  and  N1_16
REMARK    5  A    between atoms: C5_5  and  C6_6
REMARK    6  A    between atoms: C9_10  and  O2_11
REMARK    7  A    between atoms: C10_13  and  O3_14
REMARK    8  A    between atoms: N1_16  and  C11_18
REMARK    9  A    between atoms: C11_18  and  C12_19
REMARK   10  A    between atoms: C12_19  and  C13_20
REMARK   11  A    between atoms: C13_20  and  C14_21
REMARK   12  A    between atoms: C13_20  and  N3_32
REMARK   13  A    between atoms: C14_21  and  N2_22
REMARK   14  A    between atoms: N3_32  and  C24_34
ROOT
HETATM    1  C12 UNL     1      11.874  37.908  -5.912  1.00  0.00     0.046 C
ENDROOT
BRANCH   1   2
HETATM    2  C11 UNL     1      10.498  38.245  -5.288  1.00  0.00     0.121 C
BRANCH   2   3
HETATM    3  N1  UNL     1      10.581  38.217  -3.889  1.00  0.00    -0.396 N
ATOM      4  H1  UNL     1      11.505  38.308  -3.464  1.00  0.00     0.159 HD
BRANCH   3   5
HETATM    5  C4  UNL     1       9.481  38.072  -3.032  1.00  0.00    -0.016 C
BRANCH   5   6
HETATM    6  C3  UNL     1       9.607  37.444  -1.702  1.00  0.00     0.052 C
BRANCH   6   7
HETATM    7  C2  UNL     1      10.493  38.195  -0.758  1.00  0.00     0.001 C
HETATM    8  C1  UNL     1       9.618  38.557   0.471  1.00  0.00     0.005 C
ENDBRANCH   6   7
ENDBRANCH   5   6
BRANCH   5   9
HETATM    9  C5  UNL     1       8.536  39.245  -3.127  1.00  0.00     0.086 C
BRANCH   9  10
HETATM   10  C6  UNL     1       9.026  40.620  -3.125  1.00  0.00     0.158 C
HETATM   11  O1  UNL     1       8.573  41.193  -4.342  1.00  0.00    -0.375 OA
HETATM   12  C7  UNL     1       7.599  42.102  -4.063  1.00  0.00     0.149 C
HETATM   13  C8  UNL     1       6.229  41.531  -3.857  1.00  0.00     0.042 C
HETATM   14  C9  UNL     1       8.080  42.801  -2.802  1.00  0.00     0.178 C
HETATM   15  C10 UNL     1       8.616  41.553  -2.052  1.00  0.00     0.178 C
BRANCH  14  16
HETATM   16  O2  UNL     1       9.099  43.662  -3.137  1.00  0.00    -0.390 OA
ATOM     17  H2  UNL     1       9.244  44.258  -2.412  1.00  0.00     0.210 HD
ENDBRANCH  14  16
BRANCH  15  18
HETATM   18  O3  UNL     1       9.715  42.087  -1.329  1.00  0.00    -0.390 OA
ATOM     19  H3  UNL     1       9.499  42.307  -0.430  1.00  0.00     0.210 HD
ENDBRANCH  15  18
ENDBRANCH   9  10
ENDBRANCH   5   9
ENDBRANCH   3   5
ENDBRANCH   2   3
ENDBRANCH   1   2
BRANCH   1  20
HETATM   20  C13 UNL     1      12.186  38.856  -7.058  1.00  0.00     0.112 C
BRANCH  20  21
HETATM   21  C14 UNL     1      13.147  38.235  -8.012  1.00  0.00     0.297 C
BRANCH  21  22
HETATM   22  N2  UNL     1      12.969  38.421  -9.387  1.00  0.00     0.090 N
HETATM   23  C15 UNL     1      14.104  39.263  -9.842  1.00  0.00     0.273 C
HETATM   24  C16 UNL     1      13.944  39.605 -11.287  1.00  0.00     0.035 C
HETATM   25  C17 UNL     1      14.267  38.357 -12.083  1.00  0.00    -0.007 C
HETATM   26  C18 UNL     1      15.676  38.332 -12.604  1.00  0.00     0.005 C
HETATM   27  C22 UNL     1      14.078  37.169 -11.166  1.00  0.00     0.018 C
HETATM   28  C19 UNL     1      16.100  36.870 -12.723  1.00  0.00     0.000 C
HETATM   29  C20 UNL     1      14.926  35.986 -13.122  1.00  0.00     0.000 C
HETATM   30  C21 UNL     1      13.831  35.978 -12.066  1.00  0.00     0.007 C
HETATM   31  C23 UNL     1      12.830  37.358 -10.292  1.00  0.00     0.277 C
ENDBRANCH  21  22
ENDBRANCH  20  21
BRANCH  20  32
HETATM   32  N3  UNL     1      12.485  40.190  -6.674  1.00  0.00    -0.374 N
ATOM     33  H3  UNL     1      13.299  40.369  -6.086  1.00  0.00     0.161 HD
BRANCH  32  34
HETATM   34  C24 UNL     1      11.667  41.296  -7.094  1.00  0.00     0.066 C
HETATM   35  C25 UNL     1      11.933  42.021  -8.381  1.00  0.00     0.088 C
HETATM   36  N4  UNL     1      10.666  41.726  -6.408  1.00  0.00    -0.389 N
ATOM     37  H42 UNL     1      10.485  41.233  -5.534  1.00  0.00     0.157 HD
ATOM     38  H41 UNL     1      10.086  42.510  -6.706  1.00  0.00     0.157 HD
ENDBRANCH  32  34
ENDBRANCH  20  32
ENDBRANCH   1  20
TORSDOF 14
ENDMDL