MODEL 4
REMARK VINA RESULT: -7.523952305      2.655      6.909
REMARK  12 active torsions:
REMARK  status: ('A' for Active; 'I' for Inactive)
REMARK    1  A    between atoms: O1_3  and  C2_4
REMARK    2  A    between atoms: C4_6  and  O2_7
REMARK    3  A    between atoms: C6_12  and  C7_13
REMARK    4  A    between atoms: C7_13  and  C8_14
REMARK    5  A    between atoms: C8_14  and  C9_15
REMARK    6  A    between atoms: C9_15  and  C10_16
REMARK    7  A    between atoms: C10_16  and  C11_17
REMARK    8  A    between atoms: C11_17  and  N3_18
REMARK       I    between atoms: N3_18  and  C12_20
REMARK    9  A    between atoms: C13_25  and  S1_26
REMARK   10  A    between atoms: S1_26  and  C14_27
REMARK   11  A    between atoms: C14_27  and  C15_28
REMARK   12  A    between atoms: C15_28  and  N6_29
ROOT
HETATM    1  N1  UNL     1      13.100  37.448 -18.008  1.00  0.00    -0.164 NA
HETATM    2  C1  UNL     1      13.815  37.051 -17.166  1.00  0.00     0.234 C
HETATM    3  O1  UNL     1      14.656  36.603 -16.186  1.00  0.00    -0.240 OA
ENDROOT
BRANCH   3   4
HETATM    4  C2  UNL     1      14.275  36.672 -14.845  1.00  0.00     0.092 A
HETATM    5  C3  UNL     1      13.797  35.534 -14.232  1.00  0.00     0.077 A
HETATM    6  C4  UNL     1      13.410  35.558 -12.906  1.00  0.00     0.096 A
HETATM    7  C5  UNL     1      13.485  36.704 -12.157  1.00  0.00     0.077 A
HETATM    8  N2  UNL     1      13.168  36.993 -10.862  1.00  0.00    -0.355 N
HETATM    9  C21 UNL     1      13.959  37.850 -12.752  1.00  0.00     0.015 A
HETATM   10  C6  UNL     1      13.415  38.278 -10.591  1.00  0.00     0.027 A
ATOM     11  H2  UNL     1      12.794  36.320 -10.192  1.00  0.00     0.166 HD
HETATM   12  C13 UNL     1      13.914  38.815 -11.787  1.00  0.00     0.035 A
HETATM   13  C22 UNL     1      14.352  37.825 -14.096  1.00  0.00     0.053 A
BRANCH   6  14
HETATM   14  O2  UNL     1      12.939  34.398 -12.331  1.00  0.00    -0.358 OA
ATOM     15  H2  UNL     1      12.009  34.320 -12.154  1.00  0.00     0.217 HD
ENDBRANCH   6  14
BRANCH  10  16
HETATM   16  C7  UNL     1      13.257  39.046  -9.329  1.00  0.00     0.058 C
BRANCH  16  17
HETATM   17  C8  UNL     1      12.792  38.247  -8.182  1.00  0.00     0.006 C
BRANCH  17  18
HETATM   18  C9  UNL     1      12.009  39.023  -7.176  1.00  0.00     0.002 C
BRANCH  18  19
HETATM   19  C10 UNL     1      11.635  38.181  -5.971  1.00  0.00     0.020 C
BRANCH  19  20
HETATM   20  C11 UNL     1      10.706  38.874  -5.022  1.00  0.00     0.122 C
BRANCH  20  21
HETATM   21  N3  UNL     1      11.174  38.713  -3.669  1.00  0.00    -0.365 N
HETATM   22  C12 UNL     1      10.264  38.480  -2.616  1.00  0.00     0.181 C
HETATM   23  N4  UNL     1      10.261  37.317  -2.057  1.00  0.00    -0.374 N
HETATM   24  N5  UNL     1       9.345  39.448  -2.121  1.00  0.00    -0.064 NA
ATOM     25  H42 UNL     1      10.920  36.622  -2.412  1.00  0.00     0.158 HD
ATOM     26  H41 UNL     1       9.604  37.147  -1.296  1.00  0.00     0.158 HD
ATOM     27  H3  UNL     1      12.172  38.768  -3.471  1.00  0.00     0.162 HD
ENDBRANCH  20  21
ENDBRANCH  19  20
ENDBRANCH  18  19
ENDBRANCH  17  18
ENDBRANCH  16  17
ENDBRANCH  10  16
BRANCH  12  28
HETATM   28  S1  UNL     1      14.384  40.524 -11.952  1.00  0.00    -0.125 SA
BRANCH  28  29
HETATM   29  C14 UNL     1      15.988  40.703 -11.082  1.00  0.00     0.099 C
BRANCH  29  30
HETATM   30  C15 UNL     1      15.954  41.784 -10.050  1.00  0.00     0.136 C
BRANCH  30  31
HETATM   31  N6  UNL     1      17.225  42.481 -10.090  1.00  0.00    -0.351 N
HETATM   32  C16 UNL     1      18.361  42.002 -10.844  1.00  0.00     0.126 C
HETATM   33  C17 UNL     1      19.554  42.908 -10.534  1.00  0.00     0.020 C
HETATM   34  C18 UNL     1      19.180  44.332 -10.893  1.00  0.00     0.011 C
HETATM   35  C19 UNL     1      18.239  44.831  -9.816  1.00  0.00     0.103 C
HETATM   36  C20 UNL     1      17.389  43.710  -9.356  1.00  0.00     0.219 C
HETATM   37  O3  UNL     1      16.764  43.833  -8.250  1.00  0.00    -0.273 OA
ENDBRANCH  30  31
ENDBRANCH  29  30
ENDBRANCH  28  29
ENDBRANCH  12  28
ENDBRANCH   3   4
TORSDOF 12
ENDMDL