MODEL 4
REMARK VINA RESULT: -7.243717255      1.405      2.922
REMARK  13 active torsions:
REMARK  status: ('A' for Active; 'I' for Inactive)
REMARK    1  A    between atoms: C2_2  and  C3_3
REMARK    2  A    between atoms: C3_3  and  C4_4
REMARK    3  A    between atoms: C4_4  and  C5_5
REMARK    4  A    between atoms: C5_5  and  C6_6
REMARK    5  A    between atoms: C6_6  and  C7_7
REMARK    6  A    between atoms: C7_7  and  C8_8
REMARK    7  A    between atoms: C8_8  and  C9_9
REMARK    8  A    between atoms: C9_9  and  C10_10
REMARK    9  A    between atoms: N3_16  and  C12_17
REMARK   10  A    between atoms: C13_19  and  C14_20
REMARK   11  A    between atoms: C14_20  and  O2_21
REMARK   12  A    between atoms: C15_23  and  O3_24
REMARK   13  A    between atoms: C16_26  and  O4_27
ROOT
HETATM    1  C10 UNL     1      12.070  40.147  -7.688  1.00  0.00     0.084 A
HETATM    2  N1  UNL     1      12.577  38.945  -7.446  1.00  0.00    -0.328 N
ATOM      3  H1  UNL     1      13.274  38.473  -8.021  1.00  0.00     0.169 HD
HETATM    4  C11 UNL     1      12.028  38.444  -6.325  1.00  0.00     0.168 A
HETATM    5  N2  UNL     1      11.683  37.680  -5.275  1.00  0.00    -0.276 N
ATOM      6  H2  UNL     1      11.967  36.757  -4.947  1.00  0.00     0.189 HD
HETATM    7  N3  UNL     1      10.832  38.591  -4.831  1.00  0.00    -0.239 N
HETATM    8  C17 UNL     1      11.150  39.393  -5.871  1.00  0.00     0.172 A
HETATM    9  N4  UNL     1      11.200  40.426  -6.731  1.00  0.00    -0.328 N
ATOM     10  H4  UNL     1      10.655  41.284  -6.657  1.00  0.00     0.169 HD
ENDROOT
BRANCH   7  11
HETATM   11  C12 UNL     1       9.915  38.753  -3.723  1.00  0.00     0.278 C
HETATM   12  O1  UNL     1       9.552  37.508  -3.173  1.00  0.00    -0.352 OA
HETATM   13  C13 UNL     1       8.973  37.852  -1.950  1.00  0.00     0.179 C
HETATM   14  C15 UNL     1       9.814  38.960  -1.382  1.00  0.00     0.182 C
HETATM   15  C16 UNL     1      10.655  39.382  -2.584  1.00  0.00     0.200 C
BRANCH  13  16
HETATM   16  C14 UNL     1       8.928  36.709  -0.981  1.00  0.00     0.198 C
BRANCH  16  17
HETATM   17  O2  UNL     1       8.436  35.601  -1.636  1.00  0.00    -0.398 OA
ATOM     18  H2  UNL     1       7.769  35.202  -1.091  1.00  0.00     0.209 HD
ENDBRANCH  16  17
ENDBRANCH  13  16
BRANCH  14  19
HETATM   19  O3  UNL     1       8.930  40.002  -1.036  1.00  0.00    -0.390 OA
ATOM     20  H3  UNL     1       9.301  40.802  -1.388  1.00  0.00     0.210 HD
ENDBRANCH  14  19
BRANCH  15  21
HETATM   21  O4  UNL     1      11.940  38.872  -2.512  1.00  0.00    -0.388 OA
ATOM     22  H4  UNL     1      11.961  38.117  -1.934  1.00  0.00     0.210 HD
ENDBRANCH  15  21
ENDBRANCH   7  11
BRANCH   1  23
HETATM   23  C9  UNL     1      12.481  40.973  -8.872  1.00  0.00     0.076 C
BRANCH  23  24
HETATM   24  C8  UNL     1      13.782  40.490  -9.446  1.00  0.00     0.007 C
BRANCH  24  25
HETATM   25  C7  UNL     1      13.740  40.339 -10.941  1.00  0.00     0.000 C
BRANCH  25  26
HETATM   26  C6  UNL     1      14.240  38.971 -11.354  1.00  0.00     0.000 C
BRANCH  26  27
HETATM   27  C5  UNL     1      13.387  37.870 -10.771  1.00  0.00     0.000 C
BRANCH  27  28
HETATM   28  C4  UNL     1      14.231  36.676 -10.408  1.00  0.00     0.000 C
BRANCH  28  29
HETATM   29  C3  UNL     1      14.563  35.862 -11.628  1.00  0.00    -0.000 C
BRANCH  29  30
HETATM   30  C2  UNL     1      13.314  35.508 -12.367  1.00  0.00    -0.005 C
HETATM   31  C1  UNL     1      13.408  35.854 -13.841  1.00  0.00     0.005 C
ENDBRANCH  29  30
ENDBRANCH  28  29
ENDBRANCH  27  28
ENDBRANCH  26  27
ENDBRANCH  25  26
ENDBRANCH  24  25
ENDBRANCH  23  24
ENDBRANCH   1  23
TORSDOF 13
ENDMDL