MODEL 1
REMARK VINA RESULT: -6.703198210      0.000      0.000
REMARK  14 active torsions:
REMARK  status: ('A' for Active; 'I' for Inactive)
REMARK    1  A    between atoms: N1_1  and  C1_5
REMARK    2  A    between atoms: C2_6  and  C3_7
REMARK    3  A    between atoms: C3_7  and  C4_8
REMARK    4  A    between atoms: C5_9  and  C6_10
REMARK    5  A    between atoms: C6_10  and  C7_11
REMARK    6  A    between atoms: C7_11  and  C8_12
REMARK    7  A    between atoms: C8_12  and  C9_13
REMARK    8  A    between atoms: C9_13  and  C10_14
REMARK    9  A    between atoms: C10_14  and  S1_15
REMARK   10  A    between atoms: S1_15  and  C11_16
REMARK   11  A    between atoms: C15_22  and  C16_23
REMARK   12  A    between atoms: C16_23  and  O1_24
REMARK   13  A    between atoms: C17_26  and  O2_27
REMARK   14  A    between atoms: C18_29  and  O3_30
ROOT
HETATM    1  C1  UNL     1      14.332  36.200 -12.582  1.00  0.00     0.236 C
HETATM    2  C2  UNL     1      13.395  37.231 -12.023  1.00  0.00     0.113 C
HETATM    3  N2  UNL     1      14.087  38.503 -12.043  1.00  0.00    -0.406 N
ATOM      4  H2  UNL     1      14.221  39.049 -11.192  1.00  0.00     0.154 HD
HETATM    5  C15 UNL     1      14.565  38.953 -13.287  1.00  0.00     0.132 C
HETATM    6  C17 UNL     1      15.124  37.905 -14.195  1.00  0.00     0.173 C
HETATM    7  C18 UNL     1      14.501  36.570 -14.070  1.00  0.00     0.181 C
ENDROOT
BRANCH   2   8
HETATM    8  C3  UNL     1      13.024  37.001 -10.570  1.00  0.00     0.053 C
BRANCH   8   9
HETATM    9  C4  UNL     1      14.061  37.403  -9.632  1.00  0.00    -0.029 C
HETATM   10  C5  UNL     1      13.921  38.105  -8.539  1.00  0.00    -0.031 C
BRANCH  10  11
HETATM   11  C6  UNL     1      12.638  38.620  -8.067  1.00  0.00     0.027 C
BRANCH  11  12
HETATM   12  C7  UNL     1      12.268  38.081  -6.692  1.00  0.00     0.004 C
BRANCH  12  13
HETATM   13  C8  UNL     1      11.126  38.851  -6.109  1.00  0.00     0.001 C
BRANCH  13  14
HETATM   14  C9  UNL     1      10.894  38.417  -4.680  1.00  0.00     0.010 C
BRANCH  14  15
HETATM   15  C10 UNL     1       9.436  38.375  -4.310  1.00  0.00     0.074 C
BRANCH  15  16
HETATM   16  S1  UNL     1       9.223  38.947  -2.629  1.00  0.00    -0.164 SA
BRANCH  16  17
HETATM   17  C11 UNL     1      10.202  38.070  -1.412  1.00  0.00     0.047 C
HETATM   18  C12 UNL     1       9.885  36.568  -1.518  1.00  0.00     0.015 C
HETATM   19  C13 UNL     1       8.746  36.816  -0.553  1.00  0.00     0.002 C
HETATM   20  C14 UNL     1       9.586  37.979  -0.009  1.00  0.00     0.015 C
ENDBRANCH  16  17
ENDBRANCH  15  16
ENDBRANCH  14  15
ENDBRANCH  13  14
ENDBRANCH  12  13
ENDBRANCH  11  12
ENDBRANCH  10  11
ENDBRANCH   8   9
ENDBRANCH   2   8
BRANCH   1  21
HETATM   21  N1  UNL     1      13.832  34.839 -12.496  1.00  0.00    -0.070 N
ATOM     22  H13 UNL     1      13.677  34.575 -11.523  1.00  0.00     0.274 HD
ATOM     23  H12 UNL     1      12.874  34.787 -12.843  1.00  0.00     0.274 HD
ATOM     24  H11 UNL     1      14.421  34.151 -12.964  1.00  0.00     0.274 HD
ENDBRANCH   1  21
BRANCH   7  25
HETATM   25  O3  UNL     1      15.281  35.601 -14.700  1.00  0.00    -0.391 OA
ATOM     26  H3  UNL     1      15.116  35.625 -15.635  1.00  0.00     0.210 HD
ENDBRANCH   7  25
BRANCH   5  27
HETATM   27  C16 UNL     1      15.658  39.979 -13.046  1.00  0.00     0.191 C
BRANCH  27  28
HETATM   28  O1  UNL     1      15.936  40.648 -14.260  1.00  0.00    -0.399 OA
ATOM     29  H1  UNL     1      16.661  41.246 -14.124  1.00  0.00     0.209 HD
ENDBRANCH  27  28
ENDBRANCH   5  27
BRANCH   6  30
HETATM   30  O2  UNL     1      16.504  37.794 -14.073  1.00  0.00    -0.391 OA
ATOM     31  H2  UNL     1      16.753  37.074 -13.506  1.00  0.00     0.210 HD
ENDBRANCH   6  30
TORSDOF 14
ENDMDL