MODEL 4
REMARK VINA RESULT: -6.906525920      1.134      1.642
REMARK  14 active torsions:
REMARK  status: ('A' for Active; 'I' for Inactive)
REMARK    1  A    between atoms: O1_1  and  C1_3
REMARK    2  A    between atoms: C1_3  and  C2_4
REMARK    3  A    between atoms: C3_5  and  O2_6
REMARK    4  A    between atoms: C4_8  and  O3_9
REMARK    5  A    between atoms: C5_11  and  O4_12
REMARK    6  A    between atoms: N1_15  and  C7_16
REMARK    7  A    between atoms: C7_16  and  C8_17
REMARK    8  A    between atoms: C8_17  and  C9_18
REMARK    9  A    between atoms: C9_18  and  C10_19
REMARK   10  A    between atoms: C10_19  and  C11_20
REMARK   11  A    between atoms: C11_20  and  C12_21
REMARK   12  A    between atoms: C12_21  and  C13_22
REMARK   13  A    between atoms: C13_22  and  C14_23
REMARK   14  A    between atoms: C19_28  and  O5_29
ROOT
HETATM    1  C2  UNL     1      10.107  37.897  -2.426  1.00  0.00     0.277 C
HETATM    2  C3  UNL     1      10.393  39.013  -1.487  1.00  0.00     0.184 C
HETATM    3  C4  UNL     1       9.391  40.129  -1.494  1.00  0.00     0.179 C
HETATM    4  C5  UNL     1       8.891  40.443  -2.866  1.00  0.00     0.177 C
HETATM    5  C6  UNL     1       8.584  39.256  -3.716  1.00  0.00     0.307 C
HETATM    6  N1  UNL     1       9.679  38.305  -3.742  1.00  0.00     0.100 N
ENDROOT
BRANCH   6   7
HETATM    7  C7  UNL     1      10.747  38.914  -4.504  1.00  0.00     0.273 C
BRANCH   7   8
HETATM    8  C8  UNL     1      11.187  38.143  -5.699  1.00  0.00     0.030 C
BRANCH   8   9
HETATM    9  C9  UNL     1      11.430  38.973  -6.936  1.00  0.00     0.002 C
BRANCH   9  10
HETATM   10  C10 UNL     1      11.684  40.384  -6.531  1.00  0.00     0.000 C
BRANCH  10  11
HETATM   11  C11 UNL     1      12.692  41.005  -7.435  1.00  0.00     0.000 C
BRANCH  11  12
HETATM   12  C12 UNL     1      12.409  40.742  -8.915  1.00  0.00     0.000 C
BRANCH  12  13
HETATM   13  C13 UNL     1      13.721  40.284  -9.500  1.00  0.00     0.007 C
BRANCH  13  14
HETATM   14  C14 UNL     1      13.572  39.265 -10.561  1.00  0.00     0.014 C
HETATM   15  C15 UNL     1      14.549  39.463 -11.685  1.00  0.00     0.007 C
HETATM   16  C16 UNL     1      14.030  38.622 -12.855  1.00  0.00     0.001 C
HETATM   17  C17 UNL     1      13.926  37.203 -12.434  1.00  0.00     0.002 C
HETATM   18  C18 UNL     1      14.259  36.905 -11.013  1.00  0.00     0.032 C
HETATM   19  C19 UNL     1      13.645  37.844 -10.018  1.00  0.00     0.122 C
BRANCH  19  20
HETATM   20  O5  UNL     1      12.427  37.359  -9.591  1.00  0.00    -0.395 OA
ATOM     21  H5  UNL     1      12.503  36.679  -8.931  1.00  0.00     0.210 HD
ENDBRANCH  19  20
ENDBRANCH  13  14
ENDBRANCH  12  13
ENDBRANCH  11  12
ENDBRANCH  10  11
ENDBRANCH   9  10
ENDBRANCH   8   9
ENDBRANCH   7   8
ENDBRANCH   6   7
BRANCH   1  22
HETATM   22  C1  UNL     1       9.209  36.828  -1.851  1.00  0.00     0.202 C
BRANCH  22  23
HETATM   23  O1  UNL     1       9.865  35.831  -1.175  1.00  0.00    -0.399 OA
ATOM     24  H1  UNL     1       9.973  35.023  -1.664  1.00  0.00     0.209 HD
ENDBRANCH  22  23
ENDBRANCH   1  22
BRANCH   2  25
HETATM   25  O2  UNL     1      10.535  38.487  -0.209  1.00  0.00    -0.391 OA
ATOM     26  H2  UNL     1       9.728  38.635   0.269  1.00  0.00     0.210 HD
ENDBRANCH   2  25
BRANCH   4  27
HETATM   27  O4  UNL     1       7.737  41.218  -2.727  1.00  0.00    -0.391 OA
ATOM     28  H4  UNL     1       7.225  41.115  -3.521  1.00  0.00     0.210 HD
ENDBRANCH   4  27
BRANCH   3  29
HETATM   29  O3  UNL     1      10.085  41.282  -1.054  1.00  0.00    -0.390 OA
ATOM     30  H3  UNL     1       9.934  41.948  -1.715  1.00  0.00     0.210 HD
ENDBRANCH   3  29
TORSDOF 14
ENDMDL