MODEL 3
REMARK VINA RESULT: -7.200355874      3.478      5.810
REMARK  14 active torsions:
REMARK  status: ('A' for Active; 'I' for Inactive)
REMARK    1  A    between atoms: C2_2  and  C3_3
REMARK    2  A    between atoms: C3_3  and  C4_4
REMARK    3  A    between atoms: C4_4  and  C5_5
REMARK    4  A    between atoms: C5_5  and  C6_6
REMARK    5  A    between atoms: C6_6  and  C7_7
REMARK    6  A    between atoms: C7_7  and  C8_8
REMARK    7  A    between atoms: C8_8  and  C9_9
REMARK    8  A    between atoms: C9_9  and  C10_10
REMARK    9  A    between atoms: C10_10  and  C11_11
REMARK   10  A    between atoms: C11_11  and  C12_12
REMARK   11  A    between atoms: C15_17  and  O1_18
REMARK   12  A    between atoms: C16_20  and  O2_21
REMARK   13  A    between atoms: C17_23  and  O3_24
REMARK   14  A    between atoms: C18_26  and  O4_27
ROOT
HETATM    1  C12 UNL     1      14.278  38.874  -9.911  1.00  0.00     0.220 C
HETATM    2  N1  UNL     1      14.806  37.579  -9.736  1.00  0.00    -0.376 N
ATOM      3  H1  UNL     1      15.630  37.424  -9.155  1.00  0.00     0.161 HD
HETATM    4  C13 UNL     1      14.168  36.504 -10.380  1.00  0.00     0.068 C
HETATM    5  C14 UNL     1      13.424  36.923 -11.603  1.00  0.00     0.087 C
HETATM    6  C15 UNL     1      13.399  35.879 -12.664  1.00  0.00     0.161 C
HETATM    7  C16 UNL     1      13.963  36.311 -13.981  1.00  0.00     0.178 C
HETATM    8  C17 UNL     1      15.309  36.963 -13.750  1.00  0.00     0.180 C
HETATM    9  C18 UNL     1      15.119  38.211 -12.956  1.00  0.00     0.179 C
HETATM   10  C19 UNL     1      13.874  38.260 -12.137  1.00  0.00     0.167 C
HETATM   11  O5  UNL     1      13.971  39.236 -11.204  1.00  0.00    -0.358 OA
ENDROOT
BRANCH   1  12
HETATM   12  C11 UNL     1      13.096  39.038  -8.978  1.00  0.00     0.054 C
BRANCH  12  13
HETATM   13  C10 UNL     1      12.522  40.409  -9.006  1.00  0.00     0.004 C
BRANCH  13  14
HETATM   14  C9  UNL     1      11.794  40.744  -7.750  1.00  0.00     0.000 C
BRANCH  14  15
HETATM   15  C8  UNL     1      12.723  41.519  -6.824  1.00  0.00     0.000 C
BRANCH  15  16
HETATM   16  C7  UNL     1      13.193  42.791  -7.480  1.00  0.00     0.000 C
BRANCH  16  17
HETATM   17  C6  UNL     1      14.364  43.345  -6.723  1.00  0.00     0.000 C
BRANCH  17  18
HETATM   18  C5  UNL     1      15.441  43.792  -7.648  1.00  0.00     0.000 C
BRANCH  18  19
HETATM   19  C4  UNL     1      15.555  42.895  -8.872  1.00  0.00     0.000 C
BRANCH  19  20
HETATM   20  C3  UNL     1      16.849  43.136  -9.624  1.00  0.00    -0.000 C
BRANCH  20  21
HETATM   21  C2  UNL     1      17.582  44.340  -9.100  1.00  0.00    -0.005 C
HETATM   22  C1  UNL     1      19.021  44.383  -9.520  1.00  0.00     0.005 C
ENDBRANCH  20  21
ENDBRANCH  19  20
ENDBRANCH  18  19
ENDBRANCH  17  18
ENDBRANCH  16  17
ENDBRANCH  15  16
ENDBRANCH  14  15
ENDBRANCH  13  14
ENDBRANCH  12  13
ENDBRANCH   1  12
BRANCH   9  23
HETATM   23  O4  UNL     1      16.267  38.521 -12.194  1.00  0.00    -0.390 OA
ATOM     24  H4  UNL     1      16.164  39.341 -11.727  1.00  0.00     0.210 HD
ENDBRANCH   9  23
BRANCH   6  25
HETATM   25  O1  UNL     1      14.105  34.750 -12.192  1.00  0.00    -0.392 OA
ATOM     26  H1  UNL     1      14.310  34.194 -12.934  1.00  0.00     0.210 HD
ENDBRANCH   6  25
BRANCH   8  27
HETATM   27  O3  UNL     1      16.206  36.091 -13.171  1.00  0.00    -0.390 OA
ATOM     28  H3  UNL     1      17.036  36.081 -13.633  1.00  0.00     0.210 HD
ENDBRANCH   8  27
BRANCH   7  29
HETATM   29  O2  UNL     1      14.131  35.201 -14.784  1.00  0.00    -0.390 OA
ATOM     30  H2  UNL     1      13.528  35.256 -15.516  1.00  0.00     0.210 HD
ENDBRANCH   7  29
TORSDOF 14
ENDMDL