MODEL 3
REMARK VINA RESULT: -8.126472623      3.943      6.433
REMARK  10 active torsions:
REMARK  status: ('A' for Active; 'I' for Inactive)
REMARK    1  A    between atoms: N1_1  and  C1_4
REMARK    2  A    between atoms: C2_9  and  C3_10
REMARK    3  A    between atoms: C3_10  and  C4_11
REMARK    4  A    between atoms: C4_11  and  C5_12
REMARK    5  A    between atoms: C5_12  and  C6_13
REMARK    6  A    between atoms: C6_13  and  C7_14
REMARK    7  A    between atoms: C7_14  and  C8_15
REMARK    8  A    between atoms: C8_15  and  C9_16
REMARK    9  A    between atoms: C9_16  and  C10_17
REMARK   10  A    between atoms: C10_17  and  N4_18
ROOT
HETATM    1  C7  UNL     1      13.480  37.465 -12.247  1.00  0.00     0.000 C
ENDROOT
BRANCH   1   2
HETATM    2  C6  UNL     1      13.248  36.976 -10.875  1.00  0.00     0.000 C
BRANCH   2   3
HETATM    3  C5  UNL     1      14.375  36.855  -9.929  1.00  0.00     0.000 C
BRANCH   3   4
HETATM    4  C4  UNL     1      14.223  37.781  -8.724  1.00  0.00     0.006 C
BRANCH   4   5
HETATM    5  C3  UNL     1      12.967  38.566  -8.696  1.00  0.00     0.064 C
BRANCH   5   6
HETATM    6  C2  UNL     1      12.360  38.744  -7.387  1.00  0.00     0.094 A
HETATM    7  N3  UNL     1      12.413  37.782  -6.463  1.00  0.00    -0.285 N
HETATM    8  N2  UNL     1      11.869  37.901  -5.260  1.00  0.00    -0.132 N
ATOM      9  H3  UNL     1      12.895  36.913  -6.693  1.00  0.00     0.187 HD
HETATM   10  C1  UNL     1      11.224  39.024  -4.908  1.00  0.00     0.693 A
ATOM     11  H2  UNL     1      11.941  37.131  -4.595  1.00  0.00     0.205 HD
HETATM   12  N9  UNL     1      11.144  40.020  -5.808  1.00  0.00    -0.153 N
HETATM   13  C16 UNL     1      11.700  39.904  -7.042  1.00  0.00     0.283 A
ATOM     14  H9  UNL     1      10.657  40.881  -5.558  1.00  0.00     0.187 HD
HETATM   15  O1  UNL     1      11.584  40.879  -7.827  1.00  0.00    -0.265 OA
BRANCH  10  16
HETATM   16  N1  UNL     1      10.699  39.118  -3.726  1.00  0.00    -0.233 N
ATOM     17  H12 UNL     1      10.945  39.871  -3.083  1.00  0.00     0.174 HD
ATOM     18  H11 UNL     1      10.018  38.424  -3.420  1.00  0.00     0.174 HD
ENDBRANCH  10  16
ENDBRANCH   5   6
ENDBRANCH   4   5
ENDBRANCH   3   4
ENDBRANCH   2   3
ENDBRANCH   1   2
BRANCH   1  19
HETATM   19  C8  UNL     1      14.563  38.422 -12.548  1.00  0.00     0.002 C
BRANCH  19  20
HETATM   20  C9  UNL     1      14.363  39.831 -12.157  1.00  0.00     0.020 C
BRANCH  20  21
HETATM   21  C10 UNL     1      15.592  40.278 -11.322  1.00  0.00     0.121 C
BRANCH  21  22
HETATM   22  N4  UNL     1      15.098  41.030 -10.192  1.00  0.00    -0.374 N
HETATM   23  C11 UNL     1      15.734  42.025  -9.721  1.00  0.00     0.133 A
HETATM   24  N5  UNL     1      16.906  42.464 -10.218  1.00  0.00    -0.337 N
HETATM   25  C15 UNL     1      15.199  42.701  -8.633  1.00  0.00     0.122 A
HETATM   26  C12 UNL     1      17.561  43.526  -9.697  1.00  0.00     0.183 A
ATOM     27  H5  UNL     1      17.314  41.979 -11.017  1.00  0.00     0.168 HD
HETATM   28  N6  UNL     1      17.066  44.185  -8.658  1.00  0.00    -0.337 N
HETATM   29  C13 UNL     1      15.887  43.769  -8.132  1.00  0.00     0.138 A
ATOM     30  H6  UNL     1      17.559  44.985  -8.264  1.00  0.00     0.168 HD
HETATM   31  N7  UNL     1      15.185  44.246  -7.108  1.00  0.00    -0.337 N
HETATM   32  C14 UNL     1      14.087  43.505  -6.963  1.00  0.00     0.182 A
ATOM     33  H7  UNL     1      15.444  45.046  -6.530  1.00  0.00     0.168 HD
HETATM   34  N8  UNL     1      14.096  42.552  -7.904  1.00  0.00    -0.346 N
ATOM     35  H8  UNL     1      13.381  41.837  -8.039  1.00  0.00     0.167 HD
ATOM     36  H4  UNL     1      14.215  40.756  -9.761  1.00  0.00     0.161 HD
ENDBRANCH  21  22
ENDBRANCH  20  21
ENDBRANCH  19  20
ENDBRANCH   1  19
TORSDOF 10
ENDMDL