MODEL 2
REMARK VINA RESULT: -6.744696566      6.095      9.858
REMARK  14 active torsions:
REMARK  status: ('A' for Active; 'I' for Inactive)
REMARK    1  A    between atoms: O1_1  and  C1_3
REMARK    2  A    between atoms: C1_3  and  C2_4
REMARK    3  A    between atoms: C3_5  and  O2_6
REMARK    4  A    between atoms: C4_8  and  O3_9
REMARK    5  A    between atoms: C5_11  and  O4_12
REMARK    6  A    between atoms: C6_14  and  O5_15
REMARK    7  A    between atoms: N1_17  and  C7_18
REMARK    8  A    between atoms: C7_18  and  C8_19
REMARK    9  A    between atoms: C8_19  and  C9_20
REMARK   10  A    between atoms: C9_20  and  C10_21
REMARK   11  A    between atoms: C10_21  and  C11_22
REMARK   12  A    between atoms: C11_22  and  C12_23
REMARK   13  A    between atoms: C12_23  and  C13_24
REMARK   14  A    between atoms: C13_24  and  C14_25
ROOT
HETATM    1  C2  UNL     1      13.767  36.419 -12.895  1.00  0.00     0.280 C
HETATM    2  C3  UNL     1      13.721  36.295 -14.410  1.00  0.00     0.185 C
HETATM    3  C4  UNL     1      15.105  36.130 -14.989  1.00  0.00     0.182 C
HETATM    4  C5  UNL     1      16.016  37.202 -14.482  1.00  0.00     0.208 C
HETATM    5  C6  UNL     1      15.944  37.485 -13.026  1.00  0.00     0.388 C
HETATM    6  N1  UNL     1      14.612  37.471 -12.454  1.00  0.00     0.129 N
ENDROOT
BRANCH   6   7
HETATM    7  C7  UNL     1      14.013  38.759 -12.441  1.00  0.00     0.276 C
BRANCH   7   8
HETATM    8  C8  UNL     1      13.682  39.388 -11.154  1.00  0.00     0.030 C
BRANCH   8   9
HETATM    9  C9  UNL     1      14.152  38.672  -9.917  1.00  0.00     0.002 C
BRANCH   9  10
HETATM   10  C10 UNL     1      13.139  37.935  -9.163  1.00  0.00     0.000 C
BRANCH  10  11
HETATM   11  C11 UNL     1      12.930  38.286  -7.735  1.00  0.00     0.000 C
BRANCH  11  12
HETATM   12  C12 UNL     1      11.723  39.026  -7.369  1.00  0.00     0.000 C
BRANCH  12  13
HETATM   13  C13 UNL     1      11.752  40.231  -6.534  1.00  0.00     0.004 C
BRANCH  13  14
HETATM   14  C14 UNL     1      11.990  41.509  -7.363  1.00  0.00    -0.014 C
HETATM   15  C15 UNL     1      13.397  41.984  -7.310  1.00  0.00     0.004 C
HETATM   16  C16 UNL     1      13.957  42.232  -8.707  1.00  0.00     0.000 C
HETATM   17  C17 UNL     1      13.022  43.166  -9.452  1.00  0.00     0.000 C
HETATM   18  C18 UNL     1      11.593  42.693  -9.435  1.00  0.00     0.000 C
HETATM   19  C19 UNL     1      11.541  41.298  -8.788  1.00  0.00     0.004 C
ENDBRANCH  13  14
ENDBRANCH  12  13
ENDBRANCH  11  12
ENDBRANCH  10  11
ENDBRANCH   9  10
ENDBRANCH   8   9
ENDBRANCH   7   8
ENDBRANCH   6   7
BRANCH   1  20
HETATM   20  C1  UNL     1      13.980  35.073 -12.253  1.00  0.00     0.203 C
BRANCH  20  21
HETATM   21  O1  UNL     1      12.893  34.247 -12.232  1.00  0.00    -0.399 OA
ATOM     22  H1  UNL     1      12.963  33.457 -12.757  1.00  0.00     0.209 HD
ENDBRANCH  20  21
ENDBRANCH   1  20
BRANCH   5  23
HETATM   23  O5  UNL     1      16.884  36.797 -12.261  1.00  0.00    -0.366 OA
ATOM     24  H5  UNL     1      17.436  37.355 -11.726  1.00  0.00     0.212 HD
ENDBRANCH   5  23
BRANCH   2  25
HETATM   25  O2  UNL     1      12.922  35.208 -14.706  1.00  0.00    -0.391 OA
ATOM     26  H2  UNL     1      12.685  35.276 -15.624  1.00  0.00     0.210 HD
ENDBRANCH   2  25
BRANCH   4  27
HETATM   27  O4  UNL     1      15.884  38.393 -15.206  1.00  0.00    -0.388 OA
ATOM     28  H4  UNL     1      16.716  38.698 -15.549  1.00  0.00     0.210 HD
ENDBRANCH   4  27
BRANCH   3  29
HETATM   29  O3  UNL     1      14.986  36.296 -16.378  1.00  0.00    -0.390 OA
ATOM     30  H3  UNL     1      15.179  35.453 -16.773  1.00  0.00     0.210 HD
ENDBRANCH   3  29
TORSDOF 14
ENDMDL