MODEL 1
REMARK VINA RESULT: -7.027948182      0.000      0.000
REMARK  14 active torsions:
REMARK  status: ('A' for Active; 'I' for Inactive)
REMARK    1  A    between atoms: C2_2  and  C3_3
REMARK    2  A    between atoms: C3_3  and  C4_4
REMARK    3  A    between atoms: C4_4  and  C5_5
REMARK    4  A    between atoms: C8_8  and  C9_9
REMARK    5  A    between atoms: C9_9  and  O1_10
REMARK    6  A    between atoms: C10_12  and  C11_13
REMARK    7  A    between atoms: C11_13  and  C12_14
REMARK    8  A    between atoms: C12_14  and  C13_15
REMARK    9  A    between atoms: C13_15  and  C14_16
REMARK   10  A    between atoms: C15_18  and  C16_19
REMARK   11  A    between atoms: C16_19  and  O3_20
REMARK   12  A    between atoms: C17_22  and  O4_23
REMARK   13  A    between atoms: C18_25  and  O5_26
REMARK   14  A    between atoms: C19_28  and  O6_29
ROOT
HETATM    1  C14 UNL     1      13.114  40.097  -9.570  1.00  0.00     0.153 C
HETATM    2  O2  UNL     1      12.405  39.256  -8.738  1.00  0.00    -0.373 OA
HETATM    3  C15 UNL     1      12.581  39.499  -7.396  1.00  0.00     0.176 C
HETATM    4  C17 UNL     1      12.026  40.853  -7.014  1.00  0.00     0.180 C
HETATM    5  C18 UNL     1      11.846  41.707  -8.253  1.00  0.00     0.180 C
HETATM    6  C19 UNL     1      13.109  41.541  -9.082  1.00  0.00     0.178 C
ENDROOT
BRANCH   1   7
HETATM    7  C13 UNL     1      14.528  39.614  -9.682  1.00  0.00     0.035 C
BRANCH   7   8
HETATM    8  C12 UNL     1      14.858  39.516 -11.185  1.00  0.00     0.003 C
BRANCH   8   9
HETATM    9  C11 UNL     1      13.663  38.910 -11.822  1.00  0.00     0.005 C
BRANCH   9  10
HETATM   10  C10 UNL     1      13.917  37.722 -12.712  1.00  0.00    -0.004 C
HETATM   11  C5  UNL     1      15.437  37.677 -12.897  1.00  0.00    -0.010 C
HETATM   12  C6  UNL     1      15.876  36.338 -12.348  1.00  0.00     0.005 C
HETATM   13  C7  UNL     1      14.751  35.923 -11.398  1.00  0.00     0.007 C
HETATM   14  C8  UNL     1      13.492  36.473 -12.038  1.00  0.00     0.014 C
BRANCH  11  15
HETATM   15  C4  UNL     1      15.821  37.860 -14.334  1.00  0.00     0.005 C
BRANCH  15  16
HETATM   16  C3  UNL     1      14.609  37.966 -15.232  1.00  0.00     0.000 C
BRANCH  16  17
HETATM   17  C2  UNL     1      14.721  37.059 -16.430  1.00  0.00    -0.005 C
HETATM   18  C1  UNL     1      15.157  35.690 -15.997  1.00  0.00     0.005 C
ENDBRANCH  16  17
ENDBRANCH  15  16
ENDBRANCH  11  15
BRANCH  14  19
HETATM   19  C9  UNL     1      13.011  35.402 -12.992  1.00  0.00     0.169 C
BRANCH  19  20
HETATM   20  O1  UNL     1      13.039  34.195 -12.279  1.00  0.00    -0.400 OA
ATOM     21  H1  UNL     1      12.691  33.531 -12.862  1.00  0.00     0.209 HD
ENDBRANCH  19  20
ENDBRANCH  14  19
ENDBRANCH   9  10
ENDBRANCH   8   9
ENDBRANCH   7   8
ENDBRANCH   1   7
BRANCH   6  22
HETATM   22  O6  UNL     1      13.095  42.367 -10.190  1.00  0.00    -0.390 OA
ATOM     23  H6  UNL     1      13.951  42.773 -10.265  1.00  0.00     0.210 HD
ENDBRANCH   6  22
BRANCH   3  24
HETATM   24  C16 UNL     1      11.815  38.408  -6.644  1.00  0.00     0.198 C
BRANCH  24  25
HETATM   25  O3  UNL     1      10.546  38.248  -7.195  1.00  0.00    -0.398 OA
ATOM     26  H3  UNL     1       9.999  37.736  -6.612  1.00  0.00     0.209 HD
ENDBRANCH  24  25
ENDBRANCH   3  24
BRANCH   5  27
HETATM   27  O5  UNL     1      11.609  43.026  -7.917  1.00  0.00    -0.390 OA
ATOM     28  H5  UNL     1      11.336  43.528  -8.676  1.00  0.00     0.210 HD
ENDBRANCH   5  27
BRANCH   4  29
HETATM   29  O4  UNL     1      12.940  41.499  -6.180  1.00  0.00    -0.390 OA
ATOM     30  H4  UNL     1      12.986  41.033  -5.353  1.00  0.00     0.210 HD
ENDBRANCH   4  29
TORSDOF 14
ENDMDL