MODEL 5
REMARK VINA RESULT: -6.860961856      1.540      2.114
REMARK  13 active torsions:
REMARK  status: ('A' for Active; 'I' for Inactive)
REMARK    1  A    between atoms: N1_1  and  C1_4
REMARK    2  A    between atoms: C3_8  and  C4_9
REMARK    3  A    between atoms: C5_10  and  C6_11
REMARK    4  A    between atoms: C6_11  and  C7_12
REMARK    5  A    between atoms: C7_12  and  C8_13
REMARK    6  A    between atoms: C8_13  and  C9_14
REMARK    7  A    between atoms: C9_14  and  N3_15
REMARK    8  A    between atoms: N3_15  and  C10_18
REMARK    9  A    between atoms: C10_18  and  C11_19
REMARK   10  A    between atoms: C11_19  and  C12_20
REMARK   11  A    between atoms: C12_20  and  C13_21
REMARK   12  A    between atoms: C13_21  and  N4_22
REMARK   13  A    between atoms: C17_28  and  N5_29
ROOT
HETATM    1  C6  UNL     1      13.164  37.852  -8.800  1.00  0.00     0.094 C
ENDROOT
BRANCH   1   2
HETATM    2  C5  UNL     1      13.397  37.596 -10.222  1.00  0.00    -0.101 C
HETATM    3  C4  UNL     1      13.611  37.380 -11.392  1.00  0.00    -0.062 C
BRANCH   3   4
HETATM    4  C3  UNL     1      13.887  37.116 -12.776  1.00  0.00     0.077 A
HETATM    5  C2  UNL     1      14.076  38.125 -13.709  1.00  0.00     0.130 A
HETATM    6  N2  UNL     1      14.333  37.812 -14.998  1.00  0.00    -0.201 N
HETATM    7  C1  UNL     1      14.416  36.546 -15.431  1.00  0.00     0.677 A
ATOM      8  H2  UNL     1      14.468  38.569 -15.668  1.00  0.00     0.183 HD
HETATM    9  N6  UNL     1      14.236  35.552 -14.543  1.00  0.00    -0.176 N
HETATM   10  C17 UNL     1      13.979  35.824 -13.251  1.00  0.00     0.135 A
ATOM     11  H6  UNL     1      14.296  34.582 -14.852  1.00  0.00     0.186 HD
BRANCH   7  12
HETATM   12  N1  UNL     1      14.668  36.291 -16.690  1.00  0.00    -0.234 N
ATOM     13  H12 UNL     1      15.554  36.564 -17.116  1.00  0.00     0.174 HD
ATOM     14  H11 UNL     1      13.979  35.811 -17.269  1.00  0.00     0.174 HD
ENDBRANCH   7  12
BRANCH  10  15
HETATM   15  N5  UNL     1      13.810  34.849 -12.418  1.00  0.00    -0.384 N
ATOM     16  H52 UNL     1      13.921  35.020 -11.418  1.00  0.00     0.157 HD
ATOM     17  H51 UNL     1      13.570  33.931 -12.789  1.00  0.00     0.157 HD
ENDBRANCH  10  15
ENDBRANCH   3   4
ENDBRANCH   1   2
BRANCH   1  18
HETATM   18  C7  UNL     1      12.939  39.326  -8.529  1.00  0.00     0.014 C
BRANCH  18  19
HETATM   19  C8  UNL     1      12.288  39.474  -7.191  1.00  0.00     0.028 C
BRANCH  19  20
HETATM   20  C9  UNL     1      11.930  38.110  -6.648  1.00  0.00     0.232 C
BRANCH  20  21
HETATM   21  N3  UNL     1      11.812  38.242  -5.198  1.00  0.00    -0.075 N
ATOM     22  H32 UNL     1      12.064  37.391  -4.696  1.00  0.00     0.277 HD
ATOM     23  H31 UNL     1      12.524  38.849  -4.790  1.00  0.00     0.277 HD
BRANCH  21  24
HETATM   24  C10 UNL     1      10.431  38.696  -4.917  1.00  0.00     0.232 C
BRANCH  24  25
HETATM   25  C11 UNL     1      10.025  38.224  -3.551  1.00  0.00     0.029 C
BRANCH  25  26
HETATM   26  C12 UNL     1       8.875  39.009  -2.994  1.00  0.00     0.022 C
BRANCH  26  27
HETATM   27  C13 UNL     1       8.682  40.259  -3.781  1.00  0.00     0.127 C
BRANCH  27  28
HETATM   28  N4  UNL     1       8.065  41.319  -2.952  1.00  0.00    -0.342 N
HETATM   29  C14 UNL     1       8.656  41.924  -1.794  1.00  0.00     0.137 C
HETATM   30  C15 UNL     1       8.481  43.426  -1.893  1.00  0.00     0.104 C
HETATM   31  S1  UNL     1       6.728  43.450  -2.463  1.00  0.00    -0.068 SA
HETATM   32  C16 UNL     1       6.779  41.836  -3.257  1.00  0.00     0.281 C
HETATM   33  O1  UNL     1       5.833  41.363  -3.913  1.00  0.00    -0.260 OA
ENDBRANCH  27  28
ENDBRANCH  26  27
ENDBRANCH  25  26
ENDBRANCH  24  25
ENDBRANCH  21  24
ENDBRANCH  20  21
ENDBRANCH  19  20
ENDBRANCH  18  19
ENDBRANCH   1  18
TORSDOF 13
ENDMDL