MODEL 5
REMARK VINA RESULT: -7.292810753      1.396      1.649
REMARK  13 active torsions:
REMARK  status: ('A' for Active; 'I' for Inactive)
REMARK    1  A    between atoms: C2_2  and  C3_3
REMARK    2  A    between atoms: C3_3  and  C4_4
REMARK    3  A    between atoms: C4_4  and  C5_5
REMARK    4  A    between atoms: C5_5  and  C6_6
REMARK    5  A    between atoms: C6_6  and  C7_7
REMARK    6  A    between atoms: C7_7  and  C8_8
REMARK    7  A    between atoms: C10_14  and  N3_15
REMARK    8  A    between atoms: N3_15  and  C11_17
REMARK    9  A    between atoms: C11_17  and  C12_18
REMARK   10  A    between atoms: C12_18  and  O1_19
REMARK   11  A    between atoms: C13_23  and  N5_24
REMARK   12  A    between atoms: C15_30  and  N7_31
REMARK   13  A    between atoms: N7_31  and  C16_33
ROOT
HETATM    1  C8  UNL     1      13.023  38.960  -8.322  1.00  0.00     0.055 A
HETATM    2  N1  UNL     1      12.729  38.193  -7.269  1.00  0.00    -0.340 N
ATOM      3  H1  UNL     1      13.142  37.266  -7.174  1.00  0.00     0.167 HD
HETATM    4  C9  UNL     1      11.865  38.669  -6.317  1.00  0.00     0.152 A
HETATM    5  N2  UNL     1      11.556  37.927  -5.259  1.00  0.00    -0.174 N
ATOM      6  H2  UNL     1      11.964  36.998  -5.157  1.00  0.00     0.186 HD
HETATM    7  C10 UNL     1      10.703  38.396  -4.312  1.00  0.00     0.681 A
HETATM    8  N4  UNL     1      10.145  39.596  -4.397  1.00  0.00    -0.175 N
ATOM      9  H4  UNL     1       9.507  39.922  -3.671  1.00  0.00     0.186 HD
HETATM   10  C13 UNL     1      10.437  40.392  -5.476  1.00  0.00     0.145 A
HETATM   11  C14 UNL     1      11.309  39.922  -6.449  1.00  0.00     0.123 A
HETATM   12  N6  UNL     1      11.612  40.705  -7.527  1.00  0.00    -0.335 N
ATOM     13  H6  UNL     1      11.198  41.632  -7.621  1.00  0.00     0.168 HD
HETATM   14  C15 UNL     1      12.458  40.243  -8.464  1.00  0.00     0.125 A
ENDROOT
BRANCH   1  15
HETATM   15  C7  UNL     1      13.960  38.530  -9.394  1.00  0.00     0.061 C
BRANCH  15  16
HETATM   16  C6  UNL     1      13.487  37.319 -10.130  1.00  0.00     0.006 C
BRANCH  16  17
HETATM   17  C5  UNL     1      14.620  36.327 -10.248  1.00  0.00     0.000 C
BRANCH  17  18
HETATM   18  C4  UNL     1      14.548  35.611 -11.605  1.00  0.00     0.000 C
BRANCH  18  19
HETATM   19  C3  UNL     1      13.329  36.065 -12.382  1.00  0.00    -0.000 C
BRANCH  19  20
HETATM   20  C2  UNL     1      13.713  36.468 -13.785  1.00  0.00    -0.005 C
HETATM   21  C1  UNL     1      14.087  37.931 -13.765  1.00  0.00     0.005 C
ENDBRANCH  19  20
ENDBRANCH  18  19
ENDBRANCH  17  18
ENDBRANCH  16  17
ENDBRANCH  15  16
ENDBRANCH   1  15
BRANCH  14  22
HETATM   22  N7  UNL     1      12.767  40.899  -9.464  1.00  0.00    -0.370 N
ATOM     23  H7  UNL     1      12.261  40.533 -10.270  1.00  0.00     0.161 HD
BRANCH  22  24
HETATM   24  C16 UNL     1      13.560  41.957  -9.873  1.00  0.00     0.083 A
HETATM   25  C17 UNL     1      14.405  42.777  -8.905  1.00  0.00     0.027 A
HETATM   26  C18 UNL     1      15.025  41.972 -10.062  1.00  0.00     0.027 A
ENDBRANCH  22  24
ENDBRANCH  14  22
BRANCH   7  27
HETATM   27  N3  UNL     1      10.440  37.639  -3.308  1.00  0.00    -0.224 N
ATOM     28  H3  UNL     1      10.920  36.740  -3.304  1.00  0.00     0.177 HD
BRANCH  27  29
HETATM   29  C11 UNL     1       9.584  37.870  -2.209  1.00  0.00     0.164 C
BRANCH  29  30
HETATM   30  C12 UNL     1       9.536  36.563  -1.403  1.00  0.00     0.184 C
BRANCH  30  31
HETATM   31  O1  UNL     1       8.446  35.823  -1.821  1.00  0.00    -0.399 OA
ATOM     32  H1  UNL     1       8.731  34.934  -2.001  1.00  0.00     0.209 HD
ENDBRANCH  30  31
ENDBRANCH  29  30
ENDBRANCH  27  29
ENDBRANCH   7  27
BRANCH  10  33
HETATM   33  N5  UNL     1       9.897  41.547  -5.553  1.00  0.00    -0.383 N
ATOM     34  H52 UNL     1      10.441  42.387  -5.746  1.00  0.00     0.157 HD
ATOM     35  H51 UNL     1       8.889  41.628  -5.416  1.00  0.00     0.157 HD
ENDBRANCH  10  33
TORSDOF 13
ENDMDL