MODEL 1
REMARK VINA RESULT: -6.935950482      0.000      0.000
REMARK  14 active torsions:
REMARK  status: ('A' for Active; 'I' for Inactive)
REMARK    1  A    between atoms: O1_1  and  C1_3
REMARK    2  A    between atoms: C1_3  and  C2_4
REMARK    3  A    between atoms: C2_4  and  C3_5
REMARK    4  A    between atoms: C6_8  and  C7_9
REMARK    5  A    between atoms: C7_9  and  C8_10
REMARK    6  A    between atoms: C9_11  and  C10_12
REMARK    7  A    between atoms: C10_12  and  C11_13
REMARK    8  A    between atoms: C11_13  and  C12_14
REMARK    9  A    between atoms: C12_14  and  C13_15
REMARK   10  A    between atoms: C14_16  and  O2_17
REMARK   11  A    between atoms: C15_20  and  C16_21
REMARK   12  A    between atoms: C16_21  and  O4_22
REMARK   13  A    between atoms: C17_24  and  O5_25
REMARK   14  A    between atoms: C18_27  and  O6_28
ROOT
HETATM    1  C13 UNL     1      12.583  40.856  -8.883  1.00  0.00     0.072 C
HETATM    2  C14 UNL     1      11.636  41.506  -7.956  1.00  0.00     0.264 C
HETATM    3  O3  UNL     1      10.974  40.641  -7.096  1.00  0.00    -0.351 OA
HETATM    4  C15 UNL     1      11.769  39.739  -6.444  1.00  0.00     0.179 C
HETATM    5  C17 UNL     1      12.294  38.771  -7.463  1.00  0.00     0.178 C
HETATM    6  C18 UNL     1      12.674  39.357  -8.771  1.00  0.00     0.158 C
ENDROOT
BRANCH   1   7
HETATM    7  C12 UNL     1      13.963  41.433  -8.954  1.00  0.00     0.012 C
BRANCH   7   8
HETATM    8  C11 UNL     1      14.290  42.378 -10.010  1.00  0.00     0.004 C
BRANCH   8   9
HETATM    9  C10 UNL     1      15.804  42.354 -10.267  1.00  0.00     0.027 C
BRANCH   9  10
HETATM   10  C9  UNL     1      16.354  40.989 -10.287  1.00  0.00    -0.031 C
HETATM   11  C8  UNL     1      16.404  40.229 -11.348  1.00  0.00    -0.030 C
BRANCH  11  12
HETATM   12  C7  UNL     1      15.927  40.611 -12.670  1.00  0.00     0.031 C
BRANCH  12  13
HETATM   13  C6  UNL     1      15.136  39.499 -13.350  1.00  0.00    -0.011 C
HETATM   14  C5  UNL     1      15.924  38.250 -13.563  1.00  0.00     0.005 C
HETATM   15  C4  UNL     1      14.905  37.173 -13.743  1.00  0.00     0.005 C
HETATM   16  C3  UNL     1      13.711  37.619 -12.965  1.00  0.00    -0.012 C
HETATM   17  C19 UNL     1      13.970  39.043 -12.492  1.00  0.00     0.009 C
BRANCH  16  18
HETATM   18  C2  UNL     1      13.452  36.721 -11.792  1.00  0.00     0.030 C
BRANCH  18  19
HETATM   19  C1  UNL     1      13.977  35.340 -12.043  1.00  0.00     0.164 C
BRANCH  19  20
HETATM   20  O1  UNL     1      12.945  34.456 -12.376  1.00  0.00    -0.401 OA
ATOM     21  H1  UNL     1      12.940  33.699 -11.801  1.00  0.00     0.209 HD
ENDBRANCH  19  20
ENDBRANCH  18  19
ENDBRANCH  16  18
ENDBRANCH  12  13
ENDBRANCH  11  12
ENDBRANCH   9  10
ENDBRANCH   8   9
ENDBRANCH   7   8
ENDBRANCH   1   7
BRANCH   2  22
HETATM   22  O2  UNL     1      12.142  42.553  -7.192  1.00  0.00    -0.371 OA
ATOM     23  H2  UNL     1      11.672  42.755  -6.391  1.00  0.00     0.212 HD
ENDBRANCH   2  22
BRANCH   6  24
HETATM   24  O6  UNL     1      13.976  38.902  -9.091  1.00  0.00    -0.392 OA
ATOM     25  H6  UNL     1      14.183  39.078 -10.001  1.00  0.00     0.210 HD
ENDBRANCH   6  24
BRANCH   5  26
HETATM   26  O5  UNL     1      11.281  37.788  -7.607  1.00  0.00    -0.390 OA
ATOM     27  H5  UNL     1      11.644  37.134  -8.193  1.00  0.00     0.210 HD
ENDBRANCH   5  26
BRANCH   4  28
HETATM   28  C16 UNL     1      10.883  38.972  -5.472  1.00  0.00     0.198 C
BRANCH  28  29
HETATM   29  O4  UNL     1      11.581  37.911  -4.879  1.00  0.00    -0.398 OA
ATOM     30  H4  UNL     1      11.057  37.485  -4.212  1.00  0.00     0.209 HD
ENDBRANCH  28  29
ENDBRANCH   4  28
TORSDOF 14
ENDMDL