MODEL 5
REMARK VINA RESULT: -7.638629909      1.491      2.318
REMARK  17 active torsions:
REMARK  status: ('A' for Active; 'I' for Inactive)
REMARK    1  A    between atoms: C2_2  and  O1_3
REMARK    2  A    between atoms: C2_2  and  C3_5
REMARK    3  A    between atoms: C2_2  and  C4_8
REMARK    4  A    between atoms: C3_5  and  O2_6
REMARK    5  A    between atoms: C4_8  and  C5_9
REMARK    6  A    between atoms: C5_9  and  O3_10
REMARK    7  A    between atoms: C5_9  and  C6_12
REMARK    8  A    between atoms: C6_12  and  C7_13
REMARK    9  A    between atoms: C7_13  and  C8_14
REMARK   10  A    between atoms: C12_18  and  C14_20
REMARK   11  A    between atoms: C14_20  and  C15_21
REMARK   12  A    between atoms: C16_22  and  C17_23
REMARK   13  A    between atoms: C17_23  and  C18_24
REMARK   14  A    between atoms: C18_24  and  C19_25
REMARK   15  A    between atoms: C19_25  and  C20_26
REMARK   16  A    between atoms: C21_27  and  O4_28
REMARK   17  A    between atoms: C23_32  and  O6_33
ROOT
HETATM    1  C8  UNL     1      12.600  39.828  -7.207  1.00  0.00     0.168 C
HETATM    2  C9  UNL     1      12.279  41.214  -6.937  1.00  0.00     0.005 C
HETATM    3  C10 UNL     1      11.865  41.986  -7.976  1.00  0.00    -0.025 C
HETATM    4  C11 UNL     1      11.795  41.305  -9.286  1.00  0.00     0.065 C
HETATM    5  C12 UNL     1      13.104  40.546  -9.390  1.00  0.00     0.065 C
HETATM    6  C13 UNL     1      14.279  41.443  -9.019  1.00  0.00     0.046 C
HETATM    7  O7  UNL     1      13.072  39.534  -8.486  1.00  0.00    -0.367 OA
ENDROOT
BRANCH   5   8
HETATM    8  C14 UNL     1      13.365  39.986 -10.747  1.00  0.00     0.065 C
BRANCH   8   9
HETATM    9  C15 UNL     1      13.993  38.679 -10.849  1.00  0.00    -0.028 C
HETATM   10  C16 UNL     1      13.483  37.523 -11.212  1.00  0.00    -0.031 C
BRANCH  10  11
HETATM   11  C17 UNL     1      14.385  36.310 -11.221  1.00  0.00     0.027 C
BRANCH  11  12
HETATM   12  C18 UNL     1      13.799  35.299 -12.150  1.00  0.00     0.004 C
BRANCH  12  13
HETATM   13  C19 UNL     1      13.215  35.912 -13.380  1.00  0.00     0.012 C
BRANCH  13  14
HETATM   14  C20 UNL     1      14.264  36.076 -14.474  1.00  0.00     0.071 C
HETATM   15  C21 UNL     1      14.381  37.530 -14.816  1.00  0.00     0.150 C
HETATM   16  C22 UNL     1      14.400  37.553 -16.308  1.00  0.00     0.203 C
HETATM   17  O5  UNL     1      14.216  36.290 -16.787  1.00  0.00    -0.358 OA
HETATM   18  C23 UNL     1      13.778  35.476 -15.759  1.00  0.00     0.263 C
BRANCH  15  19
HETATM   19  O4  UNL     1      15.596  38.085 -14.359  1.00  0.00    -0.393 OA
ATOM     20  H4  UNL     1      16.311  37.459 -14.400  1.00  0.00     0.210 HD
ENDBRANCH  15  19
BRANCH  18  21
HETATM   21  O6  UNL     1      12.398  35.376 -15.724  1.00  0.00    -0.371 OA
ATOM     22  H6  UNL     1      12.081  35.704 -14.891  1.00  0.00     0.212 HD
ENDBRANCH  18  21
ENDBRANCH  13  14
ENDBRANCH  12  13
ENDBRANCH  11  12
ENDBRANCH  10  11
ENDBRANCH   8   9
ENDBRANCH   5   8
BRANCH   1  23
HETATM   23  C7  UNL     1      11.535  38.865  -6.793  1.00  0.00     0.011 C
BRANCH  23  24
HETATM   24  C6  UNL     1      11.352  38.381  -5.449  1.00  0.00     0.035 C
BRANCH  24  25
HETATM   25  C5  UNL     1      10.171  38.357  -4.618  1.00  0.00     0.064 C
BRANCH  25  26
HETATM   26  C4  UNL     1      10.066  37.904  -3.243  1.00  0.00     0.049 C
BRANCH  26  27
HETATM   27  C2  UNL     1      10.394  38.723  -2.073  1.00  0.00     0.096 C
HETATM   28  C1  UNL     1      10.233  38.060  -0.756  1.00  0.00     0.052 C
BRANCH  27  29
HETATM   29  O1  UNL     1      11.717  39.229  -2.132  1.00  0.00    -0.384 OA
ATOM     30  H1  UNL     1      12.305  38.507  -1.941  1.00  0.00     0.211 HD
ENDBRANCH  27  29
BRANCH  27  31
HETATM   31  C3  UNL     1       9.524  39.996  -2.011  1.00  0.00     0.205 C
BRANCH  31  32
HETATM   32  O2  UNL     1      10.174  40.848  -1.120  1.00  0.00    -0.398 OA
ATOM     33  H2  UNL     1      10.033  41.725  -1.459  1.00  0.00     0.209 HD
ENDBRANCH  31  32
ENDBRANCH  27  31
ENDBRANCH  26  27
ENDBRANCH  25  26
BRANCH  25  34
HETATM   34  O3  UNL     1       9.028  37.855  -5.333  1.00  0.00    -0.361 OA
ATOM     35  H3  UNL     1       9.246  37.848  -6.259  1.00  0.00     0.217 HD
ENDBRANCH  25  34
ENDBRANCH  24  25
ENDBRANCH  23  24
ENDBRANCH   1  23
TORSDOF 17
ENDMDL