MODEL 5
REMARK VINA RESULT: -6.956091387      2.211      9.720
REMARK  17 active torsions:
REMARK  status: ('A' for Active; 'I' for Inactive)
REMARK    1  A    between atoms: C4_8  and  N4_9
REMARK    2  A    between atoms: N4_9  and  C5_10
REMARK    3  A    between atoms: C5_10  and  O1_11
REMARK    4  A    between atoms: C5_10  and  N5_13
REMARK    5  A    between atoms: N5_13  and  C6_14
REMARK    6  A    between atoms: C6_14  and  C7_15
REMARK    7  A    between atoms: C7_15  and  C8_16
REMARK    8  A    between atoms: C8_16  and  C9_17
REMARK    9  A    between atoms: C9_17  and  C10_18
REMARK   10  A    between atoms: C10_18  and  C11_19
REMARK   11  A    between atoms: C11_19  and  C12_20
REMARK   12  A    between atoms: C12_20  and  C13_21
REMARK   13  A    between atoms: C13_21  and  C14_22
REMARK   14  A    between atoms: C14_22  and  C15_23
REMARK   15  A    between atoms: C15_23  and  C16_24
REMARK   16  A    between atoms: C16_24  and  N6_25
REMARK   17  A    between atoms: C17_31  and  C18_32
ROOT
HETATM    1  N1  UNL     1      13.281  43.583 -10.793  1.00  0.00    -0.190 NA
HETATM    2  C1  UNL     1      12.951  42.781 -10.050  1.00  0.00     0.120 C
HETATM    3  C2  UNL     1      12.453  41.787  -9.111  1.00  0.00     0.142 A
HETATM    4  N2  UNL     1      11.642  42.215  -8.119  1.00  0.00    -0.330 N
ATOM      5  H2  UNL     1      11.410  43.205  -8.047  1.00  0.00     0.168 HD
HETATM    6  C3  UNL     1      11.145  41.359  -7.240  1.00  0.00     0.176 A
HETATM    7  N3  UNL     1      10.252  41.789  -6.185  1.00  0.00    -0.077 NA
HETATM    8  C4  UNL     1      11.487  40.013  -7.359  1.00  0.00     0.226 A
HETATM    9  N7  UNL     1      12.295  39.641  -8.385  1.00  0.00    -0.326 N
ATOM     10  H7  UNL     1      12.521  38.649  -8.468  1.00  0.00     0.169 HD
HETATM   11  C17 UNL     1      12.821  40.471  -9.301  1.00  0.00     0.075 A
ENDROOT
BRANCH  11  12
HETATM   12  C18 UNL     1      13.851  40.001 -10.252  1.00  0.00    -0.047 C
HETATM   13  C19 UNL     1      15.259  40.307 -10.047  1.00  0.00     0.056 C
HETATM   14  C20 UNL     1      16.059  40.323 -11.323  1.00  0.00     0.118 C
HETATM   15  N8  UNL     1      15.209  40.095 -12.425  1.00  0.00    -0.421 N
HETATM   16  C21 UNL     1      14.375  38.966 -12.396  1.00  0.00     0.118 C
ATOM     17  H8  UNL     1      15.201  40.733 -13.221  1.00  0.00     0.153 HD
HETATM   18  C22 UNL     1      13.569  38.809 -11.076  1.00  0.00     0.056 C
ENDBRANCH  11  12
BRANCH   8  19
HETATM   19  N4  UNL     1      11.154  39.256  -6.491  1.00  0.00    -0.331 NA
BRANCH  19  20
HETATM   20  C5  UNL     1      10.965  38.293  -5.596  1.00  0.00     0.373 C
BRANCH  20  21
HETATM   21  O1  UNL     1      11.808  37.270  -5.729  1.00  0.00    -0.310 OA
ATOM     22  H1  UNL     1      11.542  36.494  -5.249  1.00  0.00     0.223 HD
ENDBRANCH  20  21
BRANCH  20  23
HETATM   23  N5  UNL     1      10.029  38.203  -4.529  1.00  0.00    -0.398 NA
BRANCH  23  24
HETATM   24  C6  UNL     1       9.179  38.138  -3.518  1.00  0.00     0.223 C
BRANCH  24  25
HETATM   25  C7  UNL     1       9.782  37.454  -2.282  1.00  0.00     0.033 C
BRANCH  25  26
HETATM   26  C8  UNL     1      10.642  38.318  -1.420  1.00  0.00     0.002 C
BRANCH  26  27
HETATM   27  C9  UNL     1       9.657  39.251  -0.684  1.00  0.00     0.000 C
BRANCH  27  28
HETATM   28  C10 UNL     1       9.872  40.658  -0.910  1.00  0.00     0.000 C
BRANCH  28  29
HETATM   29  C11 UNL     1       8.872  41.309  -1.896  1.00  0.00     0.000 C
BRANCH  29  30
HETATM   30  C12 UNL     1       8.893  42.788  -1.491  1.00  0.00     0.000 C
BRANCH  30  31
HETATM   31  C13 UNL     1       7.533  43.379  -1.479  1.00  0.00     0.000 C
BRANCH  31  32
HETATM   32  C14 UNL     1       6.692  42.860  -2.626  1.00  0.00     0.002 C
BRANCH  32  33
HETATM   33  C15 UNL     1       6.279  43.976  -3.546  1.00  0.00     0.027 C
BRANCH  33  34
HETATM   34  C16 UNL     1       6.437  43.358  -4.960  1.00  0.00     0.229 C
BRANCH  34  35
HETATM   35  N6  UNL     1       7.469  42.356  -4.913  1.00  0.00    -0.079 N
ATOM     36  H63 UNL     1       8.390  42.754  -4.727  1.00  0.00     0.274 HD
ATOM     37  H62 UNL     1       7.401  41.764  -4.086  1.00  0.00     0.274 HD
ATOM     38  H61 UNL     1       7.444  41.820  -5.781  1.00  0.00     0.274 HD
ENDBRANCH  34  35
ENDBRANCH  33  34
ENDBRANCH  32  33
ENDBRANCH  31  32
ENDBRANCH  30  31
ENDBRANCH  29  30
ENDBRANCH  28  29
ENDBRANCH  27  28
ENDBRANCH  26  27
ENDBRANCH  25  26
ENDBRANCH  24  25
ENDBRANCH  23  24
ENDBRANCH  20  23
ENDBRANCH  19  20
ENDBRANCH   8  19
TORSDOF 17
ENDMDL