MODEL 5
REMARK VINA RESULT: -6.688250806      5.945     11.153
REMARK  15 active torsions:
REMARK  status: ('A' for Active; 'I' for Inactive)
REMARK    1  A    between atoms: C4_4  and  N1_5
REMARK    2  A    between atoms: N1_5  and  C5_7
REMARK    3  A    between atoms: C5_7  and  C6_8
REMARK    4  A    between atoms: C6_8  and  C7_9
REMARK    5  A    between atoms: C7_9  and  C8_10
REMARK    6  A    between atoms: C8_10  and  C9_11
REMARK    7  A    between atoms: C9_11  and  C10_12
REMARK    8  A    between atoms: C10_12  and  C11_13
REMARK    9  A    between atoms: C11_13  and  C12_14
REMARK   10  A    between atoms: C12_14  and  C13_15
REMARK   11  A    between atoms: C13_15  and  C14_16
REMARK   12  A    between atoms: C14_16  and  N2_17
REMARK   13  A    between atoms: N2_17  and  C15_19
REMARK   14  A    between atoms: C21_27  and  O2_28
REMARK   15  A    between atoms: C22_32  and  N4_33
ROOT
HETATM    1  C9  UNL     1      13.888  37.871  -8.567  1.00  0.00     0.000 C
ENDROOT
BRANCH   1   2
HETATM    2  C8  UNL     1      12.598  38.519  -8.289  1.00  0.00     0.000 C
BRANCH   2   3
HETATM    3  C7  UNL     1      12.426  39.724  -7.481  1.00  0.00     0.002 C
BRANCH   3   4
HETATM    4  C6  UNL     1      11.358  39.831  -6.460  1.00  0.00     0.020 C
BRANCH   4   5
HETATM    5  C5  UNL     1      11.290  38.515  -5.635  1.00  0.00     0.121 C
BRANCH   5   6
HETATM    6  N1  UNL     1      10.076  38.463  -4.890  1.00  0.00    -0.376 N
ATOM      7  H1  UNL     1       9.221  38.375  -5.438  1.00  0.00     0.161 HD
BRANCH   6   8
HETATM    8  C4  UNL     1       9.924  38.512  -3.629  1.00  0.00     0.118 A
HETATM    9  C3  UNL     1       9.575  37.393  -2.895  1.00  0.00     0.073 A
HETATM   10  C2  UNL     1       9.407  37.423  -1.541  1.00  0.00     0.026 A
HETATM   11  C1  UNL     1       9.033  36.237  -0.730  1.00  0.00     0.069 C
HETATM   12  N5  UNL     1       9.587  38.587  -0.893  1.00  0.00    -0.196 N
HETATM   13  C22 UNL     1       9.923  39.676  -1.585  1.00  0.00     0.677 A
ATOM     14  H5  UNL     1       9.468  38.636   0.119  1.00  0.00     0.184 HD
HETATM   15  N3  UNL     1      10.090  39.645  -2.930  1.00  0.00    -0.177 N
ATOM     16  H3  UNL     1      10.349  40.501  -3.421  1.00  0.00     0.185 HD
BRANCH  13  17
HETATM   17  N4  UNL     1      10.105  40.807  -0.998  1.00  0.00    -0.234 N
ATOM     18  H42 UNL     1      10.089  41.681  -1.523  1.00  0.00     0.174 HD
ATOM     19  H41 UNL     1      10.262  40.788   0.009  1.00  0.00     0.174 HD
ENDBRANCH  13  17
ENDBRANCH   6   8
ENDBRANCH   5   6
ENDBRANCH   4   5
ENDBRANCH   3   4
ENDBRANCH   2   3
ENDBRANCH   1   2
BRANCH   1  20
HETATM   20  C10 UNL     1      14.353  37.955  -9.977  1.00  0.00     0.000 C
BRANCH  20  21
HETATM   21  C11 UNL     1      14.255  36.568 -10.654  1.00  0.00     0.000 C
BRANCH  21  22
HETATM   22  C12 UNL     1      13.244  36.563 -11.729  1.00  0.00     0.002 C
BRANCH  22  23
HETATM   23  C13 UNL     1      13.474  35.522 -12.791  1.00  0.00     0.019 C
BRANCH  23  24
HETATM   24  C14 UNL     1      14.140  36.074 -14.028  1.00  0.00     0.114 C
BRANCH  24  25
HETATM   25  N2  UNL     1      15.554  36.024 -13.991  1.00  0.00    -0.413 N
ATOM     26  H2  UNL     1      16.056  35.223 -13.608  1.00  0.00     0.153 HD
BRANCH  25  27
HETATM   27  C15 UNL     1      16.235  37.157 -14.517  1.00  0.00     0.133 C
HETATM   28  C16 UNL     1      15.536  38.465 -14.339  1.00  0.00     0.197 C
HETATM   29  O1  UNL     1      16.547  39.371 -14.690  1.00  0.00    -0.364 OA
HETATM   30  C17 UNL     1      17.653  38.924 -14.016  1.00  0.00     0.136 C
HETATM   31  C18 UNL     1      18.956  39.311 -14.684  1.00  0.00     0.053 C
HETATM   32  S1  UNL     1      17.816  39.887 -12.462  1.00  0.00    -0.129 SA
HETATM   33  C21 UNL     1      17.536  37.453 -13.767  1.00  0.00     0.187 C
HETATM   34  C19 UNL     1      19.070  40.799 -14.540  1.00  0.00     0.014 C
HETATM   35  C20 UNL     1      19.000  41.153 -13.078  1.00  0.00     0.077 C
BRANCH  33  36
HETATM   36  O2  UNL     1      17.329  37.197 -12.423  1.00  0.00    -0.390 OA
ATOM     37  H2  UNL     1      16.735  36.460 -12.348  1.00  0.00     0.210 HD
ENDBRANCH  33  36
ENDBRANCH  25  27
ENDBRANCH  24  25
ENDBRANCH  23  24
ENDBRANCH  22  23
ENDBRANCH  21  22
ENDBRANCH  20  21
ENDBRANCH   1  20
TORSDOF 15
ENDMDL