MODEL 2
REMARK VINA RESULT: -6.569345490      2.870      6.457
REMARK  12 active torsions:
REMARK  status: ('A' for Active; 'I' for Inactive)
REMARK    1  A    between atoms: C2_2  and  C3_3
REMARK    2  A    between atoms: C3_3  and  C4_4
REMARK    3  A    between atoms: C4_4  and  N1_5
REMARK    4  A    between atoms: N1_5  and  C5_6
REMARK    5  A    between atoms: N1_5  and  C15_30
REMARK    6  A    between atoms: C5_6  and  C6_7
REMARK    7  A    between atoms: C7_8  and  C8_9
REMARK    8  A    between atoms: C15_30  and  C16_31
REMARK    9  A    between atoms: C16_31  and  C17_32
REMARK   10  A    between atoms: C17_32  and  C18_33
REMARK   11  A    between atoms: C18_33  and  C19_34
REMARK   12  A    between atoms: C19_34  and  N7_35
ROOT
HETATM    1  C8  UNL     1      14.564  38.755 -10.898  1.00  0.00     0.150 C
HETATM    2  N2  UNL     1      15.835  39.431 -10.873  1.00  0.00    -0.342 N
ATOM      3  H2  UNL     1      16.437  39.209 -10.080  1.00  0.00     0.163 HD
HETATM    4  C9  UNL     1      16.363  40.362 -11.799  1.00  0.00     0.286 C
HETATM    5  O1  UNL     1      17.326  41.078 -11.432  1.00  0.00    -0.264 OA
HETATM    6  C10 UNL     1      15.874  40.563 -13.168  1.00  0.00     0.169 C
HETATM    7  N3  UNL     1      16.360  41.556 -13.833  1.00  0.00    -0.381 N
ATOM      8  H31 UNL     1      16.020  41.695 -14.785  1.00  0.00     0.157 HD
ATOM      9  H32 UNL     1      17.044  42.106 -13.314  1.00  0.00     0.157 HD
HETATM   10  N4  UNL     1      14.916  39.792 -13.895  1.00  0.00    -0.324 N
ATOM     11  H4  UNL     1      14.546  40.188 -14.760  1.00  0.00     0.169 HD
HETATM   12  C11 UNL     1      14.436  38.496 -13.492  1.00  0.00     0.123 A
HETATM   13  N5  UNL     1      14.135  37.716 -14.556  1.00  0.00    -0.318 N
ATOM     14  H5  UNL     1      14.244  38.073 -15.506  1.00  0.00     0.170 HD
HETATM   15  C12 UNL     1      13.692  36.467 -14.345  1.00  0.00     0.180 A
HETATM   16  S1  UNL     1      13.328  35.525 -15.634  1.00  0.00    -0.040 SA
HETATM   17  N6  UNL     1      13.562  36.033 -13.083  1.00  0.00    -0.299 N
ATOM     18  H6  UNL     1      13.224  35.082 -12.933  1.00  0.00     0.171 HD
HETATM   19  C13 UNL     1      13.852  36.783 -12.007  1.00  0.00     0.260 A
HETATM   20  O2  UNL     1      13.702  36.290 -10.846  1.00  0.00    -0.267 OA
HETATM   21  C14 UNL     1      14.308  38.069 -12.184  1.00  0.00     0.080 A
ENDROOT
BRANCH   1  22
HETATM   22  C7  UNL     1      13.499  39.734 -10.567  1.00  0.00     0.001 C
HETATM   23  C6  UNL     1      13.514  40.569  -9.541  1.00  0.00    -0.009 C
BRANCH  23  24
HETATM   24  C5  UNL     1      12.377  41.499  -9.328  1.00  0.00     0.144 C
BRANCH  24  25
HETATM   25  N1  UNL     1      12.358  42.092  -8.032  1.00  0.00    -0.409 N
BRANCH  25  26
HETATM   26  C4  UNL     1      13.094  43.307  -7.961  1.00  0.00     0.117 C
BRANCH  26  27
HETATM   27  C3  UNL     1      14.311  43.217  -7.068  1.00  0.00     0.019 C
BRANCH  27  28
HETATM   28  C2  UNL     1      15.496  43.941  -7.676  1.00  0.00    -0.003 C
HETATM   29  C1  UNL     1      15.948  43.173  -8.900  1.00  0.00     0.005 C
ENDBRANCH  27  28
ENDBRANCH  26  27
ENDBRANCH  25  26
BRANCH  25  30
HETATM   30  C15 UNL     1      12.539  41.196  -6.944  1.00  0.00     0.117 C
BRANCH  30  31
HETATM   31  C16 UNL     1      11.345  40.298  -6.720  1.00  0.00     0.020 C
BRANCH  31  32
HETATM   32  C17 UNL     1      11.700  38.828  -6.795  1.00  0.00     0.007 C
BRANCH  32  33
HETATM   33  C18 UNL     1      11.390  38.051  -5.577  1.00  0.00     0.044 C
BRANCH  33  34
HETATM   34  C19 UNL     1      10.629  38.696  -4.489  1.00  0.00     0.055 C
BRANCH  34  35
HETATM   35  N7  UNL     1      11.250  39.002  -3.277  1.00  0.00    -0.406 N
HETATM   36  C20 UNL     1      10.609  38.860  -2.038  1.00  0.00     0.145 C
ATOM     37  H7  UNL     1      12.211  39.342  -3.294  1.00  0.00     0.158 HD
ENDBRANCH  34  35
ENDBRANCH  33  34
ENDBRANCH  32  33
ENDBRANCH  31  32
ENDBRANCH  30  31
ENDBRANCH  25  30
ENDBRANCH  24  25
ENDBRANCH  23  24
ENDBRANCH   1  22
TORSDOF 12
ENDMDL