MODEL 3
REMARK VINA RESULT: -7.389142642      1.371      2.025
REMARK  14 active torsions:
REMARK  status: ('A' for Active; 'I' for Inactive)
REMARK    1  A    between atoms: O1_2  and  C2_3
REMARK    2  A    between atoms: C3_6  and  N2_7
REMARK    3  A    between atoms: C7_15  and  N4_16
REMARK    4  A    between atoms: N4_16  and  C8_18
REMARK    5  A    between atoms: C8_18  and  C9_19
REMARK    6  A    between atoms: C9_19  and  C10_20
REMARK    7  A    between atoms: C10_20  and  C11_21
REMARK    8  A    between atoms: C11_21  and  C12_22
REMARK    9  A    between atoms: C12_22  and  C13_23
REMARK   10  A    between atoms: C13_23  and  C14_24
REMARK   11  A    between atoms: C14_24  and  C15_25
REMARK   12  A    between atoms: C15_25  and  N5_26
REMARK   13  A    between atoms: N5_26  and  C16_29
REMARK   14  A    between atoms: C16_29  and  C17_30
ROOT
HETATM    1  N4  UNL     1      14.717  38.181 -10.497  1.00  0.00    -0.388 N
ATOM      2  H4  UNL     1      15.549  38.701 -10.774  1.00  0.00     0.159 HD
ENDROOT
BRANCH   1   3
HETATM    3  C7  UNL     1      14.482  37.303 -11.317  1.00  0.00     0.059 A
HETATM    4  C6  UNL     1      13.441  36.421 -11.430  1.00  0.00     0.048 A
HETATM    5  C5  UNL     1      13.272  35.586 -12.504  1.00  0.00     0.091 A
HETATM    6  N3  UNL     1      14.147  35.597 -13.530  1.00  0.00    -0.361 N
HETATM    7  C4  UNL     1      15.199  36.446 -13.485  1.00  0.00     0.105 A
ATOM      8  H3  UNL     1      14.018  34.976 -14.328  1.00  0.00     0.165 HD
HETATM    9  C3  UNL     1      16.052  36.473 -14.583  1.00  0.00     0.131 A
HETATM   10  C23 UNL     1      15.378  37.276 -12.418  1.00  0.00     0.092 A
HETATM   11  N1  UNL     1      17.077  37.379 -14.536  1.00  0.00    -0.307 N
HETATM   12  C2  UNL     1      17.267  38.197 -13.497  1.00  0.00     0.225 A
ATOM     13  H1  UNL     1      17.723  37.430 -15.325  1.00  0.00     0.171 HD
HETATM   14  N7  UNL     1      16.393  38.122 -12.437  1.00  0.00    -0.318 N
ATOM     15  H7  UNL     1      16.532  38.741 -11.638  1.00  0.00     0.169 HD
BRANCH   9  16
HETATM   16  N2  UNL     1      15.875  35.675 -15.527  1.00  0.00    -0.383 N
ATOM     17  H22 UNL     1      16.624  35.512 -16.200  1.00  0.00     0.157 HD
ATOM     18  H21 UNL     1      15.000  35.179 -15.692  1.00  0.00     0.157 HD
ENDBRANCH   9  16
BRANCH  12  19
HETATM   19  O1  UNL     1      18.226  39.125 -13.342  1.00  0.00    -0.327 OA
HETATM   20  C1  UNL     1      19.039  39.626 -14.444  1.00  0.00     0.213 C
ENDBRANCH  12  19
ENDBRANCH   1   3
BRANCH   1  21
HETATM   21  C8  UNL     1      14.199  38.706  -9.284  1.00  0.00     0.120 C
BRANCH  21  22
HETATM   22  C9  UNL     1      13.375  39.914  -9.691  1.00  0.00     0.020 C
BRANCH  22  23
HETATM   23  C10 UNL     1      13.078  40.978  -8.761  1.00  0.00     0.002 C
BRANCH  23  24
HETATM   24  C11 UNL     1      11.663  40.955  -8.161  1.00  0.00     0.000 C
BRANCH  24  25
HETATM   25  C12 UNL     1      11.713  40.236  -6.856  1.00  0.00     0.000 C
BRANCH  25  26
HETATM   26  C13 UNL     1      11.331  38.800  -6.818  1.00  0.00     0.002 C
BRANCH  26  27
HETATM   27  C14 UNL     1      11.249  38.267  -5.394  1.00  0.00     0.027 C
BRANCH  27  28
HETATM   28  C15 UNL     1      10.202  39.014  -4.638  1.00  0.00     0.232 C
BRANCH  28  29
HETATM   29  N5  UNL     1       9.085  38.228  -4.162  1.00  0.00    -0.075 N
ATOM     30  H52 UNL     1       8.206  38.497  -4.602  1.00  0.00     0.277 HD
ATOM     31  H51 UNL     1       9.122  37.263  -4.491  1.00  0.00     0.277 HD
BRANCH  29  32
HETATM   32  C16 UNL     1       9.027  38.315  -2.720  1.00  0.00     0.237 C
BRANCH  32  33
HETATM   33  C17 UNL     1      10.274  37.802  -2.101  1.00  0.00     0.013 C
HETATM   34  C18 UNL     1      10.850  38.770  -1.080  1.00  0.00     0.008 C
HETATM   35  C19 UNL     1       9.793  39.166  -0.074  1.00  0.00     0.020 C
HETATM   36  C20 UNL     1       9.310  38.031   0.755  1.00  0.00     0.113 C
HETATM   37  N6  UNL     1       8.335  37.200   0.157  1.00  0.00    -0.421 N
HETATM   38  C21 UNL     1       8.752  36.271  -0.826  1.00  0.00     0.114 C
ATOM     39  H6  UNL     1       7.354  37.268   0.427  1.00  0.00     0.153 HD
HETATM   40  C22 UNL     1      10.119  36.472  -1.411  1.00  0.00     0.025 C
ENDBRANCH  32  33
ENDBRANCH  29  32
ENDBRANCH  28  29
ENDBRANCH  27  28
ENDBRANCH  26  27
ENDBRANCH  25  26
ENDBRANCH  24  25
ENDBRANCH  23  24
ENDBRANCH  22  23
ENDBRANCH  21  22
ENDBRANCH   1  21
TORSDOF 14
ENDMDL