MODEL 2
REMARK VINA RESULT: -7.920285404      1.553      2.374
REMARK  16 active torsions:
REMARK  status: ('A' for Active; 'I' for Inactive)
REMARK    1  A    between atoms: C2_2  and  C3_3
REMARK    2  A    between atoms: C3_3  and  C4_4
REMARK    3  A    between atoms: C4_4  and  C5_5
REMARK    4  A    between atoms: C6_7  and  C7_8
REMARK    5  A    between atoms: C7_8  and  C8_9
REMARK    6  A    between atoms: C10_11  and  C11_12
REMARK    7  A    between atoms: C10_11  and  C12_15
REMARK    8  A    between atoms: C11_12  and  O2_13
REMARK    9  A    between atoms: C12_15  and  C13_16
REMARK   10  A    between atoms: C13_16  and  C14_17
REMARK   11  A    between atoms: C14_17  and  C15_18
REMARK   12  A    between atoms: C15_18  and  C16_19
REMARK   13  A    between atoms: C16_19  and  C17_20
REMARK   14  A    between atoms: C20_23  and  O3_24
REMARK   15  A    between atoms: C23_31  and  O4_32
REMARK   16  A    between atoms: C24_34  and  O5_35
ROOT
HETATM    1  C8  UNL     1      11.297  39.907  -6.859  1.00  0.00     0.189 C
HETATM    2  C9  UNL     1      12.749  40.020  -7.226  1.00  0.00     0.046 C
HETATM    3  C10 UNL     1      12.682  41.149  -8.262  1.00  0.00     0.007 C
HETATM    4  C22 UNL     1      11.339  41.826  -7.967  1.00  0.00     0.244 C
HETATM    5  N1  UNL     1      10.979  41.292  -6.623  1.00  0.00    -0.070 N
ATOM      6  H11 UNL     1      11.430  41.733  -5.821  1.00  0.00     0.277 HD
ATOM      7  H12 UNL     1      10.037  41.493  -6.290  1.00  0.00     0.277 HD
ENDROOT
BRANCH   3   8
HETATM    8  C11 UNL     1      13.757  42.168  -8.018  1.00  0.00     0.175 C
BRANCH   8   9
HETATM    9  O2  UNL     1      13.735  42.713  -6.759  1.00  0.00    -0.400 OA
ATOM     10  H2  UNL     1      14.594  42.818  -6.367  1.00  0.00     0.209 HD
ENDBRANCH   8   9
ENDBRANCH   3   8
BRANCH   3  11
HETATM   11  C12 UNL     1      12.732  40.523  -9.615  1.00  0.00     0.013 C
BRANCH  11  12
HETATM   12  C13 UNL     1      13.655  39.356  -9.704  1.00  0.00     0.001 C
BRANCH  12  13
HETATM   13  C14 UNL     1      14.861  39.592 -10.613  1.00  0.00     0.000 C
BRANCH  13  14
HETATM   14  C15 UNL     1      14.550  39.427 -12.039  1.00  0.00     0.000 C
BRANCH  14  15
HETATM   15  C16 UNL     1      13.760  38.218 -12.373  1.00  0.00     0.005 C
BRANCH  15  16
HETATM   16  C17 UNL     1      14.309  37.226 -13.333  1.00  0.00    -0.012 C
HETATM   17  C18 UNL     1      15.426  36.448 -12.545  1.00  0.00     0.007 C
HETATM   18  C19 UNL     1      14.605  35.687 -11.541  1.00  0.00     0.032 C
HETATM   19  C20 UNL     1      13.275  35.441 -12.214  1.00  0.00     0.118 C
HETATM   20  C21 UNL     1      13.430  36.021 -13.610  1.00  0.00     0.036 C
BRANCH  19  21
HETATM   21  O3  UNL     1      13.105  34.063 -12.381  1.00  0.00    -0.396 OA
ATOM     22  H3  UNL     1      13.369  33.827 -13.262  1.00  0.00     0.210 HD
ENDBRANCH  19  21
ENDBRANCH  15  16
ENDBRANCH  14  15
ENDBRANCH  13  14
ENDBRANCH  12  13
ENDBRANCH  11  12
ENDBRANCH   3  11
BRANCH   1  23
HETATM   23  C7  UNL     1      10.951  38.916  -5.847  1.00  0.00     0.067 C
BRANCH  23  24
HETATM   24  C6  UNL     1      10.372  39.328  -4.552  1.00  0.00     0.155 C
HETATM   25  O1  UNL     1      11.051  38.617  -3.553  1.00  0.00    -0.375 OA
HETATM   26  C5  UNL     1      10.178  38.208  -2.597  1.00  0.00     0.153 C
HETATM   27  C24 UNL     1       8.857  38.866  -2.832  1.00  0.00     0.178 C
HETATM   28  C23 UNL     1       8.915  39.003  -4.373  1.00  0.00     0.178 C
BRANCH  26  29
HETATM   29  C4  UNL     1      10.711  38.431  -1.211  1.00  0.00     0.034 C
BRANCH  29  30
HETATM   30  C3  UNL     1       9.899  37.693  -0.167  1.00  0.00     0.002 C
BRANCH  30  31
HETATM   31  C2  UNL     1       9.456  38.591   0.942  1.00  0.00    -0.004 C
HETATM   32  C1  UNL     1       8.290  38.029   1.711  1.00  0.00     0.005 C
ENDBRANCH  30  31
ENDBRANCH  29  30
ENDBRANCH  26  29
BRANCH  27  33
HETATM   33  O5  UNL     1       8.883  40.148  -2.282  1.00  0.00    -0.390 OA
ATOM     34  H5  UNL     1       8.999  40.782  -2.980  1.00  0.00     0.210 HD
ENDBRANCH  27  33
BRANCH  28  35
HETATM   35  O4  UNL     1       8.590  37.799  -4.960  1.00  0.00    -0.390 OA
ATOM     36  H4  UNL     1       9.074  37.080  -4.572  1.00  0.00     0.210 HD
ENDBRANCH  28  35
ENDBRANCH  23  24
ENDBRANCH   1  23
TORSDOF 16
ENDMDL