MODEL 2
REMARK VINA RESULT: -6.867360999      4.906      6.525
REMARK  17 active torsions:
REMARK  status: ('A' for Active; 'I' for Inactive)
REMARK    1  A    between atoms: C3_3  and  C4_4
REMARK    2  A    between atoms: C5_5  and  C6_6
REMARK    3  A    between atoms: C6_6  and  C7_7
REMARK    4  A    between atoms: C7_7  and  C8_8
REMARK    5  A    between atoms: C8_8  and  O1_9
REMARK    6  A    between atoms: C8_8  and  C9_11
REMARK    7  A    between atoms: C9_11  and  C10_12
REMARK    8  A    between atoms: C10_12  and  C11_13
REMARK    9  A    between atoms: C11_13  and  C12_14
REMARK   10  A    between atoms: C13_15  and  C14_16
REMARK   11  A    between atoms: C14_16  and  C15_17
REMARK   12  A    between atoms: C19_21  and  O2_22
REMARK   13  A    between atoms: O2_22  and  C20_23
REMARK   14  A    between atoms: C22_25  and  O3_26
REMARK   15  A    between atoms: C23_28  and  O4_29
REMARK   16  A    between atoms: C24_31  and  O5_32
REMARK   17  A    between atoms: C25_34  and  O6_35
ROOT
HETATM    1  C15 UNL     1      14.285  38.963  -9.693  1.00  0.00     0.025 C
HETATM    2  C16 UNL     1      14.678  40.445  -9.595  1.00  0.00     0.034 C
HETATM    3  C17 UNL     1      13.998  40.939 -10.849  1.00  0.00    -0.028 C
HETATM    4  C18 UNL     1      13.943  39.956 -11.734  1.00  0.00     0.001 C
HETATM    5  C19 UNL     1      14.569  38.736 -11.167  1.00  0.00     0.149 C
ENDROOT
BRANCH   1   6
HETATM    6  C14 UNL     1      12.860  38.745  -9.329  1.00  0.00     0.034 C
BRANCH   6   7
HETATM    7  C13 UNL     1      12.839  38.275  -7.885  1.00  0.00    -0.030 C
HETATM    8  C12 UNL     1      11.846  38.592  -7.093  1.00  0.00    -0.031 C
BRANCH   8   9
HETATM    9  C11 UNL     1      11.617  38.263  -5.692  1.00  0.00     0.027 C
BRANCH   9  10
HETATM   10  C10 UNL     1      10.525  38.982  -4.972  1.00  0.00     0.006 C
BRANCH  10  11
HETATM   11  C9  UNL     1       9.617  38.104  -4.163  1.00  0.00     0.032 C
BRANCH  11  12
HETATM   12  C8  UNL     1       8.681  38.974  -3.323  1.00  0.00     0.118 C
BRANCH  12  13
HETATM   13  C7  UNL     1       9.359  40.252  -2.937  1.00  0.00     0.035 C
BRANCH  13  14
HETATM   14  C6  UNL     1       9.414  40.307  -1.409  1.00  0.00     0.029 C
BRANCH  14  15
HETATM   15  C5  UNL     1      10.529  39.536  -0.863  1.00  0.00    -0.027 C
HETATM   16  C4  UNL     1      10.369  38.477  -0.118  1.00  0.00    -0.004 C
BRANCH  16  17
HETATM   17  C3  UNL     1       9.112  37.901   0.285  1.00  0.00    -0.005 C
HETATM   18  C2  UNL     1       8.693  36.729  -0.212  1.00  0.00    -0.031 C
HETATM   19  C1  UNL     1       9.529  36.002  -1.194  1.00  0.00     0.036 C
ENDBRANCH  16  17
ENDBRANCH  14  15
ENDBRANCH  13  14
ENDBRANCH  12  13
BRANCH  12  20
HETATM   20  O1  UNL     1       7.552  39.312  -4.120  1.00  0.00    -0.396 OA
ATOM     21  H1  UNL     1       7.663  38.893  -4.965  1.00  0.00     0.210 HD
ENDBRANCH  12  20
ENDBRANCH  11  12
ENDBRANCH  10  11
ENDBRANCH   9  10
ENDBRANCH   8   9
ENDBRANCH   6   7
ENDBRANCH   1   6
BRANCH   5  22
HETATM   22  O2  UNL     1      13.915  37.640 -11.570  1.00  0.00    -0.374 OA
BRANCH  22  23
HETATM   23  C20 UNL     1      14.530  36.577 -12.103  1.00  0.00     0.156 C
HETATM   24  C21 UNL     1      15.784  36.865 -12.888  1.00  0.00     0.069 C
HETATM   25  C22 UNL     1      15.555  37.219 -14.321  1.00  0.00     0.152 C
HETATM   26  C23 UNL     1      14.592  36.338 -15.040  1.00  0.00     0.178 C
HETATM   27  C24 UNL     1      13.376  35.962 -14.261  1.00  0.00     0.180 C
HETATM   28  C25 UNL     1      13.689  35.580 -12.840  1.00  0.00     0.178 C
BRANCH  25  29
HETATM   29  O3  UNL     1      15.244  38.588 -14.493  1.00  0.00    -0.393 OA
ATOM     30  H3  UNL     1      14.315  38.731 -14.636  1.00  0.00     0.210 HD
ENDBRANCH  25  29
BRANCH  26  31
HETATM   31  O4  UNL     1      15.281  35.190 -15.483  1.00  0.00    -0.390 OA
ATOM     32  H4  UNL     1      14.953  34.956 -16.344  1.00  0.00     0.210 HD
ENDBRANCH  26  31
BRANCH  27  33
HETATM   33  O5  UNL     1      12.874  34.777 -14.859  1.00  0.00    -0.390 OA
ATOM     34  H5  UNL     1      12.169  34.476 -14.298  1.00  0.00     0.210 HD
ENDBRANCH  27  33
BRANCH  28  35
HETATM   35  O6  UNL     1      12.551  35.209 -12.176  1.00  0.00    -0.390 OA
ATOM     36  H6  UNL     1      12.113  34.452 -12.548  1.00  0.00     0.210 HD
ENDBRANCH  28  35
ENDBRANCH  22  23
ENDBRANCH   5  22
TORSDOF 17
ENDMDL