MODEL 3
REMARK VINA RESULT: -7.237632488      1.605      3.432
REMARK  15 active torsions:
REMARK  status: ('A' for Active; 'I' for Inactive)
REMARK    1  A    between atoms: C1_2  and  C2_4
REMARK    2  A    between atoms: C5_7  and  O3_8
REMARK    3  A    between atoms: C5_7  and  C6_10
REMARK    4  A    between atoms: C6_10  and  C7_11
REMARK    5  A    between atoms: C7_11  and  C8_12
REMARK    6  A    between atoms: C8_12  and  C9_13
REMARK    7  A    between atoms: C10_14  and  C11_15
REMARK    8  A    between atoms: C11_15  and  C12_16
REMARK    9  A    between atoms: C12_16  and  C13_17
REMARK   10  A    between atoms: C13_17  and  C14_18
REMARK   11  A    between atoms: C14_18  and  C15_19
REMARK   12  A    between atoms: C15_19  and  C16_20
REMARK   13  A    between atoms: C18_24  and  C19_25
REMARK   14  A    between atoms: C19_25  and  O4_26
REMARK   15  A    between atoms: C22_32  and  O5_33
ROOT
HETATM    1  C8  UNL     1      13.881  37.937  -9.145  1.00  0.00     0.027 C
ENDROOT
BRANCH   1   2
HETATM    2  C7  UNL     1      14.359  36.805 -10.033  1.00  0.00     0.007 C
BRANCH   2   3
HETATM    3  C6  UNL     1      13.491  36.824 -11.285  1.00  0.00     0.038 C
BRANCH   3   4
HETATM    4  C5  UNL     1      14.400  36.421 -12.426  1.00  0.00     0.063 C
HETATM    5  C4  UNL     1      13.660  35.834 -13.598  1.00  0.00     0.039 C
HETATM    6  C3  UNL     1      14.532  36.160 -14.777  1.00  0.00     0.024 C
HETATM    7  C2  UNL     1      15.540  37.196 -14.339  1.00  0.00     0.057 C
HETATM    8  C20 UNL     1      15.054  37.633 -13.001  1.00  0.00     0.041 C
HETATM    9  C23 UNL     1      15.530  38.428 -15.181  1.00  0.00     0.053 C
HETATM   10  C21 UNL     1      13.975  38.644 -13.332  1.00  0.00     0.040 C
HETATM   11  C22 UNL     1      14.347  39.203 -14.685  1.00  0.00     0.120 C
BRANCH   7  12
HETATM   12  C1  UNL     1      16.901  36.618 -14.200  1.00  0.00     0.182 C
HETATM   13  O1  UNL     1      17.606  36.820 -13.182  1.00  0.00    -0.647 OA
HETATM   14  O2  UNL     1      17.423  35.824 -15.230  1.00  0.00    -0.647 OA
ENDBRANCH   7  12
BRANCH  11  15
HETATM   15  O5  UNL     1      14.651  40.569 -14.546  1.00  0.00    -0.396 OA
ATOM     16  H5  UNL     1      14.184  41.057 -15.212  1.00  0.00     0.210 HD
ENDBRANCH  11  15
BRANCH   4  17
HETATM   17  O3  UNL     1      15.261  35.469 -11.932  1.00  0.00    -0.389 OA
ATOM     18  H3  UNL     1      15.195  35.465 -10.984  1.00  0.00     0.210 HD
ENDBRANCH   4  17
ENDBRANCH   3   4
ENDBRANCH   2   3
ENDBRANCH   1   2
BRANCH   1  19
HETATM   19  C9  UNL     1      13.284  39.054  -9.874  1.00  0.00    -0.031 C
HETATM   20  C10 UNL     1      13.875  40.177 -10.156  1.00  0.00    -0.031 C
BRANCH  20  21
HETATM   21  C11 UNL     1      15.244  40.584  -9.817  1.00  0.00     0.027 C
BRANCH  21  22
HETATM   22  C12 UNL     1      15.526  42.020 -10.099  1.00  0.00     0.004 C
BRANCH  22  23
HETATM   23  C13 UNL     1      15.784  42.773  -8.825  1.00  0.00     0.001 C
BRANCH  23  24
HETATM   24  C14 UNL     1      14.583  43.512  -8.382  1.00  0.00     0.006 C
BRANCH  24  25
HETATM   25  C15 UNL     1      14.093  43.012  -7.048  1.00  0.00     0.058 C
BRANCH  25  26
HETATM   26  C16 UNL     1      12.963  42.090  -7.224  1.00  0.00     0.026 A
HETATM   27  C17 UNL     1      11.880  42.075  -8.059  1.00  0.00     0.114 A
HETATM   28  N1  UNL     1      11.113  40.997  -7.831  1.00  0.00    -0.352 N
HETATM   29  C18 UNL     1      11.700  40.303  -6.841  1.00  0.00     0.105 A
ATOM     30  H1  UNL     1      10.250  40.751  -8.317  1.00  0.00     0.166 HD
HETATM   31  N2  UNL     1      12.816  40.957  -6.472  1.00  0.00    -0.346 N
ATOM     32  H2  UNL     1      13.457  40.653  -5.738  1.00  0.00     0.167 HD
BRANCH  29  33
HETATM   33  C19 UNL     1      11.230  39.025  -6.229  1.00  0.00     0.240 C
BRANCH  33  34
HETATM   34  O4  UNL     1      10.699  38.231  -7.239  1.00  0.00    -0.393 OA
ATOM     35  H4  UNL     1       9.860  37.898  -6.943  1.00  0.00     0.209 HD
ENDBRANCH  33  34
ENDBRANCH  29  33
ENDBRANCH  25  26
ENDBRANCH  24  25
ENDBRANCH  23  24
ENDBRANCH  22  23
ENDBRANCH  21  22
ENDBRANCH  20  21
ENDBRANCH   1  19
TORSDOF 15
ENDMDL