MODEL 4
REMARK VINA RESULT: -6.336960046      1.735      3.554
REMARK  15 active torsions:
REMARK  status: ('A' for Active; 'I' for Inactive)
REMARK    1  A    between atoms: C2_2  and  C3_3
REMARK    2  A    between atoms: C3_3  and  C4_4
REMARK    3  A    between atoms: C4_4  and  C5_5
REMARK    4  A    between atoms: C5_5  and  C6_6
REMARK    5  A    between atoms: C6_6  and  C7_7
REMARK    6  A    between atoms: C7_7  and  C8_8
REMARK    7  A    between atoms: C8_8  and  C9_9
REMARK    8  A    between atoms: C9_9  and  C10_10
REMARK    9  A    between atoms: C10_10  and  C11_11
REMARK   10  A    between atoms: C11_11  and  C12_12
REMARK   11  A    between atoms: N1_13  and  C13_15
REMARK   12  A    between atoms: C14_16  and  O1_17
REMARK   13  A    between atoms: C17_21  and  O2_22
REMARK   14  A    between atoms: C18_24  and  O3_25
REMARK   15  A    between atoms: C22_31  and  O5_32
ROOT
HETATM    1  C13 UNL     1      13.639  38.245 -10.427  1.00  0.00     0.116 C
HETATM    2  C14 UNL     1      14.899  39.007 -10.382  1.00  0.00     0.147 C
HETATM    3  C15 UNL     1      14.887  40.306 -11.150  1.00  0.00     0.048 C
HETATM    4  C16 UNL     1      13.588  41.017 -11.160  1.00  0.00     0.015 C
HETATM    5  C17 UNL     1      15.574  40.134 -12.447  1.00  0.00     0.181 C
HETATM    6  C18 UNL     1      14.847  39.615 -13.605  1.00  0.00     0.076 C
HETATM    7  C19 UNL     1      14.593  38.140 -13.695  1.00  0.00    -0.023 C
HETATM    8  C20 UNL     1      15.913  37.433 -13.860  1.00  0.00     0.049 C
HETATM    9  C21 UNL     1      13.560  37.528 -12.898  1.00  0.00     0.162 C
HETATM   10  O4  UNL     1      13.354  36.231 -13.463  1.00  0.00    -0.351 OA
HETATM   11  C22 UNL     1      13.924  35.305 -12.647  1.00  0.00     0.258 C
HETATM   12  C23 UNL     1      14.376  35.992 -11.368  1.00  0.00     0.070 C
HETATM   13  C24 UNL     1      13.534  37.226 -11.512  1.00  0.00     0.049 C
ENDROOT
BRANCH   1  14
HETATM   14  N1  UNL     1      13.286  37.609  -9.227  1.00  0.00    -0.395 N
HETATM   15  C12 UNL     1      13.127  38.159  -7.998  1.00  0.00     0.056 C
ATOM     16  H1  UNL     1      13.129  36.602  -9.287  1.00  0.00     0.159 HD
BRANCH  15  17
HETATM   17  C11 UNL     1      11.986  39.096  -7.732  1.00  0.00     0.044 C
BRANCH  17  18
HETATM   18  C10 UNL     1      12.474  40.446  -7.261  1.00  0.00     0.005 C
BRANCH  18  19
HETATM   19  C9  UNL     1      11.409  41.496  -7.238  1.00  0.00     0.000 C
BRANCH  19  20
HETATM   20  C8  UNL     1      11.281  42.226  -8.554  1.00  0.00     0.000 C
BRANCH  20  21
HETATM   21  C7  UNL     1      11.303  43.727  -8.404  1.00  0.00     0.000 C
BRANCH  21  22
HETATM   22  C6  UNL     1      12.630  44.321  -8.828  1.00  0.00     0.000 C
BRANCH  22  23
HETATM   23  C5  UNL     1      13.399  44.691  -7.563  1.00  0.00     0.000 C
BRANCH  23  24
HETATM   24  C4  UNL     1      14.491  43.749  -7.249  1.00  0.00     0.000 C
BRANCH  24  25
HETATM   25  C3  UNL     1      15.060  42.893  -8.305  1.00  0.00    -0.000 C
BRANCH  25  26
HETATM   26  C2  UNL     1      16.288  43.308  -9.017  1.00  0.00    -0.005 C
HETATM   27  C1  UNL     1      17.105  44.388  -8.409  1.00  0.00     0.005 C
ENDBRANCH  25  26
ENDBRANCH  24  25
ENDBRANCH  23  24
ENDBRANCH  22  23
ENDBRANCH  21  22
ENDBRANCH  20  21
ENDBRANCH  19  20
ENDBRANCH  18  19
ENDBRANCH  17  18
ENDBRANCH  15  17
ENDBRANCH   1  14
BRANCH   2  28
HETATM   28  O1  UNL     1      15.465  39.155  -9.117  1.00  0.00    -0.393 OA
ATOM     29  H1  UNL     1      16.197  39.759  -9.066  1.00  0.00     0.210 HD
ENDBRANCH   2  28
BRANCH   5  30
HETATM   30  O2  UNL     1      16.100  41.399 -12.818  1.00  0.00    -0.388 OA
ATOM     31  H2  UNL     1      15.363  41.968 -13.007  1.00  0.00     0.210 HD
ENDBRANCH   5  30
BRANCH  11  32
HETATM   32  O5  UNL     1      12.904  34.379 -12.312  1.00  0.00    -0.371 OA
ATOM     33  H5  UNL     1      13.300  33.516 -12.349  1.00  0.00     0.212 HD
ENDBRANCH  11  32
BRANCH   6  34
HETATM   34  O3  UNL     1      13.727  40.379 -13.992  1.00  0.00    -0.362 OA
ATOM     35  H3  UNL     1      12.918  39.887 -14.077  1.00  0.00     0.217 HD
ENDBRANCH   6  34
TORSDOF 15
ENDMDL