MODEL 1
REMARK VINA RESULT: -7.880065366      0.000      0.000
REMARK  14 active torsions:
REMARK  status: ('A' for Active; 'I' for Inactive)
REMARK    1  A    between atoms: C3_5  and  N2_6
REMARK    2  A    between atoms: N2_6  and  C4_8
REMARK    3  A    between atoms: C4_8  and  C5_9
REMARK    4  A    between atoms: C5_9  and  C6_10
REMARK    5  A    between atoms: C6_10  and  C7_11
REMARK    6  A    between atoms: C7_11  and  C8_12
REMARK    7  A    between atoms: C8_12  and  C9_13
REMARK    8  A    between atoms: C9_13  and  C10_14
REMARK    9  A    between atoms: C10_14  and  N3_15
REMARK   10  A    between atoms: C13_19  and  N4_20
REMARK   11  A    between atoms: N4_20  and  C14_22
REMARK   12  A    between atoms: C17_25  and  C18_26
REMARK   13  A    between atoms: C18_26  and  C19_27
REMARK   14  A    between atoms: C19_27  and  O1_28
ROOT
HETATM    1  N3  UNL     1      15.576  43.566  -8.661  1.00  0.00    -0.376 N
ATOM      2  H3  UNL     1      16.039  44.474  -8.662  1.00  0.00     0.161 HD
HETATM    3  C11 UNL     1      16.019  42.609  -9.398  1.00  0.00     0.105 A
HETATM    4  C12 UNL     1      15.402  41.352  -9.416  1.00  0.00     0.096 A
HETATM    5  C13 UNL     1      15.863  40.328 -10.198  1.00  0.00     0.105 A
HETATM    6  N5  UNL     1      16.954  40.538 -10.980  1.00  0.00    -0.339 N
ATOM      7  H5  UNL     1      17.321  39.793 -11.574  1.00  0.00     0.168 HD
HETATM    8  C22 UNL     1      17.536  41.738 -10.955  1.00  0.00     0.183 A
HETATM    9  N6  UNL     1      17.092  42.757 -10.190  1.00  0.00    -0.339 N
ATOM     10  H6  UNL     1      17.580  43.652 -10.214  1.00  0.00     0.168 HD
ENDROOT
BRANCH   1  11
HETATM   11  C10 UNL     1      14.392  43.334  -7.819  1.00  0.00     0.121 C
BRANCH  11  12
HETATM   12  C9  UNL     1      13.200  43.822  -8.584  1.00  0.00     0.020 C
BRANCH  12  13
HETATM   13  C8  UNL     1      11.895  43.240  -8.138  1.00  0.00     0.002 C
BRANCH  13  14
HETATM   14  C7  UNL     1      11.955  41.740  -8.276  1.00  0.00     0.000 C
BRANCH  14  15
HETATM   15  C6  UNL     1      11.585  41.016  -7.000  1.00  0.00     0.002 C
BRANCH  15  16
HETATM   16  C5  UNL     1      11.988  39.581  -7.112  1.00  0.00     0.020 C
BRANCH  16  17
HETATM   17  C4  UNL     1      11.260  38.667  -6.156  1.00  0.00     0.138 C
BRANCH  17  18
HETATM   18  N2  UNL     1      10.850  39.431  -4.990  1.00  0.00    -0.225 N
ATOM     19  H2  UNL     1      10.690  40.436  -5.068  1.00  0.00     0.177 HD
BRANCH  18  20
HETATM   20  C3  UNL     1      10.687  38.834  -3.852  1.00  0.00     0.694 A
HETATM   21  N1  UNL     1       9.724  37.932  -3.578  1.00  0.00    -0.179 N
HETATM   22  C2  UNL     1       9.856  37.520  -2.303  1.00  0.00     0.108 A
ATOM     23  H1  UNL     1       9.009  37.613  -4.232  1.00  0.00     0.185 HD
HETATM   24  C1  UNL     1       9.015  36.533  -1.571  1.00  0.00     0.091 C
HETATM   25  N8  UNL     1      10.909  38.175  -1.791  1.00  0.00    -0.275 N
HETATM   26  N7  UNL     1      11.407  38.967  -2.730  1.00  0.00    -0.131 N
ATOM     27  H8  UNL     1      11.264  38.080  -0.839  1.00  0.00     0.189 HD
ATOM     28  H7  UNL     1      12.212  39.581  -2.616  1.00  0.00     0.205 HD
ENDBRANCH  18  20
ENDBRANCH  17  18
ENDBRANCH  16  17
ENDBRANCH  15  16
ENDBRANCH  14  15
ENDBRANCH  13  14
ENDBRANCH  12  13
ENDBRANCH  11  12
ENDBRANCH   1  11
BRANCH   5  29
HETATM   29  N4  UNL     1      15.205  39.069 -10.220  1.00  0.00    -0.372 N
ATOM     30  H4  UNL     1      15.741  38.207 -10.117  1.00  0.00     0.161 HD
BRANCH  29  31
HETATM   31  C14 UNL     1      13.777  39.019 -10.389  1.00  0.00     0.083 C
HETATM   32  C15 UNL     1      13.235  37.623 -10.123  1.00  0.00     0.025 C
HETATM   33  C16 UNL     1      13.692  36.621 -11.116  1.00  0.00     0.007 C
HETATM   34  C17 UNL     1      13.608  37.071 -12.560  1.00  0.00    -0.012 C
HETATM   35  C20 UNL     1      14.105  38.445 -12.814  1.00  0.00     0.007 C
HETATM   36  C21 UNL     1      13.489  39.409 -11.824  1.00  0.00     0.025 C
BRANCH  34  37
HETATM   37  C18 UNL     1      14.239  35.986 -13.379  1.00  0.00     0.030 C
BRANCH  37  38
HETATM   38  C19 UNL     1      13.771  35.862 -14.783  1.00  0.00     0.164 C
BRANCH  38  39
HETATM   39  O1  UNL     1      12.861  34.844 -15.004  1.00  0.00    -0.401 OA
ATOM     40  H1  UNL     1      12.689  34.654 -15.919  1.00  0.00     0.209 HD
ENDBRANCH  38  39
ENDBRANCH  37  38
ENDBRANCH  34  37
ENDBRANCH  29  31
ENDBRANCH   5  29
TORSDOF 14
ENDMDL