MODEL 5
REMARK VINA RESULT: -6.955977064      0.948      3.394
REMARK  17 active torsions:
REMARK  status: ('A' for Active; 'I' for Inactive)
REMARK    1  A    between atoms: C6_6  and  C7_7
REMARK    2  A    between atoms: C7_7  and  C8_8
REMARK    3  A    between atoms: C8_8  and  C9_9
REMARK    4  A    between atoms: C9_9  and  C10_10
REMARK    5  A    between atoms: C10_10  and  C11_11
REMARK    6  A    between atoms: C11_11  and  C12_12
REMARK    7  A    between atoms: C12_12  and  C13_13
REMARK    8  A    between atoms: C13_13  and  C14_14
REMARK    9  A    between atoms: C14_14  and  C15_15
REMARK   10  A    between atoms: C15_15  and  C16_16
REMARK   11  A    between atoms: C16_16  and  O1_17
REMARK   12  A    between atoms: O1_17  and  C17_18
REMARK   13  A    between atoms: C18_19  and  O2_20
REMARK   14  A    between atoms: C19_22  and  O3_23
REMARK   15  A    between atoms: C20_25  and  O4_26
REMARK   16  A    between atoms: C21_28  and  O5_29
REMARK   17  A    between atoms: C22_31  and  O6_32
ROOT
HETATM    1  C16 UNL     1      10.918  38.613  -6.072  1.00  0.00     0.168 C
ENDROOT
BRANCH   1   2
HETATM    2  C15 UNL     1      11.457  40.019  -6.117  1.00  0.00     0.026 C
BRANCH   2   3
HETATM    3  C14 UNL     1      11.688  40.449  -7.537  1.00  0.00     0.002 C
BRANCH   3   4
HETATM    4  C13 UNL     1      11.604  41.938  -7.754  1.00  0.00     0.000 C
BRANCH   4   5
HETATM    5  C12 UNL     1      11.290  42.140  -9.240  1.00  0.00     0.000 C
BRANCH   5   6
HETATM    6  C11 UNL     1      12.300  43.034  -9.907  1.00  0.00     0.000 C
BRANCH   6   7
HETATM    7  C10 UNL     1      13.051  43.871  -8.915  1.00  0.00     0.000 C
BRANCH   7   8
HETATM    8  C9  UNL     1      14.518  43.823  -9.172  1.00  0.00     0.000 C
BRANCH   8   9
HETATM    9  C8  UNL     1      15.061  42.441  -8.972  1.00  0.00     0.000 C
BRANCH   9  10
HETATM   10  C7  UNL     1      15.833  41.979 -10.215  1.00  0.00     0.005 C
BRANCH  10  11
HETATM   11  C6  UNL     1      15.662  40.458 -10.267  1.00  0.00    -0.009 C
HETATM   12  C5  UNL     1      14.296  39.984  -9.887  1.00  0.00    -0.002 C
HETATM   13  C4  UNL     1      14.290  38.621  -9.207  1.00  0.00     0.010 C
HETATM   14  C24 UNL     1      14.006  39.704 -11.345  1.00  0.00     0.018 C
HETATM   15  C3  UNL     1      13.312  37.810 -10.067  1.00  0.00     0.034 C
HETATM   16  C2  UNL     1      13.669  38.264 -11.427  1.00  0.00    -0.085 C
HETATM   17  C1  UNL     1      13.682  37.523 -12.513  1.00  0.00     0.014 C
HETATM   18  C23 UNL     1      15.440  40.032 -11.706  1.00  0.00     0.014 C
ENDBRANCH  10  11
ENDBRANCH   9  10
ENDBRANCH   8   9
ENDBRANCH   7   8
ENDBRANCH   6   7
ENDBRANCH   5   6
ENDBRANCH   4   5
ENDBRANCH   3   4
ENDBRANCH   2   3
ENDBRANCH   1   2
BRANCH   1  19
HETATM   19  O1  UNL     1       9.821  38.447  -5.245  1.00  0.00    -0.381 OA
BRANCH  19  20
HETATM   20  C17 UNL     1       9.952  39.183  -4.111  1.00  0.00     0.183 C
HETATM   21  C18 UNL     1       8.879  40.242  -3.949  1.00  0.00     0.181 C
HETATM   22  C19 UNL     1       9.236  41.147  -2.813  1.00  0.00     0.180 C
HETATM   23  C20 UNL     1       9.584  40.446  -1.544  1.00  0.00     0.180 C
HETATM   24  C21 UNL     1      10.354  39.179  -1.722  1.00  0.00     0.180 C
HETATM   25  C22 UNL     1       9.846  38.321  -2.842  1.00  0.00     0.181 C
BRANCH  21  26
HETATM   26  O2  UNL     1       7.650  39.645  -3.713  1.00  0.00    -0.390 OA
ATOM     27  H2  UNL     1       7.460  39.008  -4.392  1.00  0.00     0.210 HD
ENDBRANCH  21  26
BRANCH  22  28
HETATM   28  O3  UNL     1       8.103  41.947  -2.552  1.00  0.00    -0.390 OA
ATOM     29  H3  UNL     1       7.936  41.896  -1.618  1.00  0.00     0.210 HD
ENDBRANCH  22  28
BRANCH  23  30
HETATM   30  O4  UNL     1      10.377  41.314  -0.778  1.00  0.00    -0.390 OA
ATOM     31  H4  UNL     1      11.170  40.849  -0.539  1.00  0.00     0.210 HD
ENDBRANCH  23  30
BRANCH  24  32
HETATM   32  O5  UNL     1      11.719  39.389  -1.943  1.00  0.00    -0.390 OA
ATOM     33  H5  UNL     1      12.274  38.907  -1.343  1.00  0.00     0.210 HD
ENDBRANCH  24  32
BRANCH  25  34
HETATM   34  O6  UNL     1      10.591  37.173  -2.946  1.00  0.00    -0.390 OA
ATOM     35  H6  UNL     1      10.593  36.681  -2.133  1.00  0.00     0.210 HD
ENDBRANCH  25  34
ENDBRANCH  19  20
ENDBRANCH   1  19
TORSDOF 17
ENDMDL