MODEL 5
REMARK VINA RESULT: -7.971994275      1.976      2.698
REMARK  15 active torsions:
REMARK  status: ('A' for Active; 'I' for Inactive)
REMARK    1  A    between atoms: C3_4  and  C4_5
REMARK    2  A    between atoms: C4_5  and  C5_6
REMARK    3  A    between atoms: C6_7  and  C7_8
REMARK    4  A    between atoms: C7_8  and  C8_9
REMARK    5  A    between atoms: C9_10  and  C10_11
REMARK    6  A    between atoms: C10_11  and  C11_12
REMARK    7  A    between atoms: C11_12  and  C12_13
REMARK    8  A    between atoms: C12_13  and  C13_14
REMARK    9  A    between atoms: C13_14  and  C14_15
REMARK   10  A    between atoms: C14_15  and  C15_16
REMARK   11  A    between atoms: C15_16  and  O2_17
REMARK   12  A    between atoms: C15_16  and  C16_19
REMARK   13  A    between atoms: C17_20  and  C18_21
REMARK   14  A    between atoms: C21_27  and  O3_28
REMARK   15  A    between atoms: C22_30  and  O4_31
ROOT
HETATM    1  C14 UNL     1      11.280  40.509  -6.348  1.00  0.00     0.036 C
ENDROOT
BRANCH   1   2
HETATM    2  C13 UNL     1      12.547  41.228  -6.786  1.00  0.00     0.003 C
BRANCH   2   3
HETATM    3  C12 UNL     1      12.257  42.189  -7.913  1.00  0.00     0.000 C
BRANCH   3   4
HETATM    4  C11 UNL     1      12.082  41.421  -9.186  1.00  0.00     0.004 C
BRANCH   4   5
HETATM    5  C10 UNL     1      13.375  41.297  -9.930  1.00  0.00     0.027 C
BRANCH   5   6
HETATM    6  C9  UNL     1      13.585  39.864 -10.236  1.00  0.00    -0.030 C
HETATM    7  C8  UNL     1      14.115  39.068  -9.339  1.00  0.00    -0.027 C
BRANCH   7   8
HETATM    8  C7  UNL     1      14.317  37.632  -9.666  1.00  0.00     0.053 C
BRANCH   8   9
HETATM    9  C6  UNL     1      13.197  37.230 -10.543  1.00  0.00    -0.027 C
HETATM   10  C5  UNL     1      13.326  36.764 -11.764  1.00  0.00    -0.026 C
BRANCH  10  11
HETATM   11  C4  UNL     1      14.563  36.545 -12.516  1.00  0.00     0.087 C
BRANCH  11  12
HETATM   12  C3  UNL     1      15.001  37.736 -13.323  1.00  0.00     0.264 C
HETATM   13  O1  UNL     1      13.994  38.632 -13.575  1.00  0.00    -0.354 OA
HETATM   14  C2  UNL     1      14.686  39.620 -14.315  1.00  0.00     0.149 C
HETATM   15  C1  UNL     1      14.852  39.040 -15.707  1.00  0.00     0.042 C
HETATM   16  C23 UNL     1      16.013  39.629 -13.566  1.00  0.00     0.149 C
HETATM   17  O5  UNL     1      15.965  38.503 -12.713  1.00  0.00    -0.354 OA
HETATM   18  C24 UNL     1      16.090  40.913 -12.794  1.00  0.00     0.042 C
ENDBRANCH  11  12
ENDBRANCH  10  11
ENDBRANCH   8   9
ENDBRANCH   7   8
ENDBRANCH   5   6
ENDBRANCH   4   5
ENDBRANCH   3   4
ENDBRANCH   2   3
ENDBRANCH   1   2
BRANCH   1  19
HETATM   19  C15 UNL     1      11.489  39.029  -6.231  1.00  0.00     0.140 C
BRANCH  19  20
HETATM   20  O2  UNL     1      10.889  38.429  -7.360  1.00  0.00    -0.392 OA
ATOM     21  H2  UNL     1      11.044  37.493  -7.298  1.00  0.00     0.210 HD
ENDBRANCH  19  20
BRANCH  19  22
HETATM   22  C16 UNL     1      10.760  38.493  -5.055  1.00  0.00     0.002 C
HETATM   23  C17 UNL     1      10.742  39.119  -3.906  1.00  0.00     0.007 C
BRANCH  23  24
HETATM   24  C18 UNL     1      10.035  38.636  -2.698  1.00  0.00     0.239 C
HETATM   25  N1  UNL     1       9.807  37.210  -2.797  1.00  0.00    -0.065 N
HETATM   26  C19 UNL     1       9.706  36.554  -1.518  1.00  0.00     0.235 C
ATOM     27  H12 UNL     1       8.986  37.014  -3.368  1.00  0.00     0.278 HD
ATOM     28  H11 UNL     1      10.524  36.769  -3.373  1.00  0.00     0.278 HD
HETATM   29  C20 UNL     1       9.124  37.410  -0.448  1.00  0.00     0.062 C
HETATM   30  C21 UNL     1       9.838  38.728  -0.280  1.00  0.00     0.150 C
HETATM   31  C22 UNL     1      10.836  38.883  -1.436  1.00  0.00     0.181 C
BRANCH  30  32
HETATM   32  O3  UNL     1      10.450  38.874   0.941  1.00  0.00    -0.393 OA
ATOM     33  H3  UNL     1       9.985  39.451   1.536  1.00  0.00     0.210 HD
ENDBRANCH  30  32
BRANCH  31  34
HETATM   34  O4  UNL     1      11.420  40.138  -1.416  1.00  0.00    -0.391 OA
ATOM     35  H4  UNL     1      10.944  40.752  -0.869  1.00  0.00     0.210 HD
ENDBRANCH  31  34
ENDBRANCH  23  24
ENDBRANCH  19  22
ENDBRANCH   1  19
TORSDOF 15
ENDMDL