MODEL 3
REMARK VINA RESULT: -8.161892371      2.056      3.322
REMARK  15 active torsions:
REMARK  status: ('A' for Active; 'I' for Inactive)
REMARK    1  A    between atoms: C2_2  and  C3_3
REMARK    2  A    between atoms: C3_3  and  C4_4
REMARK    3  A    between atoms: C4_4  and  C5_5
REMARK    4  A    between atoms: C5_5  and  C6_6
REMARK    5  A    between atoms: C6_6  and  C7_7
REMARK    6  A    between atoms: C7_7  and  C8_8
REMARK    7  A    between atoms: C8_8  and  C9_9
REMARK    8  A    between atoms: C9_9  and  N1_10
REMARK    9  A    between atoms: N1_10  and  C10_12
REMARK   10  A    between atoms: C11_15  and  N3_16
REMARK   11  A    between atoms: N3_16  and  C13_18
REMARK   12  A    between atoms: C13_18  and  C14_19
REMARK   13  A    between atoms: C18_23  and  C19_24
REMARK   14  A    between atoms: C19_24  and  O1_25
REMARK   15  A    between atoms: C22_35  and  N6_36
ROOT
HETATM    1  C10 UNL     1      11.469  41.237  -6.566  1.00  0.00     0.707 A
HETATM    2  N2  UNL     1      12.271  41.338  -7.638  1.00  0.00    -0.021 N
ATOM      3  H2  UNL     1      13.001  40.639  -7.772  1.00  0.00     0.203 HD
HETATM    4  C11 UNL     1      12.146  42.321  -8.537  1.00  0.00     0.709 A
HETATM    5  N5  UNL     1      11.171  43.261  -8.364  1.00  0.00    -0.022 N
ATOM      6  H5  UNL     1      11.064  44.016  -9.042  1.00  0.00     0.203 HD
HETATM    7  C22 UNL     1      10.352  43.192  -7.302  1.00  0.00     0.705 A
HETATM    8  N7  UNL     1      10.515  42.190  -6.430  1.00  0.00    -0.022 N
ATOM      9  H7  UNL     1       9.890  42.140  -5.625  1.00  0.00     0.203 HD
ENDROOT
BRANCH   4  10
HETATM   10  N3  UNL     1      13.042  42.399  -9.624  1.00  0.00    -0.215 N
HETATM   11  C12 UNL     1      12.661  43.129 -10.811  1.00  0.00     0.169 C
BRANCH  10  12
HETATM   12  C13 UNL     1      14.332  41.778  -9.558  1.00  0.00     0.197 C
BRANCH  12  13
HETATM   13  C14 UNL     1      14.205  40.329  -9.895  1.00  0.00     0.031 A
HETATM   14  C15 UNL     1      13.958  39.909 -11.183  1.00  0.00     0.041 A
HETATM   15  C16 UNL     1      13.840  38.544 -11.467  1.00  0.00     0.008 A
HETATM   16  C17 UNL     1      13.603  37.789 -12.595  1.00  0.00     0.049 A
HETATM   17  C20 UNL     1      13.970  37.607 -10.448  1.00  0.00     0.153 A
HETATM   18  C18 UNL     1      13.598  36.455 -12.233  1.00  0.00     0.078 A
HETATM   19  O2  UNL     1      13.821  36.413 -10.943  1.00  0.00    -0.306 OA
HETATM   20  C21 UNL     1      14.216  38.076  -9.180  1.00  0.00     0.280 A
HETATM   21  O3  UNL     1      14.344  37.263  -8.230  1.00  0.00    -0.265 OA
HETATM   22  N4  UNL     1      14.328  39.406  -8.926  1.00  0.00    -0.323 N
ATOM     23  H4  UNL     1      14.510  39.714  -7.970  1.00  0.00     0.169 HD
BRANCH  18  24
HETATM   24  C19 UNL     1      13.374  35.277 -13.149  1.00  0.00     0.229 C
BRANCH  24  25
HETATM   25  O1  UNL     1      13.124  34.138 -12.409  1.00  0.00    -0.394 OA
ATOM     26  H1  UNL     1      13.940  33.771 -12.088  1.00  0.00     0.209 HD
ENDBRANCH  24  25
ENDBRANCH  18  24
ENDBRANCH  12  13
ENDBRANCH  10  12
ENDBRANCH   4  10
BRANCH   1  27
HETATM   27  N1  UNL     1      11.575  40.308  -5.733  1.00  0.00    -0.225 N
ATOM     28  H1  UNL     1      12.010  40.544  -4.842  1.00  0.00     0.177 HD
BRANCH  27  29
HETATM   29  C9  UNL     1      11.155  38.960  -5.894  1.00  0.00     0.138 C
BRANCH  29  30
HETATM   30  C8  UNL     1      10.818  38.513  -4.434  1.00  0.00     0.020 C
BRANCH  30  31
HETATM   31  C7  UNL     1       9.430  39.007  -4.201  1.00  0.00     0.002 C
BRANCH  31  32
HETATM   32  C6  UNL     1       8.976  38.715  -2.793  1.00  0.00     0.000 C
BRANCH  32  33
HETATM   33  C5  UNL     1       9.431  37.330  -2.399  1.00  0.00     0.000 C
BRANCH  33  34
HETATM   34  C4  UNL     1       9.815  37.232  -0.944  1.00  0.00     0.000 C
BRANCH  34  35
HETATM   35  C3  UNL     1      10.361  38.544  -0.451  1.00  0.00    -0.000 C
BRANCH  35  36
HETATM   36  C2  UNL     1       9.909  38.795   0.994  1.00  0.00    -0.005 C
HETATM   37  C1  UNL     1       8.580  38.118   1.174  1.00  0.00     0.005 C
ENDBRANCH  35  36
ENDBRANCH  34  35
ENDBRANCH  33  34
ENDBRANCH  32  33
ENDBRANCH  31  32
ENDBRANCH  30  31
ENDBRANCH  29  30
ENDBRANCH  27  29
ENDBRANCH   1  27
BRANCH   7  38
HETATM   38  N6  UNL     1       9.439  44.075  -7.135  1.00  0.00    -0.234 N
ATOM     39  H62 UNL     1       8.451  43.823  -7.150  1.00  0.00     0.174 HD
ATOM     40  H61 UNL     1       9.692  45.051  -6.981  1.00  0.00     0.174 HD
ENDBRANCH   7  38
TORSDOF 15
ENDMDL