MODEL 2
REMARK VINA RESULT: -8.392962121      1.136      1.408
REMARK  14 active torsions:
REMARK  status: ('A' for Active; 'I' for Inactive)
REMARK    1  A    between atoms: C4_8  and  C5_9
REMARK    2  A    between atoms: C5_9  and  C6_10
REMARK    3  A    between atoms: C6_10  and  C7_11
REMARK    4  A    between atoms: C7_11  and  C8_12
REMARK    5  A    between atoms: C8_12  and  C9_13
REMARK    6  A    between atoms: C10_14  and  C11_15
REMARK    7  A    between atoms: C13_20  and  C14_21
REMARK    8  A    between atoms: C14_21  and  C15_22
REMARK    9  A    between atoms: C15_22  and  C16_23
REMARK   10  A    between atoms: C16_23  and  C17_24
REMARK   11  A    between atoms: C17_24  and  C18_25
REMARK   12  A    between atoms: C18_25  and  C19_26
REMARK   13  A    between atoms: C19_26  and  O3_27
REMARK   14  A    between atoms: N3_29  and  O4_31
ROOT
HETATM    1  C11 UNL     1      15.078  37.615 -13.995  1.00  0.00     0.199 C
HETATM    2  N2  UNL     1      13.835  37.063 -13.570  1.00  0.00    -0.343 N
ATOM      3  H2  UNL     1      12.960  37.447 -13.927  1.00  0.00     0.163 HD
HETATM    4  C12 UNL     1      13.812  35.986 -12.656  1.00  0.00     0.241 C
HETATM    5  O2  UNL     1      12.880  35.153 -12.644  1.00  0.00    -0.271 OA
HETATM    6  C13 UNL     1      14.913  35.839 -11.693  1.00  0.00     0.176 C
HETATM    7  N4  UNL     1      16.170  36.314 -12.172  1.00  0.00    -0.346 N
ATOM      8  H4  UNL     1      17.038  35.881 -11.856  1.00  0.00     0.163 HD
HETATM    9  C20 UNL     1      16.204  37.392 -13.091  1.00  0.00     0.244 C
HETATM   10  O5  UNL     1      17.197  38.181 -13.152  1.00  0.00    -0.271 OA
ENDROOT
BRANCH   1  11
HETATM   11  C10 UNL     1      14.920  39.111 -14.122  1.00  0.00     0.003 C
HETATM   12  C9  UNL     1      14.170  39.741 -13.228  1.00  0.00    -0.028 C
BRANCH  12  13
HETATM   13  C8  UNL     1      14.015  41.233 -13.359  1.00  0.00     0.027 C
BRANCH  13  14
HETATM   14  C7  UNL     1      13.707  41.800 -11.984  1.00  0.00     0.004 C
BRANCH  14  15
HETATM   15  C6  UNL     1      15.007  42.289 -11.385  1.00  0.00     0.005 C
BRANCH  15  16
HETATM   16  C5  UNL     1      15.092  41.794  -9.959  1.00  0.00     0.048 C
BRANCH  16  17
HETATM   17  C4  UNL     1      15.706  42.904  -9.147  1.00  0.00     0.010 A
HETATM   18  C2  UNL     1      15.235  43.471  -7.996  1.00  0.00     0.022 A
HETATM   19  C1  UNL     1      13.931  42.980  -7.385  1.00  0.00     0.069 C
HETATM   20  N1  UNL     1      15.942  44.432  -7.462  1.00  0.00    -0.321 N
HETATM   21  C3  UNL     1      17.071  44.806  -8.058  1.00  0.00     0.288 A
ATOM     22  H1  UNL     1      15.634  44.888  -6.603  1.00  0.00     0.169 HD
HETATM   23  O1  UNL     1      17.886  45.722  -7.682  1.00  0.00    -0.260 OA
HETATM   24  S1  UNL     1      17.151  43.779  -9.414  1.00  0.00    -0.032 SA
ENDBRANCH  16  17
ENDBRANCH  15  16
ENDBRANCH  14  15
ENDBRANCH  13  14
ENDBRANCH  12  13
ENDBRANCH   1  11
BRANCH   6  25
HETATM   25  C14 UNL     1      14.595  36.552 -10.383  1.00  0.00     0.035 C
BRANCH  25  26
HETATM   26  C15 UNL     1      13.277  37.282 -10.603  1.00  0.00     0.002 C
BRANCH  26  27
HETATM   27  C16 UNL     1      13.312  38.646  -9.962  1.00  0.00     0.001 C
BRANCH  27  28
HETATM   28  C17 UNL     1      13.659  38.512  -8.508  1.00  0.00     0.008 C
BRANCH  28  29
HETATM   29  C18 UNL     1      12.939  39.484  -7.636  1.00  0.00     0.086 C
BRANCH  29  30
HETATM   30  C19 UNL     1      11.927  38.725  -6.829  1.00  0.00     0.135 C
HETATM   31  N3  UNL     1      12.126  38.373  -5.623  1.00  0.00    -0.251 N
ATOM     32  H3  UNL     1      13.009  38.609  -5.168  1.00  0.00     0.196 HD
BRANCH  30  33
HETATM   33  O3  UNL     1      10.736  38.413  -7.463  1.00  0.00    -0.348 OA
ATOM     34  H3  UNL     1      10.767  37.717  -8.109  1.00  0.00     0.219 HD
ENDBRANCH  30  33
BRANCH  31  35
HETATM   35  O4  UNL     1      11.180  37.689  -4.935  1.00  0.00    -0.288 OA
ATOM     36  H4  UNL     1      10.859  38.010  -4.101  1.00  0.00     0.244 HD
ENDBRANCH  31  35
ENDBRANCH  29  30
ENDBRANCH  28  29
ENDBRANCH  27  28
ENDBRANCH  26  27
ENDBRANCH  25  26
ENDBRANCH   6  25
TORSDOF 14
ENDMDL