MODEL 1
REMARK VINA RESULT: -7.695255435      0.000      0.000
REMARK  17 active torsions:
REMARK  status: ('A' for Active; 'I' for Inactive)
REMARK    1  A    between atoms: C2_2  and  C3_3
REMARK    2  A    between atoms: C3_3  and  C4_4
REMARK    3  A    between atoms: C4_4  and  C5_5
REMARK    4  A    between atoms: C5_5  and  C6_6
REMARK    5  A    between atoms: C6_6  and  C7_7
REMARK    6  A    between atoms: C7_7  and  C8_8
REMARK    7  A    between atoms: C8_8  and  O1_9
REMARK    8  A    between atoms: C8_8  and  C9_11
REMARK    9  A    between atoms: C10_12  and  C11_13
REMARK   10  A    between atoms: C13_15  and  O2_16
REMARK   11  A    between atoms: C14_18  and  O3_19
REMARK   12  A    between atoms: C16_22  and  C17_23
REMARK   13  A    between atoms: C17_23  and  C18_24
REMARK   14  A    between atoms: C18_24  and  C19_25
REMARK   15  A    between atoms: C20_27  and  C21_28
REMARK   16  A    between atoms: C21_28  and  O5_29
REMARK   17  A    between atoms: C22_31  and  O6_32
ROOT
HETATM    1  C11 UNL     1      12.187  39.768  -7.710  1.00  0.00     0.014 C
HETATM    2  C12 UNL     1      12.535  41.012  -6.933  1.00  0.00     0.043 C
HETATM    3  C13 UNL     1      12.278  42.241  -7.729  1.00  0.00     0.147 C
HETATM    4  C14 UNL     1      13.062  42.126  -9.015  1.00  0.00     0.147 C
HETATM    5  C15 UNL     1      13.870  40.834  -9.043  1.00  0.00     0.039 C
HETATM    6  C16 UNL     1      12.846  39.718  -9.104  1.00  0.00    -0.004 C
ENDROOT
BRANCH   6   7
HETATM    7  C17 UNL     1      13.374  38.393  -9.396  1.00  0.00     0.008 C
BRANCH   7   8
HETATM    8  C18 UNL     1      13.063  37.571 -10.558  1.00  0.00     0.033 C
BRANCH   8   9
HETATM    9  C19 UNL     1      13.850  37.696 -11.803  1.00  0.00     0.128 C
HETATM   10  O4  UNL     1      13.202  36.987 -12.878  1.00  0.00    -0.375 OA
HETATM   11  C20 UNL     1      14.046  37.273 -13.954  1.00  0.00     0.174 C
HETATM   12  C22 UNL     1      15.447  37.265 -13.442  1.00  0.00     0.155 C
HETATM   13  C23 UNL     1      15.188  37.056 -11.926  1.00  0.00     0.042 C
HETATM   14  C24 UNL     1      15.237  35.600 -11.607  1.00  0.00     0.015 C
BRANCH  11  15
HETATM   15  C21 UNL     1      13.915  36.329 -15.108  1.00  0.00     0.198 C
BRANCH  15  16
HETATM   16  O5  UNL     1      13.335  35.157 -14.700  1.00  0.00    -0.398 OA
ATOM     17  H5  UNL     1      12.467  35.070 -15.075  1.00  0.00     0.209 HD
ENDBRANCH  15  16
ENDBRANCH  11  15
BRANCH  12  18
HETATM   18  O6  UNL     1      16.236  36.236 -13.905  1.00  0.00    -0.392 OA
ATOM     19  H6  UNL     1      17.133  36.474 -14.111  1.00  0.00     0.210 HD
ENDBRANCH  12  18
ENDBRANCH   8   9
ENDBRANCH   7   8
ENDBRANCH   6   7
BRANCH   1  20
HETATM   20  C10 UNL     1      12.596  38.642  -6.852  1.00  0.00    -0.023 C
HETATM   21  C9  UNL     1      11.845  38.274  -5.844  1.00  0.00     0.001 C
BRANCH  21  22
HETATM   22  C8  UNL     1      10.560  38.896  -5.443  1.00  0.00     0.140 C
BRANCH  22  23
HETATM   23  C7  UNL     1      10.601  39.190  -3.966  1.00  0.00     0.036 C
BRANCH  23  24
HETATM   24  C6  UNL     1       9.150  39.553  -3.555  1.00  0.00     0.003 C
BRANCH  24  25
HETATM   25  C5  UNL     1       9.259  40.050  -2.150  1.00  0.00     0.000 C
BRANCH  25  26
HETATM   26  C4  UNL     1      10.372  39.548  -1.345  1.00  0.00     0.000 C
BRANCH  26  27
HETATM   27  C3  UNL     1      10.243  38.488  -0.351  1.00  0.00    -0.000 C
BRANCH  27  28
HETATM   28  C2  UNL     1       9.170  37.478  -0.424  1.00  0.00    -0.005 C
HETATM   29  C1  UNL     1       9.765  36.318  -1.291  1.00  0.00     0.005 C
ENDBRANCH  27  28
ENDBRANCH  26  27
ENDBRANCH  25  26
ENDBRANCH  24  25
ENDBRANCH  23  24
ENDBRANCH  22  23
BRANCH  22  30
HETATM   30  O1  UNL     1       9.477  38.068  -5.759  1.00  0.00    -0.392 OA
ATOM     31  H1  UNL     1       9.666  37.538  -6.525  1.00  0.00     0.210 HD
ENDBRANCH  22  30
ENDBRANCH  21  22
ENDBRANCH   1  20
BRANCH   4  32
HETATM   32  O3  UNL     1      12.142  42.055 -10.081  1.00  0.00    -0.393 OA
ATOM     33  H3  UNL     1      11.780  41.177 -10.098  1.00  0.00     0.210 HD
ENDBRANCH   4  32
BRANCH   3  34
HETATM   34  O2  UNL     1      12.726  43.372  -7.049  1.00  0.00    -0.393 OA
ATOM     35  H2  UNL     1      12.024  44.003  -6.946  1.00  0.00     0.210 HD
ENDBRANCH   3  34
TORSDOF 17
ENDMDL