MODEL 3
REMARK VINA RESULT: -7.663286901      1.336      2.488
REMARK  13 active torsions:
REMARK  status: ('A' for Active; 'I' for Inactive)
REMARK    1  A    between atoms: N1_1  and  C1_5
REMARK    2  A    between atoms: C4_8  and  C5_9
REMARK    3  A    between atoms: C5_9  and  C6_10
REMARK    4  A    between atoms: C6_10  and  C7_11
REMARK    5  A    between atoms: C7_11  and  C8_12
REMARK    6  A    between atoms: C8_12  and  C9_13
REMARK    7  A    between atoms: C9_13  and  C10_14
REMARK    8  A    between atoms: C10_14  and  C11_15
REMARK    9  A    between atoms: C11_15  and  C12_16
REMARK   10  A    between atoms: C12_16  and  C13_17
REMARK   11  A    between atoms: C13_17  and  C14_18
REMARK   12  A    between atoms: C14_18  and  O1_19
REMARK   13  A    between atoms: O1_19  and  C15_20
ROOT
HETATM    1  C9  UNL     1      13.386  42.697  -8.603  1.00  0.00     0.000 C
ENDROOT
BRANCH   1   2
HETATM    2  C8  UNL     1      14.895  42.710  -8.697  1.00  0.00     0.000 C
BRANCH   2   3
HETATM    3  C7  UNL     1      15.298  41.738  -9.779  1.00  0.00     0.000 C
BRANCH   3   4
HETATM    4  C6  UNL     1      14.071  41.216 -10.529  1.00  0.00     0.000 C
BRANCH   4   5
HETATM    5  C5  UNL     1      13.988  39.740 -10.495  1.00  0.00     0.007 C
BRANCH   5   6
HETATM    6  C4  UNL     1      14.584  38.965 -11.581  1.00  0.00     0.013 C
HETATM    7  C3  UNL     1      14.112  39.235 -12.980  1.00  0.00     0.011 C
HETATM    8  C2  UNL     1      14.636  38.023 -13.759  1.00  0.00     0.064 C
HETATM    9  C1  UNL     1      15.338  37.127 -12.761  1.00  0.00     0.220 C
HETATM   10  C21 UNL     1      14.582  37.466 -11.455  1.00  0.00     0.146 C
HETATM   11  N6  UNL     1      15.016  35.741 -12.906  1.00  0.00    -0.308 N
HETATM   12  N5  UNL     1      13.335  36.830 -11.734  1.00  0.00    -0.334 N
HETATM   13  C22 UNL     1      13.698  35.575 -12.351  1.00  0.00     0.318 C
ATOM     14  H5  UNL     1      12.398  37.183 -11.542  1.00  0.00     0.164 HD
HETATM   15  O3  UNL     1      13.013  34.526 -12.406  1.00  0.00    -0.247 OA
ATOM     16  H6  UNL     1      15.602  35.016 -13.319  1.00  0.00     0.166 HD
BRANCH   9  17
HETATM   17  N1  UNL     1      16.726  37.418 -12.599  1.00  0.00    -0.051 N
ATOM     18  H13 UNL     1      16.941  38.351 -12.951  1.00  0.00     0.277 HD
ATOM     19  H12 UNL     1      16.952  37.552 -11.613  1.00  0.00     0.277 HD
ATOM     20  H11 UNL     1      17.345  36.725 -13.017  1.00  0.00     0.277 HD
ENDBRANCH   9  17
ENDBRANCH   5   6
ENDBRANCH   4   5
ENDBRANCH   3   4
ENDBRANCH   2   3
ENDBRANCH   1   2
BRANCH   1  21
HETATM   21  C10 UNL     1      12.867  42.539  -7.211  1.00  0.00     0.000 C
BRANCH  21  22
HETATM   22  C11 UNL     1      12.796  41.073  -6.845  1.00  0.00     0.000 C
BRANCH  22  23
HETATM   23  C12 UNL     1      11.662  40.396  -7.581  1.00  0.00     0.002 C
BRANCH  23  24
HETATM   24  C13 UNL     1      11.995  38.900  -7.618  1.00  0.00     0.027 C
BRANCH  24  25
HETATM   25  C14 UNL     1      11.884  38.391  -6.223  1.00  0.00     0.177 C
BRANCH  25  26
HETATM   26  O1  UNL     1      10.583  38.465  -5.758  1.00  0.00    -0.334 OA
BRANCH  26  27
HETATM   27  C15 UNL     1      10.111  38.710  -4.505  1.00  0.00     0.172 A
HETATM   28  N2  UNL     1      10.032  37.955  -3.408  1.00  0.00    -0.343 N
HETATM   29  C16 UNL     1       9.475  38.659  -2.398  1.00  0.00     0.122 A
ATOM     30  H2  UNL     1      10.346  36.987  -3.342  1.00  0.00     0.167 HD
HETATM   31  C17 UNL     1       9.176  39.924  -2.845  1.00  0.00     0.079 A
HETATM   32  N3  UNL     1       8.626  41.021  -2.295  1.00  0.00    -0.358 N
HETATM   33  C20 UNL     1       9.571  39.957  -4.155  1.00  0.00     0.115 A
HETATM   34  C18 UNL     1       8.456  42.149  -3.006  1.00  0.00     0.163 A
ATOM     35  H3  UNL     1       8.331  40.996  -1.319  1.00  0.00     0.165 HD
HETATM   36  C19 UNL     1       8.846  42.208  -4.328  1.00  0.00     0.261 A
HETATM   37  O2  UNL     1       8.676  43.275  -4.971  1.00  0.00    -0.267 OA
HETATM   38  N4  UNL     1       9.392  41.098  -4.853  1.00  0.00    -0.317 N
ATOM     39  H4  UNL     1       9.687  41.120  -5.829  1.00  0.00     0.169 HD
ENDBRANCH  26  27
ENDBRANCH  25  26
ENDBRANCH  24  25
ENDBRANCH  23  24
ENDBRANCH  22  23
ENDBRANCH  21  22
ENDBRANCH   1  21
TORSDOF 13
ENDMDL