MODEL 4
REMARK VINA RESULT: -8.516457687      4.420     11.596
REMARK  14 active torsions:
REMARK  status: ('A' for Active; 'I' for Inactive)
REMARK    1  A    between atoms: N1_1  and  C1_5
REMARK    2  A    between atoms: C1_5  and  C2_6
REMARK    3  A    between atoms: C2_6  and  O1_7
REMARK    4  A    between atoms: O1_7  and  C3_8
REMARK    5  A    between atoms: C3_8  and  C4_9
REMARK    6  A    between atoms: C4_9  and  C5_10
REMARK    7  A    between atoms: C5_10  and  C6_11
REMARK    8  A    between atoms: C6_11  and  C7_12
REMARK    9  A    between atoms: C7_12  and  C8_13
REMARK   10  A    between atoms: C8_13  and  C9_14
REMARK       I    between atoms: C9_14  and  N2_16
REMARK   11  A    between atoms: N2_16  and  C10_18
REMARK   12  A    between atoms: C11_21  and  N4_22
REMARK   13  A    between atoms: N4_22  and  C12_24
REMARK   14  A    between atoms: C14_26  and  C15_27
ROOT
HETATM    1  C10 UNL     1      13.379  39.635  -9.046  1.00  0.00     0.687 A
HETATM    2  N3  UNL     1      12.546  38.941  -8.250  1.00  0.00    -0.176 N
ATOM      3  H3  UNL     1      12.642  37.927  -8.206  1.00  0.00     0.186 HD
HETATM    4  C11 UNL     1      11.607  39.525  -7.518  1.00  0.00     0.125 A
HETATM    5  C21 UNL     1      11.456  40.910  -7.558  1.00  0.00     0.094 A
HETATM    6  C22 UNL     1      12.312  41.602  -8.375  1.00  0.00     0.135 A
HETATM    7  N7  UNL     1      12.211  43.028  -8.460  1.00  0.00    -0.082 NA
HETATM    8  N8  UNL     1      13.247  40.973  -9.098  1.00  0.00    -0.178 N
ATOM      9  H8  UNL     1      13.869  41.515  -9.696  1.00  0.00     0.185 HD
ENDROOT
BRANCH   1  10
HETATM   10  N2  UNL     1      14.292  39.028  -9.750  1.00  0.00    -0.159 N
HETATM   11  C9  UNL     1      14.127  37.643  -9.991  1.00  0.00     0.235 C
HETATM   12  O2  UNL     1      14.734  36.852  -9.241  1.00  0.00    -0.273 OA
ATOM     13  H2  UNL     1      15.098  39.534 -10.115  1.00  0.00     0.187 HD
BRANCH  11  14
HETATM   14  C8  UNL     1      13.279  37.133 -11.078  1.00  0.00     0.103 C
BRANCH  14  15
HETATM   15  C7  UNL     1      13.987  36.113 -11.891  1.00  0.00     0.009 C
BRANCH  15  16
HETATM   16  C6  UNL     1      15.195  36.583 -12.648  1.00  0.00     0.001 C
BRANCH  16  17
HETATM   17  C5  UNL     1      14.885  37.136 -13.981  1.00  0.00     0.002 C
BRANCH  17  18
HETATM   18  C4  UNL     1      13.909  36.401 -14.833  1.00  0.00     0.026 C
BRANCH  18  19
HETATM   19  C3  UNL     1      13.941  36.678 -16.290  1.00  0.00     0.167 C
BRANCH  19  20
HETATM   20  O1  UNL     1      13.113  36.090 -17.158  1.00  0.00    -0.389 OA
BRANCH  20  21
HETATM   21  C2  UNL     1      13.600  35.469 -18.266  1.00  0.00     0.194 C
BRANCH  21  22
HETATM   22  C1  UNL     1      14.514  34.307 -17.839  1.00  0.00     0.255 C
BRANCH  22  23
HETATM   23  N1  UNL     1      13.757  33.308 -17.132  1.00  0.00    -0.077 N
ATOM     24  H13 UNL     1      13.545  33.598 -16.177  1.00  0.00     0.274 HD
ATOM     25  H12 UNL     1      12.802  33.236 -17.483  1.00  0.00     0.274 HD
ATOM     26  H11 UNL     1      14.241  32.411 -17.159  1.00  0.00     0.274 HD
ENDBRANCH  22  23
ENDBRANCH  21  22
ENDBRANCH  20  21
ENDBRANCH  19  20
ENDBRANCH  18  19
ENDBRANCH  17  18
ENDBRANCH  16  17
ENDBRANCH  15  16
ENDBRANCH  14  15
ENDBRANCH  11  14
ENDBRANCH   1  10
BRANCH   4  27
HETATM   27  N4  UNL     1      10.760  38.758  -6.698  1.00  0.00    -0.327 N
ATOM     28  H4  UNL     1      10.105  38.117  -7.145  1.00  0.00     0.169 HD
BRANCH  27  29
HETATM   29  C12 UNL     1      10.768  38.824  -5.431  1.00  0.00     0.123 A
HETATM   30  C13 UNL     1       9.634  38.701  -4.632  1.00  0.00     0.076 A
HETATM   31  C14 UNL     1      10.017  38.824  -3.340  1.00  0.00     0.033 A
HETATM   32  N5  UNL     1      11.349  39.016  -3.336  1.00  0.00    -0.303 N
HETATM   33  N6  UNL     1      11.786  39.015  -4.577  1.00  0.00    -0.285 N
ATOM     34  H5  UNL     1      11.926  39.142  -2.504  1.00  0.00     0.186 HD
ATOM     35  H6  UNL     1      12.761  39.141  -4.851  1.00  0.00     0.188 HD
BRANCH  31  36
HETATM   36  C15 UNL     1       9.151  38.759  -2.139  1.00  0.00     0.037 C
HETATM   37  C16 UNL     1       9.563  39.776  -1.117  1.00  0.00     0.011 C
HETATM   38  C17 UNL     1      10.220  39.184   0.091  1.00  0.00     0.001 C
HETATM   39  C18 UNL     1       9.411  38.103   0.752  1.00  0.00     0.000 C
HETATM   40  C19 UNL     1       8.700  37.208  -0.226  1.00  0.00     0.001 C
HETATM   41  C20 UNL     1       9.249  37.338  -1.621  1.00  0.00     0.011 C
ENDBRANCH  31  36
ENDBRANCH  27  29
ENDBRANCH   4  27
TORSDOF 14
ENDMDL