MODEL 3
REMARK VINA RESULT: -7.756510864      1.309      1.434
REMARK  12 active torsions:
REMARK  status: ('A' for Active; 'I' for Inactive)
REMARK    1  A    between atoms: C2_2  and  C3_3
REMARK    2  A    between atoms: C3_3  and  C4_4
REMARK    3  A    between atoms: C4_4  and  C5_5
REMARK    4  A    between atoms: C5_5  and  N1_6
REMARK    5  A    between atoms: C8_10  and  C9_11
REMARK    6  A    between atoms: C9_11  and  N2_12
REMARK    7  A    between atoms: N2_12  and  C10_13
REMARK    8  A    between atoms: N2_12  and  C14_17
REMARK    9  A    between atoms: C10_13  and  C11_14
REMARK   10  A    between atoms: C11_14  and  C12_15
REMARK   11  A    between atoms: C17_22  and  N4_23
REMARK   12  A    between atoms: C20_35  and  C21_36
ROOT
HETATM    1  C14 UNL     1      13.460  41.132  -9.991  1.00  0.00     0.055 A
HETATM    2  C15 UNL     1      14.107  39.870 -10.049  1.00  0.00     0.064 A
HETATM    3  C16 UNL     1      14.537  39.339 -11.215  1.00  0.00     0.082 A
HETATM    4  N3  UNL     1      15.150  38.139 -11.264  1.00  0.00    -0.190 N
ATOM      5  H3  UNL     1      15.292  37.620 -10.397  1.00  0.00     0.184 HD
HETATM    6  C17 UNL     1      15.581  37.605 -12.423  1.00  0.00     0.678 A
HETATM    7  N5  UNL     1      15.384  38.306 -13.554  1.00  0.00    -0.175 N
ATOM      8  H5  UNL     1      15.704  37.915 -14.441  1.00  0.00     0.186 HD
HETATM    9  C18 UNL     1      14.772  39.514 -13.551  1.00  0.00     0.144 A
HETATM   10  N6  UNL     1      14.579  40.195 -14.644  1.00  0.00    -0.383 N
ATOM     11  H61 UNL     1      14.119  41.106 -14.642  1.00  0.00     0.157 HD
ATOM     12  H62 UNL     1      14.909  39.785 -15.518  1.00  0.00     0.157 HD
HETATM   13  C19 UNL     1      14.324  40.073 -12.362  1.00  0.00     0.104 A
HETATM   14  N7  UNL     1      13.716  41.260 -12.312  1.00  0.00    -0.353 N
ATOM     15  H7  UNL     1      13.578  41.771 -13.184  1.00  0.00     0.166 HD
HETATM   16  C20 UNL     1      13.264  41.830 -11.144  1.00  0.00     0.036 A
ENDROOT
BRANCH   1  17
HETATM   17  N2  UNL     1      13.105  41.616  -8.717  1.00  0.00    -0.374 N
BRANCH  17  18
HETATM   18  C9  UNL     1      11.717  41.303  -8.306  1.00  0.00     0.180 C
BRANCH  18  19
HETATM   19  C8  UNL     1      11.647  40.297  -7.247  1.00  0.00     0.031 A
HETATM   20  C7  UNL     1      10.972  40.381  -6.062  1.00  0.00     0.075 A
HETATM   21  C6  UNL     1      10.969  39.357  -5.108  1.00  0.00     0.107 A
HETATM   22  N1  UNL     1      10.308  39.569  -4.064  1.00  0.00    -0.356 N
HETATM   23  N9  UNL     1      11.666  38.258  -5.395  1.00  0.00    -0.339 N
ATOM     24  H1  UNL     1       9.864  40.487  -4.079  1.00  0.00     0.166 HD
HETATM   25  C23 UNL     1      12.329  38.157  -6.546  1.00  0.00     0.182 A
ATOM     26  H9  UNL     1      11.691  37.487  -4.729  1.00  0.00     0.168 HD
HETATM   27  N8  UNL     1      12.335  39.131  -7.456  1.00  0.00    -0.354 N
ATOM     28  H8  UNL     1      12.860  39.006  -8.322  1.00  0.00     0.166 HD
BRANCH  22  29
HETATM   29  C5  UNL     1      10.021  38.873  -2.882  1.00  0.00     0.063 C
BRANCH  29  30
HETATM   30  C4  UNL     1      10.924  39.284  -1.760  1.00  0.00     0.048 C
BRANCH  30  31
HETATM   31  C3  UNL     1      10.186  39.642  -0.511  1.00  0.00     0.031 C
BRANCH  31  32
HETATM   32  C2  UNL     1       9.866  38.474   0.321  1.00  0.00    -0.037 C
HETATM   33  C1  UNL     1       9.033  38.500   1.327  1.00  0.00     0.007 C
ENDBRANCH  31  32
ENDBRANCH  30  31
ENDBRANCH  29  30
ENDBRANCH  22  29
ENDBRANCH  18  19
ENDBRANCH  17  18
BRANCH  17  34
HETATM   34  C10 UNL     1      13.873  42.277  -7.715  1.00  0.00     0.123 C
BRANCH  34  35
HETATM   35  C11 UNL     1      14.553  43.545  -8.067  1.00  0.00     0.019 C
BRANCH  35  36
HETATM   36  C12 UNL     1      15.916  43.322  -8.701  1.00  0.00    -0.003 C
HETATM   37  C13 UNL     1      16.810  44.470  -8.234  1.00  0.00     0.005 C
ENDBRANCH  35  36
ENDBRANCH  34  35
ENDBRANCH  17  34
ENDBRANCH   1  17
BRANCH  16  38
HETATM   38  C21 UNL     1      12.526  43.127 -11.250  1.00  0.00     0.055 C
HETATM   39  C22 UNL     1      13.491  44.255 -11.599  1.00  0.00     0.011 C
ENDBRANCH  16  38
BRANCH   6  40
HETATM   40  N4  UNL     1      16.158  36.475 -12.463  1.00  0.00    -0.234 N
ATOM     41  H42 UNL     1      17.170  36.418 -12.579  1.00  0.00     0.174 HD
ATOM     42  H41 UNL     1      15.636  35.603 -12.382  1.00  0.00     0.174 HD
ENDBRANCH   6  40
TORSDOF 12
ENDMDL