MODEL 4
REMARK VINA RESULT: -7.236681296      3.608      5.280
REMARK  17 active torsions:
REMARK  status: ('A' for Active; 'I' for Inactive)
REMARK    1  A    between atoms: C2_2  and  C3_3
REMARK    2  A    between atoms: C4_4  and  O1_5
REMARK    3  A    between atoms: C6_8  and  C7_9
REMARK    4  A    between atoms: C7_9  and  C8_10
REMARK    5  A    between atoms: C8_10  and  C9_11
REMARK    6  A    between atoms: C9_11  and  C10_12
REMARK    7  A    between atoms: C10_12  and  C11_13
REMARK    8  A    between atoms: C11_13  and  C12_14
REMARK    9  A    between atoms: C12_14  and  C13_15
REMARK   10  A    between atoms: C13_15  and  C14_16
REMARK   11  A    between atoms: C15_17  and  C16_18
REMARK   12  A    between atoms: C16_18  and  C17_19
REMARK   13  A    between atoms: C18_21  and  C19_22
REMARK   14  A    between atoms: C19_22  and  O3_23
REMARK   15  A    between atoms: C20_25  and  O4_26
REMARK   16  A    between atoms: C21_28  and  O5_29
REMARK   17  A    between atoms: C22_31  and  O6_32
ROOT
HETATM    1  C14 UNL     1      16.164  43.417  -9.025  1.00  0.00    -0.031 C
HETATM    2  C15 UNL     1      14.944  43.061  -8.684  1.00  0.00    -0.028 C
ENDROOT
BRANCH   1   3
HETATM    3  C13 UNL     1      16.707  43.485 -10.401  1.00  0.00     0.027 C
BRANCH   3   4
HETATM    4  C12 UNL     1      18.061  42.819 -10.501  1.00  0.00     0.004 C
BRANCH   4   5
HETATM    5  C11 UNL     1      17.961  41.371 -10.885  1.00  0.00     0.000 C
BRANCH   5   6
HETATM    6  C10 UNL     1      16.905  41.159 -11.915  1.00  0.00     0.000 C
BRANCH   6   7
HETATM    7  C9  UNL     1      15.993  39.994 -11.576  1.00  0.00     0.000 C
BRANCH   7   8
HETATM    8  C8  UNL     1      14.586  40.192 -12.100  1.00  0.00     0.000 C
BRANCH   8   9
HETATM    9  C7  UNL     1      13.857  38.894 -12.231  1.00  0.00     0.005 C
BRANCH   9  10
HETATM   10  C6  UNL     1      14.702  37.678 -12.142  1.00  0.00    -0.008 C
HETATM   11  C5  UNL     1      13.771  36.601 -11.462  1.00  0.00     0.037 C
HETATM   12  C4  UNL     1      13.042  35.967 -12.594  1.00  0.00     0.126 C
HETATM   13  C3  UNL     1      13.626  36.536 -13.863  1.00  0.00     0.040 C
HETATM   14  C23 UNL     1      15.025  36.951 -13.397  1.00  0.00    -0.004 C
HETATM   15  C24 UNL     1      15.846  37.600 -14.428  1.00  0.00     0.011 C
BRANCH  12  16
HETATM   16  O1  UNL     1      13.370  34.592 -12.582  1.00  0.00    -0.395 OA
ATOM     17  H1  UNL     1      13.640  34.387 -11.695  1.00  0.00     0.210 HD
ENDBRANCH  12  16
BRANCH  13  18
HETATM   18  C2  UNL     1      13.724  35.497 -14.931  1.00  0.00    -0.029 C
HETATM   19  C1  UNL     1      13.249  35.777 -16.131  1.00  0.00     0.007 C
ENDBRANCH  13  18
ENDBRANCH   9  10
ENDBRANCH   8   9
ENDBRANCH   7   8
ENDBRANCH   6   7
ENDBRANCH   5   6
ENDBRANCH   4   5
ENDBRANCH   3   4
ENDBRANCH   1   3
BRANCH   2  20
HETATM   20  C16 UNL     1      13.949  42.679  -9.678  1.00  0.00     0.061 C
BRANCH  20  21
HETATM   21  C17 UNL     1      12.915  41.687  -9.117  1.00  0.00     0.157 C
HETATM   22  O2  UNL     1      13.629  40.636  -8.627  1.00  0.00    -0.373 OA
HETATM   23  C18 UNL     1      13.017  39.787  -7.770  1.00  0.00     0.176 C
HETATM   24  C20 UNL     1      11.751  40.253  -7.134  1.00  0.00     0.180 C
HETATM   25  C21 UNL     1      11.955  41.733  -6.796  1.00  0.00     0.180 C
HETATM   26  C22 UNL     1      12.102  42.439  -8.116  1.00  0.00     0.178 C
BRANCH  23  27
HETATM   27  C19 UNL     1      12.820  38.416  -8.434  1.00  0.00     0.198 C
BRANCH  27  28
HETATM   28  O3  UNL     1      11.498  38.048  -8.120  1.00  0.00    -0.398 OA
ATOM     29  H3  UNL     1      11.583  37.279  -7.569  1.00  0.00     0.209 HD
ENDBRANCH  27  28
ENDBRANCH  23  27
BRANCH  24  30
HETATM   30  O4  UNL     1      11.613  39.598  -5.911  1.00  0.00    -0.390 OA
ATOM     31  H4  UNL     1      11.203  38.756  -6.072  1.00  0.00     0.210 HD
ENDBRANCH  24  30
BRANCH  25  32
HETATM   32  O5  UNL     1      13.175  41.815  -6.128  1.00  0.00    -0.390 OA
ATOM     33  H5  UNL     1      12.974  42.082  -5.239  1.00  0.00     0.210 HD
ENDBRANCH  25  32
BRANCH  26  34
HETATM   34  O6  UNL     1      10.814  42.598  -8.640  1.00  0.00    -0.390 OA
ATOM     35  H6  UNL     1      10.215  42.711  -7.912  1.00  0.00     0.210 HD
ENDBRANCH  26  34
ENDBRANCH  20  21
ENDBRANCH   2  20
TORSDOF 17
ENDMDL