MODEL 1
REMARK VINA RESULT: -7.537482507      0.000      0.000
REMARK  14 active torsions:
REMARK  status: ('A' for Active; 'I' for Inactive)
REMARK    1  A    between atoms: C9_11  and  N2_12
REMARK    2  A    between atoms: C10_17  and  N4_18
REMARK    3  A    between atoms: N4_18  and  C11_20
REMARK    4  A    between atoms: C11_20  and  C12_21
REMARK    5  A    between atoms: C12_21  and  C13_22
REMARK    6  A    between atoms: C13_22  and  C14_23
REMARK    7  A    between atoms: C14_23  and  C15_24
REMARK    8  A    between atoms: C15_24  and  C16_25
REMARK    9  A    between atoms: C16_25  and  C17_26
REMARK   10  A    between atoms: C17_26  and  N5_27
REMARK   11  A    between atoms: N5_27  and  C18_30
REMARK   12  A    between atoms: C18_30  and  C19_31
REMARK   13  A    between atoms: C19_31  and  C20_32
REMARK   14  A    between atoms: C20_32  and  N6_33
ROOT
HETATM    1  C1  UNL     1      18.453  41.243 -11.812  1.00  0.00     0.011 C
HETATM    2  C2  UNL     1      17.512  41.645 -10.718  1.00  0.00    -0.000 C
HETATM    3  C3  UNL     1      17.842  43.000 -10.193  1.00  0.00     0.008 C
HETATM    4  C4  UNL     1      16.653  43.809  -9.760  1.00  0.00     0.026 C
HETATM    5  C5  UNL     1      15.698  42.891  -9.028  1.00  0.00     0.088 C
HETATM    6  C6  UNL     1      14.484  43.595  -8.529  1.00  0.00     0.031 C
HETATM    7  C7  UNL     1      13.811  43.019  -7.340  1.00  0.00     0.061 C
HETATM    8  C8  UNL     1      13.210  41.681  -7.526  1.00  0.00     0.046 A
HETATM    9  N1  UNL     1      12.439  41.370  -6.465  1.00  0.00    -0.195 N
ATOM     10  H1  UNL     1      12.326  42.027  -5.693  1.00  0.00     0.184 HD
HETATM   11  C9  UNL     1      11.825  40.179  -6.445  1.00  0.00     0.677 A
HETATM   12  N3  UNL     1      11.973  39.312  -7.460  1.00  0.00    -0.176 N
ATOM     13  H3  UNL     1      11.489  38.415  -7.409  1.00  0.00     0.186 HD
HETATM   14  C10 UNL     1      12.736  39.573  -8.553  1.00  0.00     0.134 A
HETATM   15  C21 UNL     1      13.362  40.794  -8.574  1.00  0.00     0.099 A
HETATM   16  C22 UNL     1      14.113  41.073  -9.818  1.00  0.00     0.259 C
HETATM   17  O1  UNL     1      13.596  40.525 -10.825  1.00  0.00    -0.267 OA
HETATM   18  N7  UNL     1      15.288  41.858  -9.954  1.00  0.00    -0.343 N
HETATM   19  C23 UNL     1      16.044  41.513 -11.129  1.00  0.00     0.130 C
ENDROOT
BRANCH  14  20
HETATM   20  N4  UNL     1      12.994  38.635  -9.548  1.00  0.00    -0.375 N
ATOM     21  H4  UNL     1      12.518  38.683 -10.450  1.00  0.00     0.161 HD
BRANCH  20  22
HETATM   22  C11 UNL     1      13.972  37.571  -9.265  1.00  0.00     0.121 C
BRANCH  22  23
HETATM   23  C12 UNL     1      14.407  36.839 -10.494  1.00  0.00     0.020 C
BRANCH  23  24
HETATM   24  C13 UNL     1      13.388  36.980 -11.592  1.00  0.00     0.002 C
BRANCH  24  25
HETATM   25  C14 UNL     1      13.209  35.703 -12.408  1.00  0.00     0.000 C
BRANCH  25  26
HETATM   26  C15 UNL     1      13.407  36.080 -13.841  1.00  0.00     0.002 C
BRANCH  26  27
HETATM   27  C16 UNL     1      14.174  37.361 -13.990  1.00  0.00     0.027 C
BRANCH  27  28
HETATM   28  C17 UNL     1      15.443  37.173 -14.731  1.00  0.00     0.232 C
BRANCH  28  29
HETATM   29  N5  UNL     1      15.569  35.827 -15.245  1.00  0.00    -0.075 N
ATOM     30  H52 UNL     1      16.152  35.253 -14.634  1.00  0.00     0.277 HD
ATOM     31  H51 UNL     1      14.691  35.317 -15.160  1.00  0.00     0.277 HD
BRANCH  29  32
HETATM   32  C18 UNL     1      16.054  35.802 -16.595  1.00  0.00     0.233 C
BRANCH  32  33
HETATM   33  C19 UNL     1      15.779  34.544 -17.348  1.00  0.00     0.055 C
BRANCH  33  34
HETATM   34  C20 UNL     1      14.367  34.382 -17.812  1.00  0.00     0.231 C
BRANCH  34  35
HETATM   35  N6  UNL     1      13.626  33.436 -17.017  1.00  0.00    -0.079 N
ATOM     36  H63 UNL     1      12.636  33.678 -16.989  1.00  0.00     0.274 HD
ATOM     37  H62 UNL     1      13.562  32.533 -17.487  1.00  0.00     0.274 HD
ATOM     38  H61 UNL     1      14.005  33.333 -16.076  1.00  0.00     0.274 HD
ENDBRANCH  34  35
ENDBRANCH  33  34
ENDBRANCH  32  33
ENDBRANCH  29  32
ENDBRANCH  28  29
ENDBRANCH  27  28
ENDBRANCH  26  27
ENDBRANCH  25  26
ENDBRANCH  24  25
ENDBRANCH  23  24
ENDBRANCH  22  23
ENDBRANCH  20  22
ENDBRANCH  14  20
BRANCH  11  39
HETATM   39  N2  UNL     1      11.067  39.856  -5.419  1.00  0.00    -0.234 N
ATOM     40  H22 UNL     1      11.497  39.478  -4.574  1.00  0.00     0.174 HD
ATOM     41  H21 UNL     1      10.057  39.983  -5.479  1.00  0.00     0.174 HD
ENDBRANCH  11  39
TORSDOF 14
ENDMDL