MODEL 3
REMARK VINA RESULT: -6.861473874      0.805      1.448
REMARK  8 active torsions:
REMARK  status: ('A' for Active; 'I' for Inactive)
REMARK    1  A    between atoms: C2_2  and  C3_3
REMARK    2  A    between atoms: C3_3  and  N1_4
REMARK       I    between atoms: N1_4  and  C4_6
REMARK       I    between atoms: C4_6  and  N2_8
REMARK    3  A    between atoms: N2_8  and  C5_10
REMARK    4  A    between atoms: C6_11  and  N3_12
REMARK    5  A    between atoms: N3_12  and  C7_14
REMARK    6  A    between atoms: C7_14  and  C8_18
REMARK    7  A    between atoms: C17_29  and  C18_30
REMARK    8  A    between atoms: C18_30  and  O4_31
ROOT
HETATM    1  C5  UNL     1     102.171  21.209  14.096  1.00  0.00     0.141 C
HETATM    2  C6  UNL     1     101.469  19.911  14.513  1.00  0.00     0.117 C
HETATM    3  C15 UNL     1     100.292  19.685  13.552  1.00  0.00     0.138 C
HETATM    4  C16 UNL     1      99.328  20.803  13.855  1.00  0.00     0.261 C
HETATM    5  O2  UNL     1      98.107  20.591  13.732  1.00  0.00    -0.265 OA
HETATM    6  O3  UNL     1      99.928  21.984  14.250  1.00  0.00    -0.312 OA
HETATM    7  C17 UNL     1     101.188  22.271  13.682  1.00  0.00     0.180 C
ENDROOT
BRANCH   2   8
HETATM    8  N3  UNL     1     102.348  18.790  14.416  1.00  0.00    -0.373 N
ATOM      9  H3  UNL     1     102.468  18.445  13.463  1.00  0.00     0.161 HD
BRANCH   8  10
HETATM   10  C7  UNL     1     103.070  18.075  15.361  1.00  0.00     0.075 C
HETATM   11  N4  UNL     1     103.107  16.756  15.159  1.00  0.00    -0.389 N
ATOM     12  H42 UNL     1     102.586  16.461  14.333  1.00  0.00     0.157 HD
ATOM     13  H41 UNL     1     103.638  16.230  15.854  1.00  0.00     0.157 HD
BRANCH  10  14
HETATM   14  C8  UNL     1     103.815  18.498  16.545  1.00  0.00     0.052 C
HETATM   15  C9  UNL     1     103.228  17.865  17.812  1.00  0.00     0.012 C
HETATM   16  C10 UNL     1     103.846  16.561  18.163  1.00  0.00     0.001 C
HETATM   17  C11 UNL     1     105.228  16.654  18.733  1.00  0.00     0.000 C
HETATM   18  C12 UNL     1     105.740  18.042  18.881  1.00  0.00     0.000 C
HETATM   19  C13 UNL     1     105.982  18.772  17.591  1.00  0.00     0.001 C
HETATM   20  C14 UNL     1     105.262  18.140  16.414  1.00  0.00     0.012 C
ENDBRANCH  10  14
ENDBRANCH   8  10
ENDBRANCH   2   8
BRANCH   1  21
HETATM   21  N2  UNL     1     103.205  21.004  13.130  1.00  0.00    -0.334 N
HETATM   22  C4  UNL     1     104.567  21.290  13.420  1.00  0.00     0.316 C
HETATM   23  N1  UNL     1     105.594  21.085  12.459  1.00  0.00    -0.343 N
HETATM   24  O1  UNL     1     104.893  21.735  14.544  1.00  0.00    -0.247 OA
ATOM     25  H1  UNL     1     105.328  20.720  11.544  1.00  0.00     0.164 HD
ATOM     26  H2  UNL     1     102.958  20.644  12.208  1.00  0.00     0.164 HD
BRANCH  23  27
HETATM   27  C3  UNL     1     106.986  21.361  12.699  1.00  0.00     0.124 C
BRANCH  27  28
HETATM   28  C2  UNL     1     107.794  20.133  13.061  1.00  0.00     0.015 C
HETATM   29  C1  UNL     1     107.968  20.143  14.581  1.00  0.00     0.006 C
ENDBRANCH  27  28
ENDBRANCH  23  27
ENDBRANCH   1  21
BRANCH   7  30
HETATM   30  C18 UNL     1     101.611  23.610  14.258  1.00  0.00     0.198 C
BRANCH  30  31
HETATM   31  O4  UNL     1     102.473  23.366  15.309  1.00  0.00    -0.398 OA
ATOM     32  H4  UNL     1     103.298  23.796  15.117  1.00  0.00     0.209 HD
ENDBRANCH  30  31
ENDBRANCH   7  30
TORSDOF 8
ENDMDL