MODEL 2
REMARK VINA RESULT: -5.883244899      2.616      6.810
REMARK  10 active torsions:
REMARK  status: ('A' for Active; 'I' for Inactive)
REMARK    1  A    between atoms: C7_7  and  O1_8
REMARK    2  A    between atoms: C8_10  and  O2_11
REMARK    3  A    between atoms: C9_13  and  O3_14
REMARK    4  A    between atoms: C12_20  and  O4_21
REMARK    5  A    between atoms: C12_20  and  C13_23
REMARK    6  A    between atoms: C13_23  and  C14_24
REMARK    7  A    between atoms: C14_24  and  C15_25
REMARK    8  A    between atoms: C15_25  and  C16_26
REMARK    9  A    between atoms: C16_26  and  C17_27
REMARK   10  A    between atoms: C17_27  and  C18_28
ROOT
HETATM    1  C1  UNL     1     107.132  19.217  11.706  1.00  0.00     0.017 C
HETATM    2  C2  UNL     1     108.010  20.411  11.791  1.00  0.00    -0.022 C
HETATM    3  C3  UNL     1     108.666  20.322  13.154  1.00  0.00     0.011 C
HETATM    4  C4  UNL     1     107.502  20.634  14.108  1.00  0.00     0.001 C
HETATM    5  C5  UNL     1     106.441  21.286  13.272  1.00  0.00     0.008 C
HETATM    6  C6  UNL     1     107.255  21.698  12.066  1.00  0.00     0.026 C
HETATM    7  C7  UNL     1     106.536  22.376  11.017  1.00  0.00     0.154 C
HETATM    8  C8  UNL     1     107.405  22.484   9.770  1.00  0.00     0.184 C
HETATM    9  C9  UNL     1     107.938  21.142   9.526  1.00  0.00     0.115 C
HETATM   10  C10 UNL     1     108.675  20.859   8.273  1.00  0.00     0.161 C
HETATM   11  N1  UNL     1     108.984  19.443   8.631  1.00  0.00    -0.387 N
ATOM     12  H1  UNL     1     108.819  18.608   8.068  1.00  0.00     0.159 HD
HETATM   13  C11 UNL     1     109.571  19.516   9.956  1.00  0.00     0.046 C
HETATM   14  C12 UNL     1     110.529  18.656  10.240  1.00  0.00     0.066 C
HETATM   15  C19 UNL     1     108.885  20.622  10.617  1.00  0.00     0.043 C
HETATM   16  C20 UNL     1     109.917  21.698  10.803  1.00  0.00     0.026 C
ENDROOT
BRANCH  14  17
HETATM   17  O4  UNL     1     110.881  17.731   9.200  1.00  0.00    -0.363 OA
ATOM     18  H4  UNL     1     110.921  16.815   9.448  1.00  0.00     0.217 HD
ENDBRANCH  14  17
BRANCH  14  19
HETATM   19  C13 UNL     1     111.326  18.460  11.449  1.00  0.00     0.066 C
BRANCH  19  20
HETATM   20  C14 UNL     1     112.694  19.138  11.428  1.00  0.00     0.006 C
BRANCH  20  21
HETATM   21  C15 UNL     1     113.707  18.524  12.328  1.00  0.00     0.001 C
BRANCH  21  22
HETATM   22  C16 UNL     1     115.039  19.229  12.084  1.00  0.00     0.007 C
BRANCH  22  23
HETATM   23  C17 UNL     1     115.441  20.160  13.175  1.00  0.00     0.069 C
BRANCH  23  24
HETATM   24  C18 UNL     1     115.024  21.537  12.728  1.00  0.00     0.231 C
HETATM   25  O5  UNL     1     115.019  22.477  13.503  1.00  0.00    -0.307 OA
ENDBRANCH  23  24
ENDBRANCH  22  23
ENDBRANCH  21  22
ENDBRANCH  20  21
ENDBRANCH  19  20
ENDBRANCH  14  19
BRANCH   9  26
HETATM   26  O3  UNL     1     106.812  20.269   9.433  1.00  0.00    -0.384 OA
ATOM     27  H3  UNL     1     107.137  19.445   9.089  1.00  0.00     0.210 HD
ENDBRANCH   9  26
BRANCH   8  28
HETATM   28  O2  UNL     1     106.494  22.765   8.734  1.00  0.00    -0.390 OA
ATOM     29  H2  UNL     1     106.354  23.702   8.792  1.00  0.00     0.210 HD
ENDBRANCH   8  28
BRANCH   7  30
HETATM   30  O1  UNL     1     105.290  21.862  10.677  1.00  0.00    -0.392 OA
ATOM     31  H1  UNL     1     104.538  22.231  11.123  1.00  0.00     0.210 HD
ENDBRANCH   7  30
TORSDOF 10
ENDMDL