MODEL 1
REMARK VINA RESULT: -6.318355026      0.000      0.000
REMARK  5 active torsions:
REMARK  status: ('A' for Active; 'I' for Inactive)
REMARK    1  A    between atoms: C4_4  and  C5_5
REMARK    2  A    between atoms: N1_8  and  C6_9
REMARK    3  A    between atoms: C7_10  and  O3_11
REMARK    4  A    between atoms: C7_10  and  N2_13
REMARK       I    between atoms: N2_13  and  C8_15
REMARK       I    between atoms: C8_15  and  N3_16
REMARK       I    between atoms: C8_15  and  N4_20
REMARK    5  A    between atoms: C15_30  and  C16_31
ROOT
HETATM    1  C1  UNL     1     106.386  22.650   8.344  1.00  0.00     0.036 C
HETATM    2  C2  UNL     1     106.362  22.102   9.703  1.00  0.00    -0.025 C
HETATM    3  C3  UNL     1     107.470  21.750  10.536  1.00  0.00    -0.039 C
HETATM    4  C4  UNL     1     106.733  21.281  11.860  1.00  0.00     0.215 C
HETATM    5  N1  UNL     1     107.307  20.116  12.230  1.00  0.00    -0.362 N
HETATM    6  C9  UNL     1     108.596  19.970  11.576  1.00  0.00     0.099 C
HETATM    7  C10 UNL     1     109.590  20.262  12.617  1.00  0.00     0.027 C
HETATM    8  C11 UNL     1     110.181  21.554  12.258  1.00  0.00     0.012 C
HETATM    9  C12 UNL     1     109.938  21.732  10.754  1.00  0.00    -0.033 C
HETATM   10  C13 UNL     1     111.220  21.460  10.122  1.00  0.00     0.016 C
HETATM   11  C14 UNL     1     109.802  23.242  10.608  1.00  0.00     0.016 C
HETATM   12  C15 UNL     1     108.672  20.950  10.422  1.00  0.00     0.019 C
ENDROOT
BRANCH   5  13
HETATM   13  C6  UNL     1     106.630  18.905  12.398  1.00  0.00     0.143 C
HETATM   14  C7  UNL     1     105.746  18.581  13.457  1.00  0.00     0.154 C
BRANCH  14  15
HETATM   15  O3  UNL     1     105.225  17.374  13.373  1.00  0.00    -0.345 OA
ATOM     16  H3  UNL     1     105.104  16.944  14.211  1.00  0.00     0.219 HD
ENDBRANCH  14  15
BRANCH  14  17
HETATM   17  N2  UNL     1     105.302  19.275  14.589  1.00  0.00    -0.321 N
HETATM   18  C8  UNL     1     103.891  19.245  15.017  1.00  0.00     0.482 C
HETATM   19  N3  UNL     1     103.377  20.596  14.867  1.00  0.00    -0.033 N
HETATM   20  N4  UNL     1     103.760  18.874  16.404  1.00  0.00    -0.033 N
ATOM     21  H33 UNL     1     103.933  21.294  15.361  1.00  0.00     0.278 HD
ATOM     22  H32 UNL     1     103.504  20.972  13.928  1.00  0.00     0.278 HD
ATOM     23  H31 UNL     1     102.402  20.575  15.163  1.00  0.00     0.278 HD
ATOM     24  H43 UNL     1     104.226  17.988  16.597  1.00  0.00     0.278 HD
ATOM     25  H42 UNL     1     104.318  19.482  17.005  1.00  0.00     0.278 HD
ATOM     26  H41 UNL     1     102.785  18.853  16.700  1.00  0.00     0.278 HD
ATOM     27  H2  UNL     1     105.974  19.818  15.132  1.00  0.00     0.165 HD
ENDBRANCH  14  17
ENDBRANCH   5  13
BRANCH   4  28
HETATM   28  C5  UNL     1     106.702  22.342  12.855  1.00  0.00     0.201 C
HETATM   29  O1  UNL     1     107.395  23.390  12.891  1.00  0.00    -0.646 OA
HETATM   30  O2  UNL     1     105.808  22.270  13.962  1.00  0.00    -0.646 OA
ENDBRANCH   4  28
BRANCH  12  31
HETATM   31  C16 UNL     1     108.943  20.072   9.211  1.00  0.00    -0.037 C
HETATM   32  C17 UNL     1     109.260  20.738   7.926  1.00  0.00     0.015 C
HETATM   33  C18 UNL     1     109.926  18.961   9.421  1.00  0.00     0.015 C
HETATM   34  C19 UNL     1     107.669  19.249   8.857  1.00  0.00     0.015 C
ENDBRANCH  12  31
TORSDOF 5
ENDMDL