MODEL 5
REMARK VINA RESULT: -6.872789907      1.915      7.870
REMARK  8 active torsions:
REMARK  status: ('A' for Active; 'I' for Inactive)
REMARK    1  A    between atoms: C1_2  and  C2_4
REMARK    2  A    between atoms: C2_4  and  C3_5
REMARK    3  A    between atoms: C2_4  and  N2_17
REMARK    4  A    between atoms: C3_5  and  C4_6
REMARK    5  A    between atoms: C4_6  and  C5_7
REMARK    6  A    between atoms: C9_11  and  C10_12
REMARK       I    between atoms: N2_17  and  C11_19
REMARK    7  A    between atoms: C11_19  and  C12_21
REMARK    8  A    between atoms: C12_21  and  O6_22
ROOT
HETATM    1  C2  UNL     1     105.503  20.809  12.577  1.00  0.00     0.185 C
ENDROOT
BRANCH   1   2
HETATM    2  C1  UNL     1     104.741  21.912  11.961  1.00  0.00     0.196 C
HETATM    3  O1  UNL     1     105.302  22.655  11.081  1.00  0.00    -0.646 OA
HETATM    4  O2  UNL     1     103.432  22.247  12.245  1.00  0.00    -0.646 OA
ENDBRANCH   1   2
BRANCH   1   5
HETATM    5  C3  UNL     1     106.853  21.211  13.114  1.00  0.00     0.038 C
BRANCH   5   6
HETATM    6  C4  UNL     1     108.001  20.427  12.617  1.00  0.00     0.027 C
BRANCH   6   7
HETATM    7  C5  UNL     1     108.291  20.575  11.151  1.00  0.00     0.077 C
HETATM    8  C6  UNL     1     107.581  19.525  10.366  1.00  0.00     0.025 C
HETATM    9  C7  UNL     1     107.939  19.517   8.916  1.00  0.00     0.004 C
HETATM   10  C8  UNL     1     109.282  20.130   8.626  1.00  0.00     0.036 C
HETATM   11  C9  UNL     1     110.224  20.044   9.800  1.00  0.00     0.179 C
HETATM   12  N1  UNL     1     109.715  20.581  11.001  1.00  0.00    -0.404 N
ATOM     13  H1  UNL     1     110.329  20.955  11.724  1.00  0.00     0.154 HD
BRANCH  11  14
HETATM   14  C10 UNL     1     110.737  18.665  10.000  1.00  0.00     0.196 C
HETATM   15  O3  UNL     1     110.991  18.281  11.169  1.00  0.00    -0.646 OA
HETATM   16  O4  UNL     1     110.961  17.756   8.980  1.00  0.00    -0.646 OA
ENDBRANCH  11  14
ENDBRANCH   6   7
ENDBRANCH   5   6
ENDBRANCH   1   5
BRANCH   1  17
HETATM   17  N2  UNL     1     104.723  20.110  13.579  1.00  0.00    -0.344 N
HETATM   18  C11 UNL     1     104.715  18.696  13.707  1.00  0.00     0.253 C
HETATM   19  O5  UNL     1     105.430  18.051  12.895  1.00  0.00    -0.270 OA
ATOM     20  H2  UNL     1     104.152  20.660  14.222  1.00  0.00     0.163 HD
BRANCH  18  21
HETATM   21  C12 UNL     1     103.907  17.996  14.743  1.00  0.00     0.138 C
HETATM   22  C13 UNL     1     102.537  18.571  14.788  1.00  0.00     0.048 C
HETATM   23  C14 UNL     1     101.474  17.778  15.391  1.00  0.00     0.004 C
HETATM   24  C15 UNL     1     101.840  16.571  16.169  1.00  0.00     0.000 C
HETATM   25  C16 UNL     1     102.992  16.730  17.101  1.00  0.00     0.000 C
HETATM   26  C17 UNL     1     103.569  18.104  17.160  1.00  0.00     0.004 C
HETATM   27  C18 UNL     1     104.582  18.246  16.065  1.00  0.00     0.048 C
BRANCH  21  28
HETATM   28  O6  UNL     1     103.884  16.651  14.403  1.00  0.00    -0.380 OA
ATOM     29  H6  UNL     1     102.975  16.413  14.264  1.00  0.00     0.211 HD
ENDBRANCH  21  28
ENDBRANCH  18  21
ENDBRANCH   1  17
TORSDOF 8
ENDMDL