MODEL 1
REMARK VINA RESULT: -6.823960781      0.000      0.000
REMARK  8 active torsions:
REMARK  status: ('A' for Active; 'I' for Inactive)
REMARK       I    between atoms: C2_2  and  N1_4
REMARK    1  A    between atoms: N1_4  and  C3_6
REMARK    2  A    between atoms: C3_6  and  C4_7
REMARK    3  A    between atoms: C3_6  and  C13_30
REMARK    4  A    between atoms: C4_7  and  O2_8
REMARK    5  A    between atoms: C4_7  and  N2_10
REMARK    6  A    between atoms: C6_15  and  C7_16
REMARK    7  A    between atoms: C9_19  and  N4_20
REMARK    8  A    between atoms: C11_26  and  C12_27
ROOT
HETATM    1  N2  UNL     1     105.225  19.514  14.612  1.00  0.00    -0.300 N
HETATM    2  C5  UNL     1     106.380  19.897  13.924  1.00  0.00     0.090 C
HETATM    3  N3  UNL     1     107.511  19.323  13.802  1.00  0.00    -0.388 N
ATOM      4  H31 UNL     1     108.353  19.603  13.301  1.00  0.00     0.157 HD
ATOM      5  H32 UNL     1     107.691  18.438  14.278  1.00  0.00     0.157 HD
HETATM    6  C6  UNL     1     106.108  21.234  13.206  1.00  0.00     0.106 C
HETATM    7  C10 UNL     1     104.650  21.095  12.946  1.00  0.00     0.055 C
HETATM    8  C11 UNL     1     104.201  20.477  14.275  1.00  0.00     0.195 C
ENDROOT
BRANCH   1   9
HETATM    9  C4  UNL     1     105.068  18.383  15.481  1.00  0.00     0.168 C
BRANCH   9  10
HETATM   10  C3  UNL     1     105.088  18.272  16.933  1.00  0.00     0.067 C
BRANCH  10  11
HETATM   11  N1  UNL     1     106.173  18.705  17.719  1.00  0.00    -0.327 N
HETATM   12  C2  UNL     1     107.393  19.262  17.819  1.00  0.00     0.218 C
HETATM   13  C1  UNL     1     108.137  19.322  19.169  1.00  0.00     0.117 C
HETATM   14  O1  UNL     1     108.069  19.762  16.902  1.00  0.00    -0.274 OA
ATOM     15  H1  UNL     1     105.901  18.496  18.679  1.00  0.00     0.168 HD
ENDBRANCH  10  11
BRANCH  10  16
HETATM   16  C13 UNL     1     104.423  17.102  17.596  1.00  0.00     0.032 C
HETATM   17  C14 UNL     1     105.028  16.502  18.762  1.00  0.00     0.016 C
HETATM   18  C15 UNL     1     102.975  17.512  17.894  1.00  0.00     0.016 C
ENDBRANCH  10  16
ENDBRANCH   9  10
BRANCH   9  19
HETATM   19  O2  UNL     1     104.869  17.312  14.742  1.00  0.00    -0.344 OA
ATOM     20  H2  UNL     1     104.697  17.401  13.811  1.00  0.00     0.219 HD
ENDBRANCH   9  19
ENDBRANCH   1   9
BRANCH   8  21
HETATM   21  C12 UNL     1     102.863  19.954  14.050  1.00  0.00     0.197 C
HETATM   22  O3  UNL     1     102.279  19.010  14.591  1.00  0.00    -0.646 OA
HETATM   23  O4  UNL     1     102.084  20.623  13.062  1.00  0.00    -0.646 OA
ENDBRANCH   8  21
BRANCH   6  24
HETATM   24  C7  UNL     1     106.976  21.181  11.940  1.00  0.00     0.029 A
HETATM   25  C8  UNL     1     108.080  21.986  11.856  1.00  0.00     0.079 A
HETATM   26  S1  UNL     1     108.740  21.555  10.349  1.00  0.00    -0.064 SA
HETATM   27  C9  UNL     1     107.588  20.382   9.912  1.00  0.00     0.142 A
HETATM   28  N5  UNL     1     106.739  20.364  10.932  1.00  0.00    -0.339 N
ATOM     29  H5  UNL     1     105.932  19.740  10.937  1.00  0.00     0.168 HD
BRANCH  27  30
HETATM   30  N4  UNL     1     107.534  19.601   8.834  1.00  0.00    -0.380 N
ATOM     31  H42 UNL     1     107.004  19.789   7.982  1.00  0.00     0.158 HD
ATOM     32  H41 UNL     1     107.958  18.689   8.668  1.00  0.00     0.158 HD
ENDBRANCH  27  30
ENDBRANCH   6  24
TORSDOF 8
ENDMDL