MODEL 2
REMARK VINA RESULT: -6.775425725      2.614      3.766
REMARK  9 active torsions:
REMARK  status: ('A' for Active; 'I' for Inactive)
REMARK    1  A    between atoms: C2_2  and  C4_4
REMARK    2  A    between atoms: C2_2  and  C9_14
REMARK       I    between atoms: C4_4  and  N1_6
REMARK    3  A    between atoms: N1_6  and  C5_8
REMARK    4  A    between atoms: C5_8  and  C6_9
REMARK    5  A    between atoms: C6_9  and  C7_10
REMARK    6  A    between atoms: C7_10  and  C8_11
REMARK    7  A    between atoms: C14_19  and  O4_20
REMARK    8  A    between atoms: C16_23  and  O5_24
REMARK    9  A    between atoms: C18_27  and  O6_28
ROOT
HETATM    1  C9  UNL     1     105.603  18.988  14.318  1.00  0.00     0.005 C
HETATM    2  C10 UNL     1     105.964  18.432  12.982  1.00  0.00     0.007 C
HETATM    3  C11 UNL     1     107.283  18.962  12.510  1.00  0.00     0.015 C
HETATM    4  C12 UNL     1     107.574  20.375  12.859  1.00  0.00     0.013 C
HETATM    5  C13 UNL     1     108.591  20.474  13.993  1.00  0.00     0.021 C
HETATM    6  C14 UNL     1     108.240  21.145  11.710  1.00  0.00     0.131 C
HETATM    7  C15 UNL     1     107.386  21.253  10.506  1.00  0.00     0.064 C
HETATM    8  C16 UNL     1     105.930  21.230  10.748  1.00  0.00     0.123 C
HETATM    9  C17 UNL     1     105.462  21.531  12.105  1.00  0.00     0.070 C
HETATM   10  C18 UNL     1     106.348  21.158  13.239  1.00  0.00     0.070 C
HETATM   11  C19 UNL     1     105.586  20.496  14.367  1.00  0.00     0.044 C
ENDROOT
BRANCH   1  12
HETATM   12  C2  UNL     1     104.330  18.503  14.906  1.00  0.00     0.037 C
HETATM   13  C1  UNL     1     103.335  19.676  14.800  1.00  0.00     0.025 C
HETATM   14  C3  UNL     1     103.724  17.328  14.188  1.00  0.00     0.025 C
BRANCH  12  15
HETATM   15  C4  UNL     1     104.370  18.173  16.348  1.00  0.00     0.226 C
HETATM   16  O1  UNL     1     103.448  17.677  17.017  1.00  0.00    -0.273 OA
HETATM   17  N1  UNL     1     105.598  18.455  17.038  1.00  0.00    -0.360 N
ATOM     18  H1  UNL     1     106.376  18.863  16.519  1.00  0.00     0.162 HD
BRANCH  17  19
HETATM   19  C5  UNL     1     105.764  18.178  18.444  1.00  0.00     0.123 C
BRANCH  19  20
HETATM   20  C6  UNL     1     106.968  18.892  19.012  1.00  0.00     0.030 C
BRANCH  20  21
HETATM   21  C7  UNL     1     106.991  18.883  20.525  1.00  0.00     0.114 C
BRANCH  21  22
HETATM   22  C8  UNL     1     108.355  19.130  21.035  1.00  0.00     0.172 C
HETATM   23  O2  UNL     1     109.304  19.193  20.218  1.00  0.00    -0.648 OA
HETATM   24  O3  UNL     1     108.636  19.297  22.379  1.00  0.00    -0.648 OA
ENDBRANCH  21  22
ENDBRANCH  20  21
ENDBRANCH  19  20
ENDBRANCH  17  19
ENDBRANCH  12  15
ENDBRANCH   1  12
BRANCH  10  25
HETATM   25  O6  UNL     1     106.838  22.372  13.785  1.00  0.00    -0.389 OA
ATOM     26  H6  UNL     1     106.326  23.056  13.369  1.00  0.00     0.210 HD
ENDBRANCH  10  25
BRANCH   6  27
HETATM   27  O4  UNL     1     109.506  20.621  11.438  1.00  0.00    -0.395 OA
ATOM     28  H4  UNL     1     109.719  20.726  10.518  1.00  0.00     0.210 HD
ENDBRANCH   6  27
BRANCH   8  29
HETATM   29  O5  UNL     1     105.327  22.128   9.834  1.00  0.00    -0.395 OA
ATOM     30  H5  UNL     1     104.482  21.768   9.590  1.00  0.00     0.210 HD
ENDBRANCH   8  29
TORSDOF 9
ENDMDL