MODEL 5
REMARK VINA RESULT: -6.473382466      1.834      2.143
REMARK  7 active torsions:
REMARK  status: ('A' for Active; 'I' for Inactive)
REMARK    1  A    between atoms: O1_2  and  C2_3
REMARK    2  A    between atoms: C2_3  and  C3_4
REMARK    3  A    between atoms: C3_4  and  N1_5
REMARK    4  A    between atoms: C3_4  and  C12_19
REMARK       I    between atoms: N1_5  and  C4_7
REMARK       I    between atoms: C4_7  and  N2_9
REMARK    5  A    between atoms: N2_9  and  C5_11
REMARK    6  A    between atoms: C5_11  and  C6_12
REMARK    7  A    between atoms: C14_22  and  N3_23
REMARK       I    between atoms: N3_23  and  C15_25
ROOT
HETATM    1  C3  UNL     1     107.221  20.409  12.072  1.00  0.00     0.160 C
ENDROOT
BRANCH   1   2
HETATM    2  C2  UNL     1     106.757  20.639  10.670  1.00  0.00     0.198 C
BRANCH   2   3
HETATM    3  O1  UNL     1     106.778  19.506   9.875  1.00  0.00    -0.394 OA
HETATM    4  C1  UNL     1     107.398  19.897   8.665  1.00  0.00     0.201 C
ENDBRANCH   2   3
ENDBRANCH   1   2
BRANCH   1   5
HETATM    5  N1  UNL     1     108.270  19.417  12.177  1.00  0.00    -0.331 N
HETATM    6  C4  UNL     1     109.601  19.654  11.753  1.00  0.00     0.317 C
HETATM    7  O2  UNL     1     109.875  20.778  11.266  1.00  0.00    -0.247 OA
HETATM    8  N2  UNL     1     110.620  18.686  11.858  1.00  0.00    -0.327 N
ATOM      9  H2  UNL     1     110.370  17.782  12.258  1.00  0.00     0.165 HD
ATOM     10  H1  UNL     1     108.040  18.506  12.573  1.00  0.00     0.165 HD
BRANCH   8  11
HETATM   11  C5  UNL     1     111.972  18.872  11.447  1.00  0.00     0.087 C
HETATM   12  C7  UNL     1     112.929  17.876  12.051  1.00  0.00     0.038 C
HETATM   13  C8  UNL     1     114.213  18.520  12.532  1.00  0.00     0.003 C
HETATM   14  C9  UNL     1     114.771  19.474  11.497  1.00  0.00     0.000 C
HETATM   15  C10 UNL     1     113.792  20.573  11.214  1.00  0.00     0.003 C
HETATM   16  C11 UNL     1     112.441  20.274  11.833  1.00  0.00     0.038 C
BRANCH  11  17
HETATM   17  C6  UNL     1     112.093  18.787   9.971  1.00  0.00     0.262 C
HETATM   18  O3  UNL     1     111.458  17.929   9.391  1.00  0.00    -0.304 OA
ENDBRANCH  11  17
ENDBRANCH   8  11
ENDBRANCH   1   5
BRANCH   1  19
HETATM   19  C12 UNL     1     106.039  19.987  12.943  1.00  0.00     0.043 A
HETATM   20  C13 UNL     1     104.931  20.799  12.996  1.00  0.00     0.080 A
HETATM   21  S1  UNL     1     103.912  19.945  14.064  1.00  0.00    -0.064 SA
HETATM   22  C14 UNL     1     104.933  18.623  14.381  1.00  0.00     0.151 A
HETATM   23  N6  UNL     1     106.016  18.893  13.652  1.00  0.00    -0.338 N
ATOM     24  H6  UNL     1     106.812  18.254  13.647  1.00  0.00     0.168 HD
BRANCH  22  25
HETATM   25  N3  UNL     1     104.731  17.574  15.154  1.00  0.00    -0.311 N
HETATM   26  C15 UNL     1     104.787  17.813  16.547  1.00  0.00     0.187 C
HETATM   27  N4  UNL     1     104.003  17.225  17.371  1.00  0.00    -0.373 N
HETATM   28  N5  UNL     1     105.744  18.730  17.038  1.00  0.00    -0.064 NA
ATOM     29  H42 UNL     1     103.313  16.563  17.016  1.00  0.00     0.158 HD
ATOM     30  H41 UNL     1     104.044  17.398  18.375  1.00  0.00     0.158 HD
ATOM     31  H3  UNL     1     104.544  16.647  14.771  1.00  0.00     0.170 HD
ENDBRANCH  22  25
ENDBRANCH   1  19
TORSDOF 7
ENDMDL