MODEL 1
REMARK VINA RESULT: -7.770999967      0.000      0.000
REMARK  7 active torsions:
REMARK  status: ('A' for Active; 'I' for Inactive)
REMARK    1  A    between atoms: C8_13  and  C9_14
REMARK       I    between atoms: C9_14  and  N3_16
REMARK    2  A    between atoms: N3_16  and  C10_18
REMARK    3  A    between atoms: C10_18  and  C11_19
REMARK    4  A    between atoms: C11_19  and  C12_20
REMARK    5  A    between atoms: C12_20  and  N4_21
REMARK    6  A    between atoms: N4_21  and  C13_23
REMARK    7  A    between atoms: N5_24  and  N6_26
ROOT
HETATM    1  C9  UNL     1     104.165  18.791  14.748  1.00  0.00     0.229 C
HETATM    2  O1  UNL     1     104.487  18.014  13.847  1.00  0.00    -0.273 OA
HETATM    3  N3  UNL     1     103.004  18.571  15.512  1.00  0.00    -0.360 N
ATOM      4  H3  UNL     1     102.798  19.251  16.243  1.00  0.00     0.162 HD
ENDROOT
BRANCH   3   5
HETATM    5  C10 UNL     1     102.078  17.481  15.360  1.00  0.00     0.124 C
BRANCH   5   6
HETATM    6  C11 UNL     1     102.245  16.480  16.452  1.00  0.00     0.039 C
BRANCH   6   7
HETATM    7  C12 UNL     1     102.688  17.201  17.726  1.00  0.00     0.122 C
BRANCH   7   8
HETATM    8  N4  UNL     1     103.775  16.448  18.286  1.00  0.00    -0.385 N
ATOM      9  H4  UNL     1     103.596  15.559  18.755  1.00  0.00     0.160 HD
BRANCH   8  10
HETATM   10  C13 UNL     1     105.093  16.947  18.183  1.00  0.00     0.192 C
HETATM   11  N5  UNL     1     105.408  18.196  18.200  1.00  0.00    -0.295 N
ATOM     12  H5  UNL     1     104.664  18.888  18.294  1.00  0.00     0.187 HD
BRANCH  11  13
HETATM   13  N6  UNL     1     106.723  18.637  18.095  1.00  0.00    -0.279 N
HETATM   14  C14 UNL     1     107.413  18.903  19.148  1.00  0.00     0.154 C
HETATM   15  N7  UNL     1     108.755  19.360  19.248  1.00  0.00    -0.369 N
HETATM   16  S1  UNL     1     106.886  18.772  20.881  1.00  0.00    -0.091 SA
HETATM   17  C15 UNL     1     109.422  18.925  20.424  1.00  0.00     0.132 C
ATOM     18  H7  UNL     1     109.198  19.947  18.541  1.00  0.00     0.161 HD
HETATM   19  C16 UNL     1     108.524  19.161  21.625  1.00  0.00     0.102 C
ATOM     20  H6  UNL     1     107.145  18.751  17.173  1.00  0.00     0.189 HD
ENDBRANCH  11  13
ENDBRANCH   8  10
ENDBRANCH   7   8
ENDBRANCH   6   7
ENDBRANCH   5   6
ENDBRANCH   3   5
BRANCH   1  21
HETATM   21  C8  UNL     1     105.015  19.955  15.019  1.00  0.00     0.147 C
HETATM   22  C1  UNL     1     104.684  21.120  14.160  1.00  0.00     0.084 C
HETATM   23  N1  UNL     1     103.482  21.546  13.869  1.00  0.00    -0.388 N
HETATM   24  N2  UNL     1     105.922  21.665  13.729  1.00  0.00    -0.370 N
ATOM     25  H12 UNL     1     103.255  22.347  13.279  1.00  0.00     0.157 HD
ATOM     26  H11 UNL     1     102.593  21.155  14.179  1.00  0.00     0.157 HD
HETATM   27  C2  UNL     1     106.818  20.564  13.507  1.00  0.00     0.032 C
ATOM     28  H2  UNL     1     106.136  22.654  13.601  1.00  0.00     0.161 HD
HETATM   29  C3  UNL     1     108.270  20.898  13.577  1.00  0.00     0.031 C
HETATM   30  C6  UNL     1     106.539  20.028  12.125  1.00  0.00     0.031 C
HETATM   31  C7  UNL     1     106.426  19.591  14.605  1.00  0.00     0.052 C
HETATM   32  C4  UNL     1     108.831  20.552  12.226  1.00  0.00     0.002 C
HETATM   33  C5  UNL     1     107.866  19.487  11.697  1.00  0.00     0.002 C
ENDBRANCH   1  21
TORSDOF 7
ENDMDL