MODEL 2
REMARK VINA RESULT: -6.941794311      1.377      1.811
REMARK  10 active torsions:
REMARK  status: ('A' for Active; 'I' for Inactive)
REMARK    1  A    between atoms: C2_2  and  C3_3
REMARK    2  A    between atoms: C3_3  and  N1_5
REMARK    3  A    between atoms: C3_3  and  C11_20
REMARK       I    between atoms: N1_5  and  C5_7
REMARK       I    between atoms: C5_7  and  N2_9
REMARK    4  A    between atoms: N2_9  and  C6_11
REMARK    5  A    between atoms: C6_11  and  C8_15
REMARK    6  A    between atoms: C8_15  and  O2_18
REMARK       I    between atoms: C11_20  and  N4_22
REMARK    7  A    between atoms: N4_22  and  C12_24
REMARK    8  A    between atoms: C12_24  and  C13_25
REMARK    9  A    between atoms: C13_25  and  C14_26
REMARK   10  A    between atoms: C14_26  and  O4_27
ROOT
HETATM    1  C3  UNL     1     107.750  20.161  12.480  1.00  0.00     0.111 C
HETATM    2  C4  UNL     1     106.827  20.993  11.628  1.00  0.00     0.049 C
ENDROOT
BRANCH   1   3
HETATM    3  C2  UNL     1     108.546  21.045  13.452  1.00  0.00     0.036 C
HETATM    4  C1  UNL     1     108.623  22.460  12.937  1.00  0.00     0.008 C
ENDBRANCH   1   3
BRANCH   1   5
HETATM    5  N1  UNL     1     107.078  19.117  13.170  1.00  0.00    -0.325 N
HETATM    6  C5  UNL     1     106.204  19.381  14.283  1.00  0.00     0.322 C
HETATM    7  O1  UNL     1     106.057  20.577  14.633  1.00  0.00    -0.247 OA
HETATM    8  N2  UNL     1     105.539  18.353  14.955  1.00  0.00    -0.296 N
ATOM      9  H2  UNL     1     105.736  17.425  14.579  1.00  0.00     0.172 HD
ATOM     10  H1  UNL     1     107.220  18.153  12.868  1.00  0.00     0.165 HD
BRANCH   8  11
HETATM   11  C6  UNL     1     104.666  18.339  16.031  1.00  0.00     0.115 C
HETATM   12  N3  UNL     1     103.388  18.633  15.882  1.00  0.00    -0.381 N
HETATM   13  C7  UNL     1     102.862  18.982  14.579  1.00  0.00     0.147 C
ATOM     14  H3  UNL     1     102.767  18.614  16.691  1.00  0.00     0.160 HD
BRANCH  11  15
HETATM   15  C8  UNL     1     105.050  17.993  17.409  1.00  0.00     0.108 C
HETATM   16  C9  UNL     1     103.983  18.287  18.435  1.00  0.00     0.054 C
HETATM   17  C10 UNL     1     106.291  18.781  17.848  1.00  0.00     0.054 C
BRANCH  15  18
HETATM   18  O2  UNL     1     105.441  16.643  17.535  1.00  0.00    -0.383 OA
ATOM     19  H2  UNL     1     105.633  16.404  18.435  1.00  0.00     0.211 HD
ENDBRANCH  15  18
ENDBRANCH  11  15
ENDBRANCH   8  11
ENDBRANCH   1   5
BRANCH   1  20
HETATM   20  C11 UNL     1     108.825  19.629  11.552  1.00  0.00     0.249 C
HETATM   21  O3  UNL     1     108.478  19.567  10.366  1.00  0.00    -0.270 OA
HETATM   22  N4  UNL     1     110.078  19.253  12.012  1.00  0.00    -0.338 N
ATOM     23  H4  UNL     1     110.184  19.385  13.018  1.00  0.00     0.167 HD
BRANCH  22  24
HETATM   24  C12 UNL     1     111.232  18.731  11.412  1.00  0.00     0.075 C
BRANCH  24  25
HETATM   25  C13 UNL     1     112.545  19.394  11.525  1.00  0.00     0.013 C
HETATM   26  C15 UNL     1     113.120  19.701  10.121  1.00  0.00     0.017 C
HETATM   27  C16 UNL     1     114.145  20.772  10.413  1.00  0.00     0.001 C
HETATM   28  C17 UNL     1     113.722  21.435  11.690  1.00  0.00     0.001 C
HETATM   29  C18 UNL     1     112.383  20.840  12.035  1.00  0.00     0.017 C
BRANCH  25  30
HETATM   30  C14 UNL     1     113.639  18.732  12.270  1.00  0.00     0.178 C
BRANCH  30  31
HETATM   31  O4  UNL     1     113.533  17.329  12.204  1.00  0.00    -0.400 OA
ATOM     32  H4  UNL     1     113.543  17.022  11.305  1.00  0.00     0.209 HD
ENDBRANCH  30  31
ENDBRANCH  25  30
ENDBRANCH  24  25
ENDBRANCH  22  24
ENDBRANCH   1  20
TORSDOF 10
ENDMDL