MODEL 2
REMARK VINA RESULT: -5.682338486      4.882      8.208
REMARK  11 active torsions:
REMARK  status: ('A' for Active; 'I' for Inactive)
REMARK    1  A    between atoms: C7_7  and  O1_8
REMARK    2  A    between atoms: C8_10  and  C9_11
REMARK    3  A    between atoms: C9_11  and  O2_12
REMARK    4  A    between atoms: C14_18  and  C15_19
REMARK    5  A    between atoms: C14_18  and  C16_22
REMARK    6  A    between atoms: C16_22  and  O5_23
REMARK    7  A    between atoms: C16_22  and  C17_25
REMARK    8  A    between atoms: C17_25  and  C18_26
REMARK    9  A    between atoms: C18_26  and  C19_27
REMARK   10  A    between atoms: C19_27  and  C20_28
REMARK   11  A    between atoms: C20_28  and  O6_29
ROOT
HETATM    1  C1  UNL     1     110.014  21.381   8.820  1.00  0.00     0.017 C
HETATM    2  C2  UNL     1     109.667  20.300   9.773  1.00  0.00    -0.016 C
HETATM    3  C3  UNL     1     108.905  19.258   9.057  1.00  0.00     0.012 C
HETATM    4  C4  UNL     1     107.696  20.028   8.489  1.00  0.00     0.006 C
HETATM    5  C5  UNL     1     106.815  20.612   9.498  1.00  0.00     0.002 A
HETATM    6  C6  UNL     1     106.266  22.012   9.200  1.00  0.00     0.038 A
HETATM    7  C7  UNL     1     106.945  22.469  10.475  1.00  0.00     0.130 A
HETATM    8  C8  UNL     1     107.456  21.123  10.787  1.00  0.00     0.019 A
HETATM    9  C10 UNL     1     108.841  20.742  10.983  1.00  0.00    -0.023 C
HETATM   10  C11 UNL     1     108.874  19.654  12.051  1.00  0.00     0.017 C
HETATM   11  C12 UNL     1     109.859  21.725  11.486  1.00  0.00     0.012 C
HETATM   12  C13 UNL     1     111.174  20.924  11.389  1.00  0.00     0.025 C
HETATM   13  C14 UNL     1     111.010  19.892  10.340  1.00  0.00     0.082 C
ENDROOT
BRANCH  13  14
HETATM   14  C15 UNL     1     112.133  20.155   9.335  1.00  0.00     0.185 C
HETATM   15  O3  UNL     1     113.232  20.652   9.699  1.00  0.00    -0.647 OA
HETATM   16  O4  UNL     1     112.019  19.870   7.993  1.00  0.00    -0.647 OA
ENDBRANCH  13  14
BRANCH  13  17
HETATM   17  C16 UNL     1     111.257  18.485  10.595  1.00  0.00     0.138 C
BRANCH  17  18
HETATM   18  O5  UNL     1     112.359  18.074   9.815  1.00  0.00    -0.394 OA
ATOM     19  H5  UNL     1     113.058  18.709   9.922  1.00  0.00     0.210 HD
ENDBRANCH  17  18
BRANCH  17  20
HETATM   20  C17 UNL     1     111.749  18.332  12.052  1.00  0.00     0.033 C
BRANCH  20  21
HETATM   21  C18 UNL     1     113.140  17.790  12.067  1.00  0.00     0.004 C
BRANCH  21  22
HETATM   22  C19 UNL     1     114.112  18.720  12.675  1.00  0.00     0.026 C
BRANCH  22  23
HETATM   23  C20 UNL     1     115.403  18.954  11.978  1.00  0.00     0.164 C
BRANCH  23  24
HETATM   24  O6  UNL     1     115.380  19.002  10.618  1.00  0.00    -0.401 OA
ATOM     25  H6  UNL     1     114.914  19.725  10.214  1.00  0.00     0.209 HD
ENDBRANCH  23  24
ENDBRANCH  22  23
ENDBRANCH  21  22
ENDBRANCH  20  21
ENDBRANCH  17  20
ENDBRANCH  13  17
BRANCH   8  26
HETATM   26  C9  UNL     1     106.487  20.611  11.905  1.00  0.00     0.177 C
BRANCH  26  27
HETATM   27  O2  UNL     1     106.534  21.563  12.960  1.00  0.00    -0.400 OA
ATOM     28  H2  UNL     1     107.114  21.209  13.624  1.00  0.00     0.209 HD
ENDBRANCH  26  27
ENDBRANCH   8  26
BRANCH   7  29
HETATM   29  O1  UNL     1     107.771  23.567  10.393  1.00  0.00    -0.395 OA
ATOM     30  H1  UNL     1     107.494  24.357  10.842  1.00  0.00     0.210 HD
ENDBRANCH   7  29
TORSDOF 11
ENDMDL