MODEL 4
REMARK VINA RESULT: -7.866195046      2.922      4.769
REMARK  9 active torsions:
REMARK  status: ('A' for Active; 'I' for Inactive)
REMARK    1  A    between atoms: C2_2  and  C3_3
REMARK    2  A    between atoms: C3_3  and  O1_4
REMARK    3  A    between atoms: C6_10  and  C7_11
REMARK    4  A    between atoms: C7_11  and  C8_14
REMARK    5  A    between atoms: C14_21  and  O4_22
REMARK    6  A    between atoms: O4_22  and  C15_23
REMARK    7  A    between atoms: C15_23  and  C16_25
REMARK    8  A    between atoms: C16_25  and  N1_26
REMARK    9  A    between atoms: C30_40  and  C31_41
ROOT
HETATM    1  C3  UNL     1      40.684  25.046  23.331  1.00  0.00     0.067 C
HETATM    2  C4  UNL     1      39.877  23.958  22.613  1.00  0.00     0.148 C
HETATM    3  C5  UNL     1      38.432  24.053  22.770  1.00  0.00     0.262 C
HETATM    4  O2  UNL     1      37.931  24.504  23.841  1.00  0.00    -0.265 OA
HETATM    5  O3  UNL     1      37.507  23.674  21.805  1.00  0.00    -0.307 OA
HETATM    6  C6  UNL     1      37.843  22.880  20.673  1.00  0.00     0.238 C
HETATM    7  C14 UNL     1      37.943  23.943  19.533  1.00  0.00     0.167 C
HETATM    8  C19 UNL     1      38.620  23.439  18.329  1.00  0.00     0.035 C
HETATM    9  C20 UNL     1      39.872  24.237  18.028  1.00  0.00     0.003 C
HETATM   10  C21 UNL     1      40.103  24.342  16.528  1.00  0.00     0.000 C
HETATM   11  C22 UNL     1      41.355  23.636  16.120  1.00  0.00     0.000 C
HETATM   12  C23 UNL     1      42.463  24.585  15.761  1.00  0.00     0.000 C
HETATM   13  C24 UNL     1      43.034  25.296  16.945  1.00  0.00     0.000 C
HETATM   14  C25 UNL     1      44.102  24.476  17.677  1.00  0.00     0.004 C
HETATM   15  C26 UNL     1      45.019  25.471  18.342  1.00  0.00     0.027 C
HETATM   16  C27 UNL     1      45.496  25.030  19.679  1.00  0.00    -0.031 C
HETATM   17  C28 UNL     1      44.751  24.962  20.749  1.00  0.00    -0.030 C
HETATM   18  C29 UNL     1      43.315  25.306  20.829  1.00  0.00     0.042 C
HETATM   19  C30 UNL     1      42.938  25.729  22.271  1.00  0.00     0.093 C
HETATM   20  C32 UNL     1      41.492  25.855  22.390  1.00  0.00     0.054 C
ENDROOT
BRANCH   6  21
HETATM   21  C7  UNL     1      36.743  21.892  20.356  1.00  0.00     0.299 C
HETATM   22  F1  UNL     1      35.547  22.247  21.006  1.00  0.00    -0.198 F
HETATM   23  F2  UNL     1      36.475  21.825  19.019  1.00  0.00    -0.198 F
BRANCH  21  24
HETATM   24  C8  UNL     1      37.102  20.536  20.906  1.00  0.00     0.016 A
HETATM   25  C9  UNL     1      37.493  20.331  22.203  1.00  0.00     0.016 A
HETATM   26  C10 UNL     1      37.808  19.059  22.680  1.00  0.00     0.043 A
HETATM   27  C11 UNL     1      37.732  17.984  21.846  1.00  0.00     0.116 A
HETATM   28  F3  UNL     1      38.029  16.729  22.277  1.00  0.00    -0.206 F
HETATM   29  C12 UNL     1      37.340  18.160  20.532  1.00  0.00     0.043 A
HETATM   30  C13 UNL     1      37.038  19.412  20.091  1.00  0.00     0.016 A
ENDBRANCH  21  24
ENDBRANCH   6  21
BRANCH   7  31
HETATM   31  O4  UNL     1      36.657  24.484  19.332  1.00  0.00    -0.312 OA
BRANCH  31  32
HETATM   32  C15 UNL     1      36.279  25.783  19.572  1.00  0.00     0.287 C
HETATM   33  O5  UNL     1      36.219  26.585  18.627  1.00  0.00    -0.263 OA
BRANCH  32  34
HETATM   34  C16 UNL     1      35.964  26.162  20.987  1.00  0.00     0.381 C
BRANCH  34  35
HETATM   35  N1  UNL     1      36.657  27.398  21.301  1.00  0.00     0.089 N
HETATM   36  C17 UNL     1      38.093  27.169  21.311  1.00  0.00     0.310 C
HETATM   37  C18 UNL     1      36.166  28.076  22.450  1.00  0.00     0.310 C
ENDBRANCH  34  35
ENDBRANCH  32  34
ENDBRANCH  31  32
ENDBRANCH   7  31
BRANCH   1  38
HETATM   38  C2  UNL     1      41.277  24.559  24.587  1.00  0.00     0.034 C
HETATM   39  C1  UNL     1      41.032  25.283  25.850  1.00  0.00     0.008 C
ENDBRANCH   1  38
BRANCH   1  40
HETATM   40  O1  UNL     1      39.683  25.994  23.765  1.00  0.00    -0.389 OA
ATOM     41  H1  UNL     1      39.097  25.475  24.303  1.00  0.00     0.210 HD
ENDBRANCH   1  40
BRANCH  19  42
HETATM   42  C31 UNL     1      43.645  27.072  22.400  1.00  0.00     0.177 C
HETATM   43  O6  UNL     1      44.714  27.189  23.053  1.00  0.00    -0.648 OA
HETATM   44  O7  UNL     1      43.134  28.211  21.808  1.00  0.00    -0.648 OA
ENDBRANCH  19  42
TORSDOF 9
ENDMDL