MODEL 3
REMARK VINA RESULT: -9.930595540      1.299      1.457
REMARK  11 active torsions:
REMARK  status: ('A' for Active; 'I' for Inactive)
REMARK    1  A    between atoms: O1_2  and  C2_3
REMARK    2  A    between atoms: C2_3  and  C3_5
REMARK    3  A    between atoms: C15_17  and  O3_18
REMARK    4  A    between atoms: O3_18  and  C16_19
REMARK    5  A    between atoms: C16_19  and  C17_21
REMARK    6  A    between atoms: C17_21  and  C18_22
REMARK    7  A    between atoms: C18_22  and  N1_23
REMARK    8  A    between atoms: C18_22  and  C19_27
REMARK       I    between atoms: C19_27  and  N2_29
REMARK    9  A    between atoms: N2_29  and  C20_31
REMARK   10  A    between atoms: C23_34  and  O6_35
REMARK   11  A    between atoms: O6_35  and  C24_36
ROOT
HETATM    1  C16 UNL     1      36.433  24.402  20.034  1.00  0.00     0.261 C
HETATM    2  O4  UNL     1      35.970  25.569  20.071  1.00  0.00    -0.265 OA
ENDROOT
BRANCH   1   3
HETATM    3  O3  UNL     1      37.779  24.215  20.157  1.00  0.00    -0.315 OA
BRANCH   3   4
HETATM    4  C15 UNL     1      38.658  25.265  20.546  1.00  0.00     0.141 C
HETATM    5  C14 UNL     1      39.337  25.688  19.228  1.00  0.00     0.034 C
HETATM    6  C13 UNL     1      40.239  24.632  18.701  1.00  0.00     0.007 C
HETATM    7  C11 UNL     1      41.185  24.220  19.777  1.00  0.00    -0.014 C
HETATM    8  C10 UNL     1      41.023  25.117  21.016  1.00  0.00     0.000 C
HETATM    9  C12 UNL     1      42.630  24.385  19.282  1.00  0.00     0.010 C
HETATM   10  C9  UNL     1      42.137  24.731  21.932  1.00  0.00     0.006 C
HETATM   11  C27 UNL     1      39.639  24.861  21.593  1.00  0.00    -0.009 C
HETATM   12  C8  UNL     1      41.865  24.873  23.370  1.00  0.00     0.010 C
HETATM   13  C6  UNL     1      40.701  25.786  23.698  1.00  0.00    -0.040 C
HETATM   14  C5  UNL     1      41.150  27.189  23.533  1.00  0.00     0.010 C
HETATM   15  C7  UNL     1      40.511  25.579  25.212  1.00  0.00     0.015 C
HETATM   16  C29 UNL     1      39.451  25.395  22.963  1.00  0.00     0.005 C
HETATM   17  C4  UNL     1      40.037  28.122  23.879  1.00  0.00     0.015 C
HETATM   18  C3  UNL     1      38.909  27.856  22.890  1.00  0.00     0.086 C
HETATM   19  C30 UNL     1      38.415  26.475  23.140  1.00  0.00     0.020 C
HETATM   20  C28 UNL     1      39.570  23.316  21.637  1.00  0.00     0.018 C
BRANCH  18  21
HETATM   21  C2  UNL     1      37.829  28.811  23.218  1.00  0.00     0.262 C
HETATM   22  O2  UNL     1      38.032  29.663  24.113  1.00  0.00    -0.265 OA
BRANCH  21  23
HETATM   23  O1  UNL     1      36.594  28.810  22.582  1.00  0.00    -0.326 OA
HETATM   24  C1  UNL     1      35.426  29.054  23.353  1.00  0.00     0.213 C
ENDBRANCH  21  23
ENDBRANCH  18  21
ENDBRANCH   3   4
ENDBRANCH   1   3
BRANCH   1  25
HETATM   25  C17 UNL     1      35.432  23.319  19.853  1.00  0.00     0.153 C
BRANCH  25  26
HETATM   26  C18 UNL     1      34.923  22.783  21.170  1.00  0.00     0.284 C
BRANCH  26  27
HETATM   27  N1  UNL     1      35.761  23.141  22.270  1.00  0.00    -0.066 N
ATOM     28  H13 UNL     1      36.552  23.704  21.959  1.00  0.00     0.275 HD
ATOM     29  H12 UNL     1      35.300  23.822  22.874  1.00  0.00     0.275 HD
ATOM     30  H11 UNL     1      36.075  22.330  22.804  1.00  0.00     0.275 HD
ENDBRANCH  26  27
BRANCH  26  31
HETATM   31  C19 UNL     1      35.001  21.265  21.033  1.00  0.00     0.253 C
HETATM   32  O5  UNL     1      33.955  20.600  21.228  1.00  0.00    -0.271 OA
HETATM   33  N2  UNL     1      36.240  20.722  20.697  1.00  0.00    -0.325 N
ATOM     34  H2  UNL     1      37.009  21.378  20.563  1.00  0.00     0.169 HD
BRANCH  33  35
HETATM   35  C20 UNL     1      36.536  19.348  20.523  1.00  0.00     0.035 A
HETATM   36  C21 UNL     1      37.346  18.728  21.489  1.00  0.00     0.032 A
HETATM   37  C22 UNL     1      37.696  17.404  21.433  1.00  0.00     0.039 A
HETATM   38  C23 UNL     1      37.260  16.620  20.412  1.00  0.00     0.078 A
HETATM   39  C25 UNL     1      36.466  17.204  19.453  1.00  0.00     0.039 A
HETATM   40  C26 UNL     1      36.108  18.560  19.510  1.00  0.00     0.032 A
BRANCH  38  41
HETATM   41  O6  UNL     1      37.557  15.282  20.267  1.00  0.00    -0.255 OA
BRANCH  41  42
HETATM   42  C24 UNL     1      36.567  14.270  20.266  1.00  0.00     0.530 C
HETATM   43  F1  UNL     1      35.324  14.788  20.039  1.00  0.00    -0.144 F
HETATM   44  F2  UNL     1      36.622  13.670  21.527  1.00  0.00    -0.144 F
HETATM   45  F3  UNL     1      36.883  13.310  19.348  1.00  0.00    -0.144 F
ENDBRANCH  41  42
ENDBRANCH  38  41
ENDBRANCH  33  35
ENDBRANCH  26  31
ENDBRANCH  25  26
ENDBRANCH   1  25
TORSDOF 11
ENDMDL