MODEL 3
REMARK VINA RESULT: -11.217849689      1.782      2.646
REMARK  8 active torsions:
REMARK  status: ('A' for Active; 'I' for Inactive)
REMARK    1  A    between atoms: N1_2  and  C3_4
REMARK    2  A    between atoms: C7_10  and  N3_11
REMARK       I    between atoms: N3_11  and  C8_13
REMARK       I    between atoms: C8_13  and  N4_15
REMARK    3  A    between atoms: N4_15  and  C9_17
REMARK    4  A    between atoms: C12_20  and  C13_21
REMARK    5  A    between atoms: C13_21  and  C14_22
REMARK       I    between atoms: C14_22  and  N5_24
REMARK    6  A    between atoms: C18_30  and  C19_31
REMARK    7  A    between atoms: C19_31  and  C20_32
REMARK    8  A    between atoms: N6_42  and  C30_43
ROOT
HETATM    1  N3  UNL     1      35.977  21.521  20.523  1.00  0.00    -0.309 N
ATOM      2  H3  UNL     1      35.302  21.565  19.759  1.00  0.00     0.170 HD
HETATM    3  C8  UNL     1      36.289  22.716  21.214  1.00  0.00     0.325 C
HETATM    4  O1  UNL     1      37.110  22.649  22.156  1.00  0.00    -0.247 OA
HETATM    5  N4  UNL     1      35.664  23.907  20.806  1.00  0.00    -0.309 N
ATOM      6  H4  UNL     1      35.011  23.834  20.026  1.00  0.00     0.170 HD
ENDROOT
BRANCH   5   7
HETATM    7  C9  UNL     1      35.842  25.189  21.358  1.00  0.00     0.036 A
HETATM    8  C10 UNL     1      35.338  25.458  22.635  1.00  0.00     0.030 A
HETATM    9  C11 UNL     1      35.466  26.700  23.206  1.00  0.00     0.010 A
HETATM   10  C12 UNL     1      36.088  27.734  22.568  1.00  0.00    -0.049 A
HETATM   11  C26 UNL     1      36.588  27.486  21.313  1.00  0.00     0.010 A
HETATM   12  C27 UNL     1      36.461  26.225  20.727  1.00  0.00     0.030 A
BRANCH  10  13
HETATM   13  C13 UNL     1      36.228  29.088  23.195  1.00  0.00     0.141 C
BRANCH  13  14
HETATM   14  C14 UNL     1      37.647  29.521  23.190  1.00  0.00     0.224 C
HETATM   15  O2  UNL     1      38.470  28.862  23.876  1.00  0.00    -0.273 OA
HETATM   16  N5  UNL     1      38.054  30.632  22.440  1.00  0.00    -0.341 N
HETATM   17  C15 UNL     1      37.200  31.458  21.628  1.00  0.00     0.132 C
HETATM   18  C18 UNL     1      39.440  31.122  22.355  1.00  0.00     0.159 C
HETATM   19  C16 UNL     1      38.107  32.305  20.768  1.00  0.00     0.101 C
HETATM   20  C17 UNL     1      39.533  31.931  21.134  1.00  0.00     0.265 C
HETATM   21  F1  UNL     1      39.938  31.100  20.042  1.00  0.00    -0.204 F
HETATM   22  F2  UNL     1      40.410  32.960  21.099  1.00  0.00    -0.204 F
BRANCH  18  23
HETATM   23  C19 UNL     1      39.979  31.556  23.642  1.00  0.00     0.036 C
BRANCH  23  24
HETATM   24  C20 UNL     1      41.335  31.201  24.088  1.00  0.00    -0.012 C
HETATM   25  C21 UNL     1      41.767  29.972  23.252  1.00  0.00     0.005 C
HETATM   26  C22 UNL     1      42.743  30.322  22.177  1.00  0.00     0.000 C
HETATM   27  C23 UNL     1      44.067  30.821  22.702  1.00  0.00     0.000 C
HETATM   28  C24 UNL     1      43.803  31.551  24.000  1.00  0.00     0.000 C
HETATM   29  C25 UNL     1      42.420  32.236  23.817  1.00  0.00     0.005 C
ENDBRANCH  23  24
ENDBRANCH  18  23
ENDBRANCH  13  14
ENDBRANCH  10  13
ENDBRANCH   5   7
BRANCH   1  30
HETATM   30  C7  UNL     1      36.555  20.265  20.838  1.00  0.00     0.038 A
HETATM   31  C6  UNL     1      37.421  20.041  21.879  1.00  0.00     0.032 A
HETATM   32  C5  UNL     1      37.890  18.754  22.096  1.00  0.00     0.034 A
HETATM   33  C4  UNL     1      37.531  17.679  21.315  1.00  0.00     0.061 A
HETATM   34  N2  UNL     1      38.006  16.459  21.559  1.00  0.00    -0.336 N
HETATM   35  C29 UNL     1      36.650  17.888  20.247  1.00  0.00     0.071 A
HETATM   36  C3  UNL     1      37.673  15.403  20.817  1.00  0.00     0.173 A
ATOM     37  H2  UNL     1      38.647  16.328  22.342  1.00  0.00     0.168 HD
HETATM   38  C31 UNL     1      36.805  15.608  19.765  1.00  0.00     0.296 A
HETATM   39  N6  UNL     1      36.292  16.843  19.477  1.00  0.00    -0.252 N
HETATM   40  O3  UNL     1      36.457  14.658  19.036  1.00  0.00    -0.264 OA
HETATM   41  C28 UNL     1      36.199  19.152  20.049  1.00  0.00     0.061 A
BRANCH  36  42
HETATM   42  N1  UNL     1      38.169  14.089  21.063  1.00  0.00    -0.371 N
HETATM   43  C1  UNL     1      39.570  13.832  20.846  1.00  0.00     0.150 C
HETATM   44  C2  UNL     1      37.317  13.015  21.524  1.00  0.00     0.150 C
ENDBRANCH  36  42
BRANCH  39  45
HETATM   45  C30 UNL     1      35.389  17.051  18.386  1.00  0.00     0.468 C
HETATM   46  F3  UNL     1      35.922  16.802  17.140  1.00  0.00    -0.190 F
HETATM   47  F4  UNL     1      34.132  16.500  18.571  1.00  0.00    -0.190 F
ENDBRANCH  39  45
ENDBRANCH   1  30
TORSDOF 8
ENDMDL