MODEL 3
REMARK VINA RESULT: -8.856599371      1.149      1.374
REMARK  8 active torsions:
REMARK  status: ('A' for Active; 'I' for Inactive)
REMARK    1  A    between atoms: C2_2  and  N1_4
REMARK    2  A    between atoms: N1_4  and  C4_6
REMARK    3  A    between atoms: C7_10  and  N2_11
REMARK       I    between atoms: N2_11  and  C8_13
REMARK    4  A    between atoms: C8_13  and  C9_15
REMARK    5  A    between atoms: C11_17  and  C12_18
REMARK    6  A    between atoms: C15_24  and  N3_25
REMARK    7  A    between atoms: C23_33  and  N4_34
REMARK    8  A    between atoms: N5_37  and  C26_38
ROOT
HETATM    1  C4  UNL     1      42.625  24.469  18.163  1.00  0.00     0.105 A
HETATM    2  C5  UNL     1      41.484  23.839  17.762  1.00  0.00     0.092 A
HETATM    3  C6  UNL     1      40.291  24.244  18.265  1.00  0.00     0.150 A
HETATM    4  F1  UNL     1      39.197  23.598  17.831  1.00  0.00    -0.203 F
HETATM    5  C7  UNL     1      40.138  25.308  19.212  1.00  0.00     0.118 A
HETATM    6  C23 UNL     1      41.304  25.885  19.553  1.00  0.00     0.135 A
HETATM    7  N6  UNL     1      42.545  25.476  19.039  1.00  0.00    -0.327 N
ATOM      8  H6  UNL     1      43.396  25.952  19.337  1.00  0.00     0.169 HD
ENDROOT
BRANCH   5   9
HETATM    9  N2  UNL     1      38.911  25.459  19.757  1.00  0.00    -0.317 N
HETATM   10  C8  UNL     1      37.554  25.695  19.579  1.00  0.00     0.258 C
HETATM   11  O1  UNL     1      36.923  25.829  18.564  1.00  0.00    -0.267 OA
ATOM     12  H2  UNL     1      39.042  25.350  20.763  1.00  0.00     0.169 HD
BRANCH  10  13
HETATM   13  C9  UNL     1      36.761  25.847  20.877  1.00  0.00     0.059 A
HETATM   14  C10 UNL     1      36.525  27.192  21.187  1.00  0.00     0.035 A
HETATM   15  C11 UNL     1      36.171  27.551  22.474  1.00  0.00     0.049 A
HETATM   16  C13 UNL     1      36.058  26.535  23.430  1.00  0.00     0.018 A
HETATM   17  C14 UNL     1      36.293  25.238  23.074  1.00  0.00     0.031 A
HETATM   18  C15 UNL     1      36.660  24.844  21.741  1.00  0.00     0.046 A
BRANCH  15  19
HETATM   19  C12 UNL     1      35.950  28.985  22.767  1.00  0.00     0.417 C
HETATM   20  F2  UNL     1      35.962  29.776  21.650  1.00  0.00    -0.166 F
HETATM   21  F3  UNL     1      36.936  29.461  23.638  1.00  0.00    -0.166 F
HETATM   22  F4  UNL     1      34.743  29.163  23.449  1.00  0.00    -0.166 F
ENDBRANCH  15  19
BRANCH  18  23
HETATM   23  N3  UNL     1      36.740  23.492  21.533  1.00  0.00    -0.380 N
HETATM   24  C16 UNL     1      35.666  22.572  21.276  1.00  0.00     0.123 C
HETATM   25  C17 UNL     1      35.145  21.972  22.570  1.00  0.00     0.024 C
HETATM   26  C18 UNL     1      36.096  21.346  23.481  1.00  0.00    -0.012 C
HETATM   27  C19 UNL     1      36.989  22.459  24.077  1.00  0.00     0.011 C
HETATM   28  C21 UNL     1      37.357  20.740  23.017  1.00  0.00     0.011 C
HETATM   29  C20 UNL     1      37.999  22.112  23.083  1.00  0.00     0.004 C
HETATM   30  C22 UNL     1      38.026  22.853  21.762  1.00  0.00     0.127 C
ENDBRANCH  18  23
ENDBRANCH  10  13
ENDBRANCH   5   9
BRANCH   6  31
HETATM   31  N4  UNL     1      41.431  26.966  20.431  1.00  0.00    -0.362 N
HETATM   32  C24 UNL     1      41.010  27.088  21.796  1.00  0.00     0.154 C
HETATM   33  C25 UNL     1      40.036  28.258  21.941  1.00  0.00     0.292 C
HETATM   34  N5  UNL     1      40.460  29.427  21.170  1.00  0.00     0.096 N
HETATM   35  C31 UNL     1      41.871  29.316  20.808  1.00  0.00     0.292 C
HETATM   36  C32 UNL     1      42.036  28.171  19.842  1.00  0.00     0.154 C
BRANCH  34  37
HETATM   37  C26 UNL     1      40.217  30.641  21.936  1.00  0.00     0.223 C
HETATM   38  C27 UNL     1      41.132  31.778  21.633  1.00  0.00     0.036 C
HETATM   39  C28 UNL     1      40.347  32.707  20.716  1.00  0.00     0.002 C
HETATM   40  C29 UNL     1      38.993  32.100  20.543  1.00  0.00     0.002 C
HETATM   41  C30 UNL     1      38.835  31.196  21.752  1.00  0.00     0.036 C
ENDBRANCH  34  37
ENDBRANCH   6  31
BRANCH   1  42
HETATM   42  N1  UNL     1      43.877  23.923  17.737  1.00  0.00    -0.372 N
ATOM     43  H1  UNL     1      44.342  24.328  16.924  1.00  0.00     0.161 HD
BRANCH  42  44
HETATM   44  C2  UNL     1      44.505  22.816  18.424  1.00  0.00     0.075 C
HETATM   45  C1  UNL     1      45.165  21.846  17.498  1.00  0.00     0.031 C
HETATM   46  C3  UNL     1      45.345  23.211  19.609  1.00  0.00     0.031 C
ENDBRANCH  42  44
ENDBRANCH   1  42
TORSDOF 8
ENDMDL