MODEL 5
REMARK VINA RESULT: -9.338515838      1.936      2.549
REMARK  13 active torsions:
REMARK  status: ('A' for Active; 'I' for Inactive)
REMARK    1  A    between atoms: C1_2  and  O2_4
REMARK    2  A    between atoms: O2_4  and  C2_5
REMARK    3  A    between atoms: C2_5  and  C3_7
REMARK    4  A    between atoms: C5_10  and  O4_11
REMARK    5  A    between atoms: O4_11  and  C6_12
REMARK    6  A    between atoms: C8_14  and  C9_15
REMARK    7  A    between atoms: C9_15  and  C10_16
REMARK    8  A    between atoms: C10_16  and  C11_17
REMARK    9  A    between atoms: C11_17  and  C12_18
REMARK   10  A    between atoms: C12_18  and  C13_19
REMARK   11  A    between atoms: C19_27  and  N3_28
REMARK       I    between atoms: N3_28  and  C20_29
REMARK   12  A    between atoms: C20_29  and  C21_31
REMARK   13  A    between atoms: C25_36  and  C26_37
ROOT
HETATM    1  C6  UNL     1      39.199  23.411  22.338  1.00  0.00     0.084 A
HETATM    2  C7  UNL     1      38.546  24.597  22.564  1.00  0.00     0.076 A
HETATM    3  C8  UNL     1      37.232  24.704  22.181  1.00  0.00     0.091 A
HETATM    4  N2  UNL     1      36.586  23.697  21.601  1.00  0.00    -0.324 N
ATOM      5  H2  UNL     1      35.610  23.812  21.328  1.00  0.00     0.169 HD
HETATM    6  C19 UNL     1      37.222  22.505  21.368  1.00  0.00     0.186 A
HETATM    7  C28 UNL     1      38.561  22.357  21.744  1.00  0.00     0.101 A
ENDROOT
BRANCH   6   8
HETATM    8  N3  UNL     1      36.629  21.596  20.844  1.00  0.00    -0.348 NA
HETATM    9  C20 UNL     1      35.989  20.624  20.259  1.00  0.00     0.328 C
HETATM   10  O5  UNL     1      34.934  20.836  19.553  1.00  0.00    -0.251 OA
BRANCH   9  11
HETATM   11  C21 UNL     1      36.409  19.223  20.353  1.00  0.00     0.047 A
HETATM   12  C22 UNL     1      37.291  18.813  21.329  1.00  0.00     0.021 A
HETATM   13  C23 UNL     1      37.663  17.496  21.393  1.00  0.00     0.044 A
HETATM   14  C24 UNL     1      37.156  16.571  20.480  1.00  0.00     0.131 A
HETATM   15  F1  UNL     1      37.516  15.255  20.528  1.00  0.00    -0.205 F
HETATM   16  C25 UNL     1      36.268  16.965  19.493  1.00  0.00     0.087 A
HETATM   17  C27 UNL     1      35.927  18.296  19.471  1.00  0.00     0.037 A
BRANCH  16  18
HETATM   18  C26 UNL     1      35.729  15.971  18.520  1.00  0.00     0.420 C
HETATM   19  F2  UNL     1      34.726  15.232  19.093  1.00  0.00    -0.166 F
HETATM   20  F3  UNL     1      36.733  15.152  18.068  1.00  0.00    -0.166 F
HETATM   21  F4  UNL     1      35.244  16.704  17.439  1.00  0.00    -0.166 F
ENDBRANCH  16  18
ENDBRANCH   9  11
ENDBRANCH   6   8
BRANCH   3  22
HETATM   22  C9  UNL     1      36.551  25.972  22.427  1.00  0.00    -0.049 C
BRANCH  22  23
HETATM   23  C10 UNL     1      36.005  27.022  22.632  1.00  0.00    -0.100 C
BRANCH  23  24
HETATM   24  C11 UNL     1      35.333  28.312  22.888  1.00  0.00     0.095 C
BRANCH  24  25
HETATM   25  C12 UNL     1      36.195  29.213  23.722  1.00  0.00     0.017 C
BRANCH  25  26
HETATM   26  C13 UNL     1      37.170  29.965  22.876  1.00  0.00    -0.014 C
HETATM   27  C14 UNL     1      38.277  29.144  22.306  1.00  0.00     0.005 C
HETATM   28  C15 UNL     1      39.173  28.548  23.368  1.00  0.00     0.000 C
HETATM   29  C16 UNL     1      39.632  29.581  24.365  1.00  0.00     0.000 C
HETATM   30  C17 UNL     1      38.583  30.557  24.777  1.00  0.00     0.000 C
HETATM   31  C18 UNL     1      37.802  31.122  23.621  1.00  0.00     0.005 C
ENDBRANCH  25  26
ENDBRANCH  24  25
ENDBRANCH  23  24
ENDBRANCH  22  23
ENDBRANCH   3  22
BRANCH   1  32
HETATM   32  O4  UNL     1      40.542  23.210  22.697  1.00  0.00    -0.303 OA
BRANCH  32  33
HETATM   33  C5  UNL     1      41.309  24.391  22.811  1.00  0.00     0.117 A
HETATM   34  S1  UNL     1      41.515  25.434  24.143  1.00  0.00    -0.076 SA
HETATM   35  C4  UNL     1      42.567  26.573  23.436  1.00  0.00     0.070 A
HETATM   36  C3  UNL     1      42.729  26.097  22.159  1.00  0.00     0.049 A
HETATM   37  C29 UNL     1      42.078  24.972  21.842  1.00  0.00     0.063 A
BRANCH  36  38
HETATM   38  C2  UNL     1      43.600  26.830  21.195  1.00  0.00     0.302 C
HETATM   39  O3  UNL     1      44.709  26.357  20.819  1.00  0.00    -0.259 OA
BRANCH  38  40
HETATM   40  O2  UNL     1      43.244  28.048  20.670  1.00  0.00    -0.226 OA
BRANCH  40  41
HETATM   41  C1  UNL     1      42.156  28.156  19.836  1.00  0.00     0.380 C
HETATM   42  N1  UNL     1      41.161  29.125  20.135  1.00  0.00    -0.032 NA
HETATM   43  O1  UNL     1      42.012  27.436  18.834  1.00  0.00    -0.242 OA
ENDBRANCH  40  41
ENDBRANCH  38  40
ENDBRANCH  36  38
ENDBRANCH  32  33
ENDBRANCH   1  32
TORSDOF 13
ENDMDL