MODEL 4
REMARK VINA RESULT: -9.560684768      1.739      2.772
REMARK  7 active torsions:
REMARK  status: ('A' for Active; 'I' for Inactive)
REMARK    1  A    between atoms: C3_3  and  N1_4
REMARK    2  A    between atoms: C10_14  and  O1_15
REMARK    3  A    between atoms: O1_15  and  C11_16
REMARK    4  A    between atoms: C14_20  and  C15_21
REMARK    5  A    between atoms: C18_24  and  N5_25
REMARK       I    between atoms: N5_25  and  C19_27
REMARK       I    between atoms: C19_27  and  N6_29
REMARK    6  A    between atoms: N6_29  and  C20_31
REMARK    7  A    between atoms: C23_34  and  C24_35
ROOT
HETATM    1  C1  UNL     1      36.256  29.832  21.614  1.00  0.00     0.014 C
HETATM    2  C2  UNL     1      37.262  29.901  22.282  1.00  0.00    -0.097 C
HETATM    3  C3  UNL     1      38.467  29.973  23.116  1.00  0.00     0.223 C
ENDROOT
BRANCH   3   4
HETATM    4  N1  UNL     1      39.543  30.645  22.475  1.00  0.00    -0.323 N
HETATM    5  C4  UNL     1      39.464  31.905  21.945  1.00  0.00     0.119 A
HETATM    6  C5  UNL     1      38.265  32.693  21.961  1.00  0.00     0.118 C
HETATM    7  C6  UNL     1      40.686  32.218  21.433  1.00  0.00     0.073 A
HETATM    8  N2  UNL     1      37.307  33.341  21.970  1.00  0.00    -0.190 NA
HETATM    9  C7  UNL     1      41.546  31.151  21.640  1.00  0.00     0.065 A
HETATM   10  N3  UNL     1      42.831  30.903  21.355  1.00  0.00    -0.364 N
HETATM   11  C31 UNL     1      40.789  30.191  22.295  1.00  0.00     0.097 A
HETATM   12  C8  UNL     1      43.397  29.746  21.693  1.00  0.00     0.091 A
ATOM     13  H3  UNL     1      43.384  31.610  20.872  1.00  0.00     0.165 HD
HETATM   14  C9  UNL     1      42.708  28.737  22.349  1.00  0.00     0.056 A
HETATM   15  C10 UNL     1      41.384  28.965  22.655  1.00  0.00     0.099 A
BRANCH  15  16
HETATM   16  O1  UNL     1      40.575  28.076  23.298  1.00  0.00    -0.343 OA
BRANCH  16  17
HETATM   17  C11 UNL     1      40.210  26.832  22.799  1.00  0.00     0.135 C
HETATM   18  C12 UNL     1      39.728  26.949  21.368  1.00  0.00     0.077 C
HETATM   19  C13 UNL     1      38.564  26.001  21.097  1.00  0.00     0.065 C
HETATM   20  N4  UNL     1      37.474  26.253  21.924  1.00  0.00    -0.373 N
HETATM   21  C14 UNL     1      36.171  26.300  21.539  1.00  0.00     0.067 C
HETATM   22  C29 UNL     1      37.806  26.794  23.224  1.00  0.00     0.129 C
HETATM   23  C30 UNL     1      39.110  26.150  23.609  1.00  0.00     0.053 C
BRANCH  21  24
HETATM   24  C15 UNL     1      35.552  24.954  21.155  1.00  0.00     0.024 C
HETATM   25  C16 UNL     1      35.875  23.838  22.053  1.00  0.00     0.012 C
HETATM   26  C17 UNL     1      35.386  22.510  21.534  1.00  0.00     0.026 C
HETATM   27  C18 UNL     1      36.211  22.266  20.240  1.00  0.00     0.086 C
HETATM   28  C27 UNL     1      35.747  23.287  19.226  1.00  0.00     0.026 C
HETATM   29  C28 UNL     1      35.829  24.682  19.705  1.00  0.00     0.012 C
BRANCH  27  30
HETATM   30  N5  UNL     1      35.824  20.965  19.779  1.00  0.00    -0.338 N
HETATM   31  C19 UNL     1      36.556  19.786  20.260  1.00  0.00     0.321 C
HETATM   32  O2  UNL     1      37.491  20.020  21.075  1.00  0.00    -0.247 OA
HETATM   33  N6  UNL     1      36.145  18.558  19.770  1.00  0.00    -0.307 N
ATOM     34  H6  UNL     1      35.377  18.555  19.098  1.00  0.00     0.170 HD
ATOM     35  H5  UNL     1      35.049  20.859  19.125  1.00  0.00     0.164 HD
BRANCH  33  36
HETATM   36  C20 UNL     1      36.701  17.310  20.122  1.00  0.00     0.058 A
HETATM   37  C21 UNL     1      37.576  17.105  21.158  1.00  0.00     0.032 A
HETATM   38  C22 UNL     1      38.076  15.811  21.470  1.00  0.00     0.018 A
HETATM   39  C23 UNL     1      37.684  14.726  20.728  1.00  0.00     0.049 A
HETATM   40  C25 UNL     1      36.802  14.920  19.684  1.00  0.00     0.042 A
HETATM   41  C26 UNL     1      36.329  16.159  19.394  1.00  0.00     0.061 A
HETATM   42 CL1  UNL     1      35.199  16.365  18.051  1.00  0.00    -0.082 Cl
BRANCH  39  43
HETATM   43  C24 UNL     1      38.194  13.361  21.021  1.00  0.00     0.417 C
HETATM   44  F1  UNL     1      39.501  13.336  20.572  1.00  0.00    -0.166 F
HETATM   45  F2  UNL     1      37.429  12.395  20.387  1.00  0.00    -0.166 F
HETATM   46  F3  UNL     1      38.217  13.096  22.359  1.00  0.00    -0.166 F
ENDBRANCH  39  43
ENDBRANCH  33  36
ENDBRANCH  27  30
ENDBRANCH  21  24
ENDBRANCH  16  17
ENDBRANCH  15  16
ENDBRANCH   3   4
TORSDOF 7
ENDMDL