MODEL 5
REMARK VINA RESULT: -9.548100131      2.302      3.347
REMARK  9 active torsions:
REMARK  status: ('A' for Active; 'I' for Inactive)
REMARK    1  A    between atoms: C1_2  and  O1_4
REMARK    2  A    between atoms: O1_4  and  C2_5
REMARK    3  A    between atoms: C7_11  and  C8_12
REMARK    4  A    between atoms: C13_23  and  N4_24
REMARK    5  A    between atoms: N4_24  and  C14_26
REMARK    6  A    between atoms: C14_26  and  N5_28
REMARK    7  A    between atoms: N5_28  and  C15_30
REMARK    8  A    between atoms: N6_33  and  C18_34
REMARK    9  A    between atoms: C18_34  and  C19_35
ROOT
HETATM    1  C8  UNL     1      36.427  20.284  19.772  1.00  0.00     0.093 A
HETATM    2  N1  UNL     1      35.877  19.178  19.265  1.00  0.00    -0.336 N
ATOM      3  H1  UNL     1      35.142  19.170  18.558  1.00  0.00     0.168 HD
HETATM    4  C9  UNL     1      36.412  18.086  19.803  1.00  0.00     0.147 A
HETATM    5  C10 UNL     1      36.182  16.747  19.599  1.00  0.00     0.058 A
HETATM    6 BR1  UNL     1      34.857  16.184  18.340  1.00  0.00    -0.047 Br
HETATM    7  C11 UNL     1      36.902  15.805  20.300  1.00  0.00     0.041 A
HETATM    8  C12 UNL     1      37.844  16.274  21.197  1.00  0.00     0.109 A
HETATM    9  N2  UNL     1      38.037  17.574  21.366  1.00  0.00    -0.302 N
ATOM     10  H2  UNL     1      38.742  17.880  22.036  1.00  0.00     0.186 HD
HETATM   11  N3  UNL     1      37.360  18.486  20.707  1.00  0.00    -0.220 N
HETATM   12  C13 UNL     1      37.395  19.853  20.711  1.00  0.00     0.159 A
ENDROOT
BRANCH  12  13
HETATM   13  N4  UNL     1      38.208  20.758  21.406  1.00  0.00    -0.316 N
ATOM     14  H4  UNL     1      39.069  20.980  20.904  1.00  0.00     0.170 HD
BRANCH  13  15
HETATM   15  C14 UNL     1      38.111  21.426  22.632  1.00  0.00     0.173 C
HETATM   16  S1  UNL     1      37.005  21.055  23.736  1.00  0.00    -0.041 SA
BRANCH  15  17
HETATM   17  N5  UNL     1      39.032  22.524  22.889  1.00  0.00    -0.362 N
ATOM     18  H5  UNL     1      40.027  22.311  22.966  1.00  0.00     0.162 HD
BRANCH  17  19
HETATM   19  C15 UNL     1      38.623  23.873  23.038  1.00  0.00     0.090 C
HETATM   20  C16 UNL     1      37.587  24.349  22.064  1.00  0.00     0.069 C
HETATM   21  C17 UNL     1      37.868  25.785  21.687  1.00  0.00     0.065 C
HETATM   22  N6  UNL     1      38.221  26.622  22.762  1.00  0.00    -0.373 N
HETATM   23  C24 UNL     1      39.180  26.142  23.691  1.00  0.00     0.129 C
HETATM   24  C25 UNL     1      39.760  24.859  23.069  1.00  0.00     0.045 C
BRANCH  22  25
HETATM   25  C18 UNL     1      37.408  27.703  23.118  1.00  0.00     0.067 C
BRANCH  25  26
HETATM   26  C19 UNL     1      37.568  28.945  22.302  1.00  0.00     0.024 C
HETATM   27  C20 UNL     1      36.211  29.559  21.946  1.00  0.00     0.010 C
HETATM   28  C21 UNL     1      36.564  31.013  21.596  1.00  0.00     0.001 C
HETATM   29  C22 UNL     1      37.888  31.283  22.272  1.00  0.00     0.001 C
HETATM   30  C23 UNL     1      38.110  30.086  23.175  1.00  0.00     0.010 C
ENDBRANCH  25  26
ENDBRANCH  22  25
ENDBRANCH  17  19
ENDBRANCH  15  17
ENDBRANCH  13  15
ENDBRANCH  12  13
BRANCH   1  31
HETATM   31  C7  UNL     1      36.119  21.668  19.450  1.00  0.00     0.030 A
HETATM   32  C2  UNL     1      34.852  22.178  19.811  1.00  0.00     0.087 A
HETATM   33  C3  UNL     1      34.521  23.475  19.545  1.00  0.00     0.039 A
HETATM   34  C4  UNL     1      35.431  24.317  18.911  1.00  0.00     0.026 A
HETATM   35  C5  UNL     1      36.663  23.846  18.553  1.00  0.00     0.035 A
HETATM   36 CL1  UNL     1      37.798  24.927  17.753  1.00  0.00    -0.084 Cl
HETATM   37  C6  UNL     1      36.975  22.539  18.829  1.00  0.00     0.040 A
BRANCH  32  38
HETATM   38  O1  UNL     1      33.982  21.329  20.430  1.00  0.00    -0.289 OA
BRANCH  38  39
HETATM   39  C1  UNL     1      33.589  21.397  21.747  1.00  0.00     0.505 C
HETATM   40  F1  UNL     1      32.256  21.798  21.769  1.00  0.00    -0.184 F
HETATM   41  F2  UNL     1      34.314  22.388  22.453  1.00  0.00    -0.184 F
ENDBRANCH  38  39
ENDBRANCH  32  38
ENDBRANCH   1  31
TORSDOF 9
ENDMDL