MODEL 2
REMARK VINA RESULT: -9.589700726      1.993      2.901
REMARK  9 active torsions:
REMARK  status: ('A' for Active; 'I' for Inactive)
REMARK    1  A    between atoms: C4_4  and  C5_5
REMARK       I    between atoms: C5_5  and  N1_7
REMARK    2  A    between atoms: C8_10  and  O2_11
REMARK    3  A    between atoms: C8_10  and  C9_13
REMARK    4  A    between atoms: C9_13  and  N2_14
REMARK    5  A    between atoms: N2_14  and  C10_17
REMARK    6  A    between atoms: N3_23  and  C16_24
REMARK    7  A    between atoms: C16_24  and  C17_25
REMARK    8  A    between atoms: C24_35  and  O3_36
REMARK    9  A    between atoms: O3_36  and  C25_37
ROOT
HETATM    1  C5  UNL     1      37.499  22.286  22.757  1.00  0.00     0.257 C
HETATM    2  O1  UNL     1      38.136  21.352  23.305  1.00  0.00    -0.267 OA
HETATM    3  N1  UNL     1      38.188  23.488  22.462  1.00  0.00    -0.348 N
HETATM    4  C6  UNL     1      39.621  23.602  22.815  1.00  0.00     0.129 C
HETATM    5  C7  UNL     1      39.934  24.868  23.538  1.00  0.00     0.059 C
HETATM    6  C8  UNL     1      39.352  26.080  22.822  1.00  0.00     0.084 C
HETATM    7  C22 UNL     1      37.904  25.898  22.522  1.00  0.00     0.059 C
HETATM    8  C23 UNL     1      37.606  24.628  21.811  1.00  0.00     0.129 C
ENDROOT
BRANCH   6   9
HETATM    9  O2  UNL     1      39.520  27.154  23.713  1.00  0.00    -0.388 OA
ATOM     10  H2  UNL     1      38.683  27.603  23.725  1.00  0.00     0.210 HD
ENDBRANCH   6   9
BRANCH   6  11
HETATM   11  C9  UNL     1      40.200  26.327  21.625  1.00  0.00     0.270 C
BRANCH  11  12
HETATM   12  N2  UNL     1      41.581  25.958  21.750  1.00  0.00    -0.068 N
ATOM     13  H22 UNL     1      42.145  26.704  22.158  1.00  0.00     0.277 HD
ATOM     14  H21 UNL     1      41.729  25.254  22.472  1.00  0.00     0.277 HD
BRANCH  12  15
HETATM   15  C10 UNL     1      42.071  25.543  20.485  1.00  0.00     0.186 C
HETATM   16  C11 UNL     1      43.055  24.399  20.502  1.00  0.00     0.034 C
HETATM   17  C12 UNL     1      43.252  24.237  18.983  1.00  0.00     0.011 C
HETATM   18  C13 UNL     1      41.888  24.530  18.396  1.00  0.00    -0.035 C
HETATM   19  C14 UNL     1      41.390  23.269  17.767  1.00  0.00     0.040 C
HETATM   20  C20 UNL     1      41.909  25.695  17.435  1.00  0.00     0.044 C
HETATM   21  C21 UNL     1      41.003  24.960  19.570  1.00  0.00     0.042 C
HETATM   22  C15 UNL     1      42.119  23.047  16.463  1.00  0.00     0.274 C
HETATM   23  N3  UNL     1      41.978  24.118  15.535  1.00  0.00     0.101 N
HETATM   24  C18 UNL     1      41.373  25.303  16.081  1.00  0.00     0.220 C
HETATM   25  C19 UNL     1      39.878  25.254  16.025  1.00  0.00     0.043 C
BRANCH  23  26
HETATM   26  C16 UNL     1      43.135  24.393  14.736  1.00  0.00     0.389 C
BRANCH  26  27
HETATM   27  C17 UNL     1      42.958  23.919  13.290  1.00  0.00     0.413 C
HETATM   28  F1  UNL     1      43.785  24.599  12.427  1.00  0.00    -0.169 F
HETATM   29  F2  UNL     1      43.258  22.557  13.209  1.00  0.00    -0.169 F
HETATM   30  F3  UNL     1      41.657  24.069  12.881  1.00  0.00    -0.169 F
ENDBRANCH  26  27
ENDBRANCH  23  26
ENDBRANCH  12  15
ENDBRANCH  11  12
ENDBRANCH   6  11
BRANCH   1  31
HETATM   31  C4  UNL     1      36.066  22.045  22.459  1.00  0.00     0.074 A
HETATM   32  C3  UNL     1      35.084  22.566  23.237  1.00  0.00     0.034 A
HETATM   33  C2  UNL     1      33.795  22.308  22.874  1.00  0.00    -0.018 A
HETATM   34  C1  UNL     1      32.534  22.773  23.574  1.00  0.00     0.056 C
HETATM   35  S1  UNL     1      33.965  21.356  21.474  1.00  0.00    -0.069 SA
HETATM   36  C24 UNL     1      35.664  21.306  21.378  1.00  0.00     0.133 A
BRANCH  36  37
HETATM   37  O3  UNL     1      36.490  20.662  20.426  1.00  0.00    -0.302 OA
BRANCH  37  38
HETATM   38  C25 UNL     1      36.635  19.306  20.345  1.00  0.00     0.076 A
HETATM   39  C26 UNL     1      35.927  18.613  19.377  1.00  0.00     0.039 A
HETATM   40  C27 UNL     1      36.080  17.247  19.305  1.00  0.00     0.026 A
HETATM   41  C28 UNL     1      36.921  16.558  20.175  1.00  0.00     0.034 A
HETATM   42 CL1  UNL     1      37.032  14.833  19.986  1.00  0.00    -0.084 Cl
HETATM   43  C29 UNL     1      37.604  17.276  21.117  1.00  0.00     0.026 A
HETATM   44  C30 UNL     1      37.473  18.644  21.214  1.00  0.00     0.039 A
ENDBRANCH  37  38
ENDBRANCH  36  37
ENDBRANCH   1  31
TORSDOF 9
ENDMDL