MODEL 4
REMARK VINA RESULT: -9.682716354      1.187      1.431
REMARK  9 active torsions:
REMARK  status: ('A' for Active; 'I' for Inactive)
REMARK       I    between atoms: C1_2  and  N1_3
REMARK    1  A    between atoms: C1_2  and  C4_10
REMARK    2  A    between atoms: N1_3  and  C2_5
REMARK    3  A    between atoms: C2_5  and  C3_6
REMARK    4  A    between atoms: C4_10  and  C5_11
REMARK    5  A    between atoms: C4_10  and  O2_17
REMARK    6  A    between atoms: C5_11  and  C6_12
REMARK    7  A    between atoms: O2_17  and  C11_18
REMARK    8  A    between atoms: C15_24  and  C16_25
REMARK    9  A    between atoms: C26_36  and  O6_37
ROOT
HETATM    1  C11 UNL     1      37.539  23.229  20.234  1.00  0.00     0.096 A
HETATM    2  C12 UNL     1      38.675  23.360  21.098  1.00  0.00     0.077 A
HETATM    3  C13 UNL     1      39.152  24.551  21.543  1.00  0.00     0.095 A
HETATM    4  O3  UNL     1      40.193  24.650  22.332  1.00  0.00    -0.274 OA
HETATM    5  C14 UNL     1      40.649  25.778  22.763  1.00  0.00     0.298 A
HETATM    6  O4  UNL     1      41.663  25.773  23.521  1.00  0.00    -0.259 OA
HETATM    7  C15 UNL     1      40.086  27.038  22.445  1.00  0.00     0.063 A
HETATM    8  C26 UNL     1      39.001  26.952  21.614  1.00  0.00     0.091 A
HETATM    9  C27 UNL     1      38.514  25.720  21.149  1.00  0.00     0.033 A
HETATM   10  C28 UNL     1      37.432  25.624  20.322  1.00  0.00     0.039 A
HETATM   11  C29 UNL     1      36.930  24.385  19.854  1.00  0.00     0.045 A
HETATM   12 BR1  UNL     1      35.453  24.442  18.625  1.00  0.00    -0.048 Br
ENDROOT
BRANCH   1  13
HETATM   13  O2  UNL     1      37.187  21.975  19.891  1.00  0.00    -0.308 OA
BRANCH  13  14
HETATM   14  C4  UNL     1      36.575  20.864  20.382  1.00  0.00     0.121 C
BRANCH  14  15
HETATM   15  C1  UNL     1      36.594  19.639  19.578  1.00  0.00     0.271 C
HETATM   16  O1  UNL     1      37.783  19.279  19.199  1.00  0.00    -0.266 OA
HETATM   17  N1  UNL     1      35.520  18.829  19.179  1.00  0.00    -0.347 N
ATOM     18  H1  UNL     1      34.563  19.073  19.432  1.00  0.00     0.163 HD
BRANCH  17  19
HETATM   19  C2  UNL     1      35.803  17.624  18.392  1.00  0.00     0.240 C
BRANCH  19  20
HETATM   20  C3  UNL     1      35.792  16.376  19.203  1.00  0.00     0.403 C
HETATM   21  F1  UNL     1      36.567  16.467  20.346  1.00  0.00    -0.169 F
HETATM   22  F2  UNL     1      36.371  15.318  18.472  1.00  0.00    -0.169 F
HETATM   23  F3  UNL     1      34.503  16.043  19.522  1.00  0.00    -0.169 F
ENDBRANCH  19  20
ENDBRANCH  17  19
ENDBRANCH  14  15
BRANCH  14  24
HETATM   24  C5  UNL     1      36.874  20.667  21.862  1.00  0.00     0.075 C
BRANCH  24  25
HETATM   25  C6  UNL     1      35.859  20.921  22.873  1.00  0.00    -0.008 C
HETATM   26  C7  UNL     1      34.811  21.957  22.690  1.00  0.00     0.005 C
HETATM   27  C8  UNL     1      35.534  23.251  23.031  1.00  0.00     0.000 C
HETATM   28  C9  UNL     1      36.619  22.877  24.003  1.00  0.00     0.000 C
HETATM   29  C10 UNL     1      36.595  21.390  24.144  1.00  0.00     0.005 C
ENDBRANCH  24  25
ENDBRANCH  14  24
ENDBRANCH  13  14
ENDBRANCH   1  13
BRANCH   8  30
HETATM   30  O6  UNL     1      38.374  28.079  21.211  1.00  0.00    -0.359 OA
ATOM     31  H6  UNL     1      38.609  28.915  21.598  1.00  0.00     0.217 HD
ENDBRANCH   8  30
BRANCH   7  32
HETATM   32  C16 UNL     1      40.772  28.230  22.937  1.00  0.00     0.102 C
HETATM   33  C17 UNL     1      41.376  28.963  21.720  1.00  0.00     0.136 C
HETATM   34  O5  UNL     1      42.168  28.369  21.046  1.00  0.00    -0.297 OA
HETATM   35  C18 UNL     1      40.992  30.345  21.396  1.00  0.00     0.079 C
HETATM   36  C19 UNL     1      40.967  31.260  22.617  1.00  0.00     0.012 C
HETATM   37  C20 UNL     1      40.996  30.433  23.880  1.00  0.00    -0.009 C
HETATM   38  C21 UNL     1      40.641  31.207  25.089  1.00  0.00     0.005 C
HETATM   39  C25 UNL     1      40.064  29.231  23.759  1.00  0.00     0.005 C
HETATM   40  C22 UNL     1      39.177  31.450  25.272  1.00  0.00     0.000 C
HETATM   41  C23 UNL     1      38.268  30.351  24.913  1.00  0.00     0.000 C
HETATM   42  C24 UNL     1      38.684  29.631  23.595  1.00  0.00     0.006 C
ENDBRANCH   7  32
TORSDOF 9
ENDMDL