MODEL 4
REMARK VINA RESULT: -10.201075565      1.328      1.581
REMARK  8 active torsions:
REMARK  status: ('A' for Active; 'I' for Inactive)
REMARK    1  A    between atoms: N1_2  and  C2_3
REMARK    2  A    between atoms: N1_2  and  C8_13
REMARK    3  A    between atoms: C5_6  and  N2_7
REMARK    4  A    between atoms: C11_16  and  N3_17
REMARK    5  A    between atoms: N3_17  and  C20_30
REMARK    6  A    between atoms: C12_18  and  C13_19
REMARK    7  A    between atoms: C16_22  and  C17_23
REMARK    8  A    between atoms: N5_39  and  C27_40
ROOT
HETATM    1  N3  UNL     1      37.840  23.058  21.316  1.00  0.00    -0.338 N
HETATM    2  C12 UNL     1      37.192  23.906  22.164  1.00  0.00     0.107 C
ENDROOT
BRANCH   1   3
HETATM    3  C11 UNL     1      37.295  21.623  21.300  1.00  0.00     0.091 C
HETATM    4  C10 UNL     1      38.180  20.623  21.874  1.00  0.00     0.031 C
HETATM    5  C9  UNL     1      37.333  19.295  21.889  1.00  0.00     0.054 C
HETATM    6  C8  UNL     1      37.241  18.868  20.469  1.00  0.00    -0.011 C
HETATM    7  C34 UNL     1      36.979  19.877  19.437  1.00  0.00     0.054 C
HETATM    8  C33 UNL     1      36.979  21.305  19.831  1.00  0.00     0.031 C
BRANCH   6   9
HETATM    9  N1  UNL     1      36.524  17.637  20.274  1.00  0.00    -0.365 N
HETATM   10  C1  UNL     1      35.397  17.585  19.435  1.00  0.00     0.155 C
BRANCH   9  11
HETATM   11  C2  UNL     1      37.355  16.463  20.165  1.00  0.00    -0.011 C
HETATM   12  C3  UNL     1      36.696  15.360  19.383  1.00  0.00     0.054 C
HETATM   13  C4  UNL     1      37.595  14.148  19.356  1.00  0.00     0.038 C
HETATM   14  C5  UNL     1      37.927  13.632  20.714  1.00  0.00     0.184 C
HETATM   15  C6  UNL     1      37.663  14.611  21.807  1.00  0.00     0.038 C
HETATM   16  C7  UNL     1      38.106  16.020  21.332  1.00  0.00     0.054 C
BRANCH  14  17
HETATM   17  N2  UNL     1      39.302  13.132  20.774  1.00  0.00    -0.075 N
ATOM     18  H23 UNL     1      39.974  13.895  20.857  1.00  0.00     0.274 HD
ATOM     19  H22 UNL     1      39.490  12.659  21.657  1.00  0.00     0.274 HD
ATOM     20  H21 UNL     1      39.514  12.532  19.976  1.00  0.00     0.274 HD
ENDBRANCH  14  17
ENDBRANCH   9  11
ENDBRANCH   6   9
ENDBRANCH   1   3
BRANCH   1  21
HETATM   21  C20 UNL     1      38.837  23.336  20.351  1.00  0.00     0.108 A
HETATM   22  C21 UNL     1      38.446  23.685  19.087  1.00  0.00     0.051 A
HETATM   23  C22 UNL     1      39.298  24.315  18.221  1.00  0.00     0.036 A
HETATM   24  C23 UNL     1      40.551  24.570  18.666  1.00  0.00     0.062 A
HETATM   25  C24 UNL     1      40.993  24.199  19.966  1.00  0.00     0.070 A
HETATM   26  N5  UNL     1      41.601  25.254  18.119  1.00  0.00    -0.343 N
HETATM   27  N4  UNL     1      40.121  23.578  20.791  1.00  0.00    -0.340 N
HETATM   28  C25 UNL     1      42.243  24.663  20.100  1.00  0.00     0.019 A
ATOM     29  H4  UNL     1      40.409  23.292  21.727  1.00  0.00     0.167 HD
HETATM   30  C26 UNL     1      42.598  25.325  18.945  1.00  0.00     0.024 A
HETATM   31  C32 UNL     1      43.376  24.470  21.073  1.00  0.00     0.275 C
HETATM   32  C30 UNL     1      43.907  26.054  18.970  1.00  0.00     0.085 C
HETATM   33  C31 UNL     1      44.986  25.049  19.328  1.00  0.00     0.238 C
HETATM   34  N6  UNL     1      44.482  23.984  20.147  1.00  0.00    -0.071 N
ATOM     35  H62 UNL     1      44.175  23.192  19.582  1.00  0.00     0.277 HD
ATOM     36  H61 UNL     1      45.231  23.527  20.667  1.00  0.00     0.277 HD
BRANCH  26  37
HETATM   37  C27 UNL     1      41.444  25.900  16.818  1.00  0.00     0.090 A
HETATM   38  C28 UNL     1      42.427  25.528  15.709  1.00  0.00     0.028 A
HETATM   39  C29 UNL     1      40.981  25.159  15.630  1.00  0.00     0.028 A
ENDBRANCH  26  37
ENDBRANCH   1  21
BRANCH   2  40
HETATM   40  C13 UNL     1      37.278  25.327  22.325  1.00  0.00     0.018 A
HETATM   41  C14 UNL     1      38.152  26.071  23.033  1.00  0.00     0.017 A
HETATM   42  C15 UNL     1      37.877  27.409  23.383  1.00  0.00     0.017 A
HETATM   43  C16 UNL     1      36.695  28.007  23.014  1.00  0.00     0.050 A
HETATM   44  C18 UNL     1      35.783  27.267  22.274  1.00  0.00     0.059 A
HETATM   45  C19 UNL     1      36.059  26.006  21.954  1.00  0.00     0.128 A
HETATM   46  F4  UNL     1      35.196  25.300  21.157  1.00  0.00    -0.205 F
BRANCH  43  47
HETATM   47  C17 UNL     1      36.258  29.349  23.498  1.00  0.00     0.417 C
HETATM   48  F1  UNL     1      35.040  29.259  24.085  1.00  0.00    -0.166 F
HETATM   49  F2  UNL     1      37.188  30.041  24.194  1.00  0.00    -0.166 F
HETATM   50  F3  UNL     1      35.995  30.056  22.279  1.00  0.00    -0.166 F
ENDBRANCH  43  47
ENDBRANCH   2  40
TORSDOF 8
ENDMDL