MODEL 1
REMARK VINA RESULT: -6.644411393      0.000      0.000
REMARK  2 active torsions:
REMARK  status: ('A' for Active; 'I' for Inactive)
REMARK    1  A    between atoms: C2_2  and  O2_4
REMARK    2  A    between atoms: O2_4  and  C3_5
ROOT
HETATM    1  C3  UNL     1      19.189  16.377  19.171  1.00  0.00     0.149 C
HETATM    2  C4  UNL     1      20.263  17.306  19.661  1.00  0.00     0.146 C
HETATM    3  N1  UNL     1      21.045  16.791  20.736  1.00  0.00    -0.414 N
ATOM      4  H1  UNL     1      21.392  17.383  21.490  1.00  0.00     0.153 HD
HETATM    5  C5  UNL     1      21.309  15.401  20.683  1.00  0.00     0.081 C
HETATM    6  C6  UNL     1      22.719  14.996  20.945  1.00  0.00     0.026 C
HETATM    7  C7  UNL     1      22.683  13.544  20.464  1.00  0.00     0.011 C
HETATM    8  C8  UNL     1      21.783  13.606  19.252  1.00  0.00    -0.042 C
HETATM    9  C9  UNL     1      22.698  13.491  18.034  1.00  0.00     0.015 C
HETATM   10  C10 UNL     1      20.785  12.474  19.228  1.00  0.00     0.015 C
HETATM   11  C11 UNL     1      21.160  14.959  19.220  1.00  0.00     0.018 C
HETATM   12  C12 UNL     1      19.700  14.974  18.915  1.00  0.00     0.041 C
ENDROOT
BRANCH   1  13
HETATM   13  O2  UNL     1      18.760  16.893  17.902  1.00  0.00    -0.315 OA
BRANCH  13  14
HETATM   14  C2  UNL     1      17.470  16.816  17.454  1.00  0.00     0.255 C
HETATM   15  C1  UNL     1      16.360  17.629  18.026  1.00  0.00     0.126 C
HETATM   16  O1  UNL     1      17.191  16.032  16.522  1.00  0.00    -0.266 OA
ENDBRANCH  13  14
ENDBRANCH   1  13
TORSDOF 2
ENDMDL