MODEL 2
REMARK VINA RESULT: -4.630710203      2.219      3.607
REMARK  2 active torsions:
REMARK  status: ('A' for Active; 'I' for Inactive)
REMARK    1  A    between atoms: C2_2  and  C3_4
REMARK    2  A    between atoms: C7_8  and  C8_9
ROOT
HETATM    1  C3  UNL     1      20.670  11.045  16.796  1.00  0.00     0.053 C
HETATM    2  C4  UNL     1      21.913  10.940  15.949  1.00  0.00     0.027 C
HETATM    3  C5  UNL     1      20.038  12.438  16.666  1.00  0.00     0.084 C
HETATM    4  C6  UNL     1      18.608  12.101  17.011  1.00  0.00     0.055 C
HETATM    5  C7  UNL     1      17.627  12.984  17.173  1.00  0.00     0.116 C
HETATM    6  O4  UNL     1      18.477  10.714  17.131  1.00  0.00    -0.344 OA
HETATM    7  C9  UNL     1      19.540  10.207  16.309  1.00  0.00     0.074 C
HETATM    8  C10 UNL     1      19.139  10.575  14.892  1.00  0.00     0.047 C
HETATM    9  C11 UNL     1      19.708   8.738  16.391  1.00  0.00     0.047 C
ENDROOT
BRANCH   1  10
HETATM   10  C2  UNL     1      20.924  10.812  18.231  1.00  0.00     0.134 C
HETATM   11  C1  UNL     1      21.141  11.930  19.187  1.00  0.00     0.091 C
HETATM   12  O1  UNL     1      20.966   9.688  18.699  1.00  0.00    -0.297 OA
ENDBRANCH   1  10
BRANCH   5  13
HETATM   13  C8  UNL     1      17.870  14.400  17.024  1.00  0.00     0.201 C
HETATM   14  O2  UNL     1      17.502  14.973  15.982  1.00  0.00    -0.644 OA
HETATM   15  O3  UNL     1      18.500  15.171  17.990  1.00  0.00    -0.644 OA
ENDBRANCH   5  13
TORSDOF 2
ENDMDL