MODEL 4
REMARK VINA RESULT: -4.991070696      2.939      4.442
REMARK  2 active torsions:
REMARK  status: ('A' for Active; 'I' for Inactive)
REMARK    1  A    between atoms: C2_2  and  C3_7
REMARK    2  A    between atoms: N1_3  and  O1_5
ROOT
HETATM    1  C3  UNL     1      19.762  11.075  16.013  1.00  0.00     0.061 C
HETATM    2  C4  UNL     1      18.419  11.744  15.756  1.00  0.00     0.024 C
HETATM    3  C5  UNL     1      18.313  12.871  16.757  1.00  0.00     0.011 C
HETATM    4  C6  UNL     1      19.241  12.388  17.853  1.00  0.00    -0.042 C
HETATM    5  C7  UNL     1      19.598  13.525  18.797  1.00  0.00     0.015 C
HETATM    6  C8  UNL     1      18.620  11.282  18.602  1.00  0.00     0.021 C
HETATM    7  C9  UNL     1      18.811   9.912  18.060  1.00  0.00     0.053 C
HETATM    8  C10 UNL     1      19.572   9.083  19.105  1.00  0.00     0.018 C
HETATM    9  C11 UNL     1      19.490   9.828  16.770  1.00  0.00     0.145 C
HETATM   10  O2  UNL     1      19.847   8.779  16.282  1.00  0.00    -0.296 OA
HETATM   11  C12 UNL     1      20.461  11.983  17.028  1.00  0.00     0.032 C
ENDROOT
BRANCH   1  12
HETATM   12  C2  UNL     1      20.540  10.885  14.801  1.00  0.00     0.022 C
HETATM   13  C1  UNL     1      21.936  11.380  14.764  1.00  0.00     0.066 C
HETATM   14  N1  UNL     1      20.035  10.303  13.786  1.00  0.00    -0.277 N
ATOM     15  H1  UNL     1      19.071   9.973  13.843  1.00  0.00     0.193 HD
BRANCH  14  16
HETATM   16  O1  UNL     1      20.731  10.101  12.620  1.00  0.00    -0.290 OA
ATOM     17  H1  UNL     1      20.372  10.301  11.764  1.00  0.00     0.244 HD
ENDBRANCH  14  16
ENDBRANCH   1  12
TORSDOF 2
ENDMDL