MODEL 1
REMARK VINA RESULT: -5.542497299      0.000      0.000
REMARK  3 active torsions:
REMARK  status: ('A' for Active; 'I' for Inactive)
REMARK    1  A    between atoms: C2_2  and  O1_5
REMARK    2  A    between atoms: O1_5  and  C5_6
REMARK       I    between atoms: C5_6  and  N1_8
REMARK    3  A    between atoms: N1_8  and  C6_10
ROOT
HETATM    1  C5  UNL     1      18.136   9.220  19.237  1.00  0.00     0.361 C
HETATM    2  O2  UNL     1      18.004   8.244  18.462  1.00  0.00    -0.238 OA
HETATM    3  N1  UNL     1      18.055   9.166  20.639  1.00  0.00    -0.327 N
ATOM      4  H1  UNL     1      18.186  10.032  21.162  1.00  0.00     0.165 HD
ENDROOT
BRANCH   3   5
HETATM    5  C6  UNL     1      17.802   7.973  21.370  1.00  0.00     0.038 C
HETATM    6  C7  UNL     1      16.427   7.357  21.110  1.00  0.00     0.031 C
HETATM    7  C8  UNL     1      15.811   7.114  22.460  1.00  0.00     0.003 C
HETATM    8  C9  UNL     1      16.607   7.950  23.423  1.00  0.00     0.007 C
HETATM    9  C10 UNL     1      18.007   7.970  22.846  1.00  0.00     0.014 C
HETATM   10  C11 UNL     1      18.652   6.612  22.729  1.00  0.00     0.009 C
HETATM   11  C12 UNL     1      18.901   6.905  21.268  1.00  0.00     0.032 C
ENDBRANCH   3   5
BRANCH   1  12
HETATM   12  O1  UNL     1      18.381  10.441  18.610  1.00  0.00    -0.294 OA
BRANCH  12  13
HETATM   13  C2  UNL     1      19.622  10.856  18.138  1.00  0.00     0.061 C
HETATM   14  C1  UNL     1      19.906  12.225  18.773  1.00  0.00     0.046 C
HETATM   15  C3  UNL     1      20.766   9.962  18.557  1.00  0.00     0.046 C
HETATM   16  C4  UNL     1      19.662  11.034  16.649  1.00  0.00     0.046 C
ENDBRANCH  12  13
ENDBRANCH   1  12
TORSDOF 3
ENDMDL