MODEL 4
REMARK VINA RESULT: -6.762206017      2.718      5.274
REMARK  1 active torsions:
REMARK  status: ('A' for Active; 'I' for Inactive)
REMARK    1  A    between atoms: N1_2  and  C2_5
ROOT
HETATM    1  C2  UNL     1      17.760  17.099  17.173  1.00  0.00     0.469 C
HETATM    2  O1  UNL     1      18.437  17.071  18.365  1.00  0.00    -0.331 OA
HETATM    3  C3  UNL     1      18.689  15.739  18.691  1.00  0.00     0.155 C
HETATM    4  C4  UNL     1      20.131  15.396  18.673  1.00  0.00     0.035 C
HETATM    5  C5  UNL     1      20.660  14.416  19.658  1.00  0.00     0.002 C
HETATM    6  C6  UNL     1      21.505  13.281  19.060  1.00  0.00     0.000 C
HETATM    7  C7  UNL     1      20.700  11.986  18.917  1.00  0.00     0.000 C
HETATM    8  C8  UNL     1      20.190  11.696  17.549  1.00  0.00     0.000 C
HETATM    9  C9  UNL     1      18.758  11.362  17.375  1.00  0.00     0.000 C
HETATM   10  C10 UNL     1      17.848  12.511  16.877  1.00  0.00     0.002 C
HETATM   11  C11 UNL     1      18.390  13.691  17.545  1.00  0.00     0.035 C
HETATM   12  C12 UNL     1      17.808  15.022  17.641  1.00  0.00     0.155 C
HETATM   13  O2  UNL     1      18.008  15.863  16.556  1.00  0.00    -0.331 OA
ENDROOT
BRANCH   1  14
HETATM   14  N1  UNL     1      16.314  17.116  17.434  1.00  0.00    -0.029 N
HETATM   15  C1  UNL     1      15.927  18.185  18.298  1.00  0.00     0.273 C
ATOM     16  H12 UNL     1      15.995  16.217  17.797  1.00  0.00     0.282 HD
ATOM     17  H11 UNL     1      15.784  17.139  16.564  1.00  0.00     0.282 HD
ENDBRANCH   1  14
TORSDOF 1
ENDMDL