MODEL 2
REMARK VINA RESULT: -6.266411032      0.754      1.162
REMARK  5 active torsions:
REMARK  status: ('A' for Active; 'I' for Inactive)
REMARK    1  A    between atoms: C3_3  and  O1_5
REMARK    2  A    between atoms: C3_3  and  O2_7
REMARK    3  A    between atoms: O2_7  and  C5_8
REMARK    4  A    between atoms: C5_8  and  C6_9
REMARK    5  A    between atoms: C7_10  and  C8_11
ROOT
HETATM    1  C1  UNL     1      17.265  14.955  16.421  1.00  0.00     0.017 C
HETATM    2  C2  UNL     1      17.384  15.974  17.062  1.00  0.00    -0.050 C
HETATM    3  C3  UNL     1      17.517  17.200  17.851  1.00  0.00     0.226 C
HETATM    4  C4  UNL     1      16.130  17.745  18.148  1.00  0.00     0.095 C
ENDROOT
BRANCH   3   5
HETATM    5  O1  UNL     1      18.264  18.150  17.148  1.00  0.00    -0.356 OA
ATOM      6  H1  UNL     1      18.631  17.764  16.360  1.00  0.00     0.214 HD
ENDBRANCH   3   5
BRANCH   3   7
HETATM    7  O2  UNL     1      18.149  16.841  19.050  1.00  0.00    -0.333 OA
BRANCH   7   8
HETATM    8  C5  UNL     1      19.528  16.799  18.887  1.00  0.00     0.266 C
BRANCH   8   9
HETATM    9  C6  UNL     1      19.917  15.388  18.940  1.00  0.00    -0.080 C
HETATM   10  C7  UNL     1      20.220  14.222  18.976  1.00  0.00    -0.100 C
BRANCH  10  11
HETATM   11  C8  UNL     1      20.571  12.776  19.015  1.00  0.00     0.065 C
HETATM   12  C9  UNL     1      21.991  12.683  19.395  1.00  0.00     0.017 C
HETATM   13  C10 UNL     1      22.814  11.688  18.637  1.00  0.00     0.001 C
HETATM   14  C11 UNL     1      22.566  11.994  17.153  1.00  0.00     0.000 C
HETATM   15  C12 UNL     1      21.154  11.540  16.891  1.00  0.00     0.001 C
HETATM   16  C13 UNL     1      20.129  12.121  17.776  1.00  0.00     0.017 C
ENDBRANCH  10  11
ENDBRANCH   8   9
ENDBRANCH   7   8
ENDBRANCH   3   7
TORSDOF 5
ENDMDL