MODEL 4
REMARK VINA RESULT: -5.477334613      2.034      3.234
REMARK  1 active torsions:
REMARK  status: ('A' for Active; 'I' for Inactive)
REMARK    1  A    between atoms: C4_4  and  N1_5
ROOT
HETATM    1  C1  UNL     1      19.161  10.023  17.256  1.00  0.00     0.027 C
HETATM    2  C2  UNL     1      18.731  10.669  18.549  1.00  0.00     0.004 C
HETATM    3  C3  UNL     1      19.853  11.436  19.207  1.00  0.00     0.027 C
HETATM    4  C4  UNL     1      20.467  12.446  18.262  1.00  0.00     0.107 C
HETATM    5  C10 UNL     1      21.375  11.715  17.330  1.00  0.00     0.257 C
HETATM    6  N2  UNL     1      20.771  11.440  16.048  1.00  0.00    -0.073 N
ATOM      7  H21 UNL     1      21.326  10.766  15.521  1.00  0.00     0.277 HD
ATOM      8  H22 UNL     1      20.852  12.245  15.426  1.00  0.00     0.277 HD
HETATM    9  C11 UNL     1      19.395  11.005  16.152  1.00  0.00     0.232 C
ENDROOT
BRANCH   4  10
HETATM   10  N1  UNL     1      21.269  13.330  19.062  1.00  0.00    -0.382 N
HETATM   11  C5  UNL     1      20.862  14.510  19.279  1.00  0.00     0.042 C
HETATM   12  C6  UNL     1      21.650  15.476  20.102  1.00  0.00     0.064 C
HETATM   13  S1  UNL     1      19.309  15.091  18.610  1.00  0.00    -0.117 SA
HETATM   14  C7  UNL     1      20.685  16.334  20.862  1.00  0.00     0.007 C
HETATM   15  C8  UNL     1      20.061  17.378  19.966  1.00  0.00     0.011 C
HETATM   16  C9  UNL     1      18.997  16.792  19.072  1.00  0.00     0.080 C
ATOM     17  H1  UNL     1      22.157  13.010  19.451  1.00  0.00     0.160 HD
ENDBRANCH   4  10
TORSDOF 1
ENDMDL