MODEL 2
REMARK VINA RESULT: -5.603459821      2.715      4.480
REMARK  2 active torsions:
REMARK  status: ('A' for Active; 'I' for Inactive)
REMARK    1  A    between atoms: O1_2  and  C2_3
REMARK    2  A    between atoms: N1_9  and  O2_11
ROOT
HETATM    1  C2  UNL     1      19.171  17.025  17.881  1.00  0.00     0.138 C
HETATM    2  C3  UNL     1      19.285  15.941  18.588  1.00  0.00    -0.043 C
HETATM    3  C4  UNL     1      18.274  14.855  18.440  1.00  0.00     0.038 C
HETATM    4  C5  UNL     1      18.962  13.541  18.080  1.00  0.00     0.010 C
HETATM    5  C6  UNL     1      20.093  13.228  19.006  1.00  0.00     0.056 C
HETATM    6  C7  UNL     1      21.013  14.407  19.071  1.00  0.00     0.023 C
HETATM    7  N1  UNL     1      22.232  14.283  18.719  1.00  0.00    -0.276 N
ATOM      8  H1  UNL     1      22.864  15.083  18.761  1.00  0.00     0.193 HD
HETATM    9  C8  UNL     1      20.368  15.659  19.547  1.00  0.00     0.033 C
HETATM   10  C9  UNL     1      21.159  16.723  20.132  1.00  0.00     0.005 C
HETATM   11  C10 UNL     1      19.933  17.094  20.955  1.00  0.00     0.012 C
HETATM   12  C11 UNL     1      19.976  15.588  20.998  1.00  0.00     0.005 C
HETATM   13  C12 UNL     1      21.439  15.790  21.287  1.00  0.00     0.012 C
ENDROOT
BRANCH   7  14
HETATM   14  O2  UNL     1      22.683  13.066  18.286  1.00  0.00    -0.290 OA
ATOM     15  H2  UNL     1      23.203  13.020  17.492  1.00  0.00     0.244 HD
ENDBRANCH   7  14
BRANCH   1  16
HETATM   16  O1  UNL     1      18.134  17.216  16.985  1.00  0.00    -0.368 OA
HETATM   17  C1  UNL     1      17.028  18.040  17.295  1.00  0.00     0.208 C
ENDBRANCH   1  16
TORSDOF 2
ENDMDL