MODEL 2
REMARK VINA RESULT: -6.856012351      2.473      3.922
REMARK  1 active torsions:
REMARK  status: ('A' for Active; 'I' for Inactive)
REMARK    1  A    between atoms: N1_2  and  C2_4
ROOT
HETATM    1  C2  UNL     1      17.770  17.097  17.160  1.00  0.00     0.240 C
HETATM    2  C3  UNL     1      18.630  17.546  18.280  1.00  0.00     0.221 C
HETATM    3  O1  UNL     1      19.651  16.761  18.689  1.00  0.00    -0.379 OA
HETATM    4  C4  UNL     1      19.623  15.440  18.406  1.00  0.00     0.150 C
HETATM    5  C5  UNL     1      20.147  14.505  19.459  1.00  0.00     0.034 C
HETATM    6  C6  UNL     1      21.107  13.444  19.053  1.00  0.00     0.002 C
HETATM    7  C7  UNL     1      20.659  12.025  18.947  1.00  0.00     0.000 C
HETATM    8  C8  UNL     1      20.096  11.522  17.666  1.00  0.00     0.000 C
HETATM    9  C9  UNL     1      18.636  11.294  17.532  1.00  0.00     0.000 C
HETATM   10  C10 UNL     1      17.783  12.493  17.036  1.00  0.00     0.002 C
HETATM   11  C11 UNL     1      18.478  13.602  17.633  1.00  0.00     0.034 C
HETATM   12  C12 UNL     1      18.265  15.014  17.774  1.00  0.00     0.153 C
HETATM   13  O2  UNL     1      18.110  15.809  16.680  1.00  0.00    -0.357 OA
ENDROOT
BRANCH   1  14
HETATM   14  N1  UNL     1      16.369  17.033  17.470  1.00  0.00    -0.399 N
HETATM   15  C1  UNL     1      15.875  18.027  18.355  1.00  0.00     0.142 C
ATOM     16  H1  UNL     1      15.763  16.314  17.077  1.00  0.00     0.155 HD
ENDBRANCH   1  14
TORSDOF 1
ENDMDL