MODEL 3
REMARK VINA RESULT: -4.974136493      2.503      3.909
REMARK  2 active torsions:
REMARK  status: ('A' for Active; 'I' for Inactive)
REMARK    1  A    between atoms: C2_4  and  C4_6
REMARK    2  A    between atoms: C12_15  and  O1_16
ROOT
HETATM    1  C4  UNL     1      20.632  11.430  18.293  1.00  0.00     0.112 C
HETATM    2  C5  UNL     1      20.910   9.987  18.499  1.00  0.00     0.078 C
HETATM    3  N2  UNL     1      21.144   8.862  18.648  1.00  0.00    -0.196 NA
HETATM    4  C6  UNL     1      20.781  11.718  16.822  1.00  0.00     0.033 C
HETATM    5  C7  UNL     1      19.967  10.865  15.938  1.00  0.00     0.002 C
HETATM    6  C8  UNL     1      18.653  11.347  15.504  1.00  0.00     0.000 C
HETATM    7  C9  UNL     1      18.240  12.712  15.905  1.00  0.00     0.000 C
HETATM    8  C10 UNL     1      17.585  12.655  17.287  1.00  0.00     0.002 C
HETATM    9  C11 UNL     1      18.658  12.992  18.303  1.00  0.00     0.034 C
HETATM   10  C12 UNL     1      19.275  11.717  18.843  1.00  0.00     0.146 C
ENDROOT
BRANCH   1  11
HETATM   11  C2  UNL     1      21.712  12.153  19.013  1.00  0.00     0.003 C
HETATM   12  N1  UNL     1      22.591  11.501  19.674  1.00  0.00    -0.399 N
HETATM   13  C1  UNL     1      23.658  12.122  20.391  1.00  0.00     0.145 C
ATOM     14  H1  UNL     1      22.526  10.484  19.690  1.00  0.00     0.158 HD
HETATM   15  C3  UNL     1      21.842  13.634  19.015  1.00  0.00     0.065 C
ENDBRANCH   1  11
BRANCH  10  16
HETATM   16  O1  UNL     1      18.374  10.689  18.737  1.00  0.00    -0.393 OA
ATOM     17  H1  UNL     1      17.500  10.944  18.466  1.00  0.00     0.210 HD
ENDBRANCH  10  16
TORSDOF 2
ENDMDL