MODEL 2
REMARK VINA RESULT: -8.379784383      1.217      1.577
REMARK  13 active torsions:
REMARK  status: ('A' for Active; 'I' for Inactive)
REMARK    1  A    between atoms: C2_2  and  C3_3
REMARK    2  A    between atoms: C3_3  and  N1_4
REMARK    3  A    between atoms: C3_3  and  C25_42
REMARK       I    between atoms: N1_4  and  C4_6
REMARK    4  A    between atoms: C4_6  and  C5_8
REMARK    5  A    between atoms: C5_8  and  C6_9
REMARK    6  A    between atoms: C5_8  and  N5_18
REMARK    7  A    between atoms: C6_9  and  N2_10
REMARK       I    between atoms: C7_12  and  N4_14
REMARK    8  A    between atoms: N4_14  and  C8_16
REMARK       I    between atoms: N5_18  and  C9_20
REMARK    9  A    between atoms: C9_20  and  C10_22
REMARK       I    between atoms: N6_26  and  C14_27
REMARK   10  A    between atoms: C14_27  and  C15_29
REMARK   11  A    between atoms: C15_29  and  C16_30
REMARK   12  A    between atoms: C15_29  and  N7_37
REMARK   13  A    between atoms: C16_30  and  C17_31
REMARK       I    between atoms: N7_37  and  C23_39
ROOT
HETATM    1  N5  UNL     1       4.459   5.457  22.618  1.00  0.00    -0.344 N
ATOM      2  H5  UNL     1       4.862   5.743  21.726  1.00  0.00     0.163 HD
HETATM    3  C9  UNL     1       3.747   4.234  22.688  1.00  0.00     0.241 C
HETATM    4  O3  UNL     1       3.254   3.894  23.786  1.00  0.00    -0.271 OA
ENDROOT
BRANCH   1   5
HETATM    5  C5  UNL     1       4.633   6.314  23.774  1.00  0.00     0.194 C
BRANCH   5   6
HETATM    6  C4  UNL     1       3.445   7.156  24.023  1.00  0.00     0.242 C
HETATM    7  N1  UNL     1       2.789   7.766  22.940  1.00  0.00    -0.351 N
ATOM      8  H1  UNL     1       3.155   7.602  22.003  1.00  0.00     0.163 HD
HETATM    9  O1  UNL     1       3.032   7.323  25.182  1.00  0.00    -0.271 OA
BRANCH   7  10
HETATM   10  C3  UNL     1       1.622   8.616  23.078  1.00  0.00     0.110 C
BRANCH  10  11
HETATM   11  C2  UNL     1       2.043  10.050  23.133  1.00  0.00    -0.012 C
HETATM   12  C1  UNL     1       1.968  10.840  22.074  1.00  0.00     0.009 C
ENDBRANCH  10  11
BRANCH  10  13
HETATM   13  C25 UNL     1       0.759   8.391  21.841  1.00  0.00     0.004 C
HETATM   14  C26 UNL     1      -0.695   8.161  22.220  1.00  0.00     0.012 C
HETATM   15  C27 UNL     1       1.281   7.153  21.103  1.00  0.00     0.012 C
ENDBRANCH  10  13
ENDBRANCH   7  10
ENDBRANCH   5   6
BRANCH   5  16
HETATM   16  C6  UNL     1       5.826   7.200  23.623  1.00  0.00     0.157 C
BRANCH  16  17
HETATM   17  N2  UNL     1       6.700   7.202  24.778  1.00  0.00    -0.362 N
HETATM   18  C7  UNL     1       7.945   7.417  24.614  1.00  0.00     0.190 C
HETATM   19  N3  UNL     1       8.468   7.648  23.324  1.00  0.00    -0.063 NA
HETATM   20  N4  UNL     1       8.805   7.419  25.743  1.00  0.00    -0.309 N
ATOM     21  H4  UNL     1       8.407   7.249  26.666  1.00  0.00     0.170 HD
ATOM     22  H2  UNL     1       6.324   7.033  25.711  1.00  0.00     0.162 HD
BRANCH  20  23
HETATM   23  C8  UNL     1      10.205   7.651  25.630  1.00  0.00     0.355 C
HETATM   24  O2  UNL     1      10.658   8.809  25.723  1.00  0.00    -0.283 OA
ENDBRANCH  20  23
ENDBRANCH  16  17
ENDBRANCH   5  16
ENDBRANCH   1   5
BRANCH   3  25
HETATM   25  C10 UNL     1       3.574   3.366  21.511  1.00  0.00     0.179 C
HETATM   26  C11 UNL     1       3.271   1.925  21.854  1.00  0.00     0.037 C
HETATM   27  C12 UNL     1       4.593   1.209  21.767  1.00  0.00     0.022 C
HETATM   28  C13 UNL     1       5.628   2.335  21.584  1.00  0.00     0.127 C
HETATM   29  N6  UNL     1       4.846   3.264  20.815  1.00  0.00    -0.337 N
HETATM   30  C14 UNL     1       5.211   3.972  19.679  1.00  0.00     0.243 C
HETATM   31  O4  UNL     1       4.405   4.852  19.215  1.00  0.00    -0.271 OA
BRANCH  30  32
HETATM   32  C15 UNL     1       6.462   3.806  18.948  1.00  0.00     0.177 C
BRANCH  32  33
HETATM   33  C16 UNL     1       6.347   2.960  17.711  1.00  0.00     0.039 C
BRANCH  33  34
HETATM   34  C17 UNL     1       6.855   1.598  17.698  1.00  0.00    -0.012 C
HETATM   35  C18 UNL     1       7.945   1.514  18.792  1.00  0.00     0.005 C
HETATM   36  C19 UNL     1       9.293   1.939  18.246  1.00  0.00     0.000 C
HETATM   37  C20 UNL     1       9.806   0.755  17.452  1.00  0.00     0.000 C
HETATM   38  C21 UNL     1       8.630   0.095  16.821  1.00  0.00     0.000 C
HETATM   39  C22 UNL     1       7.513   1.073  16.460  1.00  0.00     0.005 C
ENDBRANCH  33  34
ENDBRANCH  32  33
BRANCH  32  40
HETATM   40  N7  UNL     1       7.073   5.102  18.628  1.00  0.00    -0.348 N
HETATM   41  C23 UNL     1       7.496   5.974  19.638  1.00  0.00     0.214 C
HETATM   42  C24 UNL     1       8.116   7.285  19.430  1.00  0.00     0.117 C
HETATM   43  O5  UNL     1       7.334   5.607  20.850  1.00  0.00    -0.274 OA
ATOM     44  H7  UNL     1       7.192   5.371  17.652  1.00  0.00     0.163 HD
ENDBRANCH  32  40
ENDBRANCH  30  32
ENDBRANCH   3  25
TORSDOF 13
ENDMDL