MODEL 4
REMARK VINA RESULT: -6.777046242      2.049      5.902
REMARK  15 active torsions:
REMARK  status: ('A' for Active; 'I' for Inactive)
REMARK    1  A    between atoms: C2_2  and  C3_3
REMARK       I    between atoms: C3_3  and  N1_5
REMARK    2  A    between atoms: N1_5  and  C5_7
REMARK    3  A    between atoms: C5_7  and  C6_8
REMARK    4  A    between atoms: C5_7  and  C10_12
REMARK    5  A    between atoms: C6_8  and  C7_9
REMARK       I    between atoms: C10_12  and  N2_14
REMARK       I    between atoms: N2_14  and  C11_16
REMARK    6  A    between atoms: C11_16  and  C12_18
REMARK    7  A    between atoms: N4_24  and  C17_25
REMARK    8  A    between atoms: C17_25  and  O4_26
REMARK    9  A    between atoms: C17_25  and  C18_28
REMARK   10  A    between atoms: C18_28  and  N5_30
REMARK       I    between atoms: N5_30  and  C20_32
REMARK       I    between atoms: C20_32  and  N6_34
REMARK   11  A    between atoms: N6_34  and  C21_35
REMARK   12  A    between atoms: C21_35  and  C22_36
REMARK   13  A    between atoms: C21_35  and  C26_40
REMARK   14  A    between atoms: C22_36  and  C23_37
REMARK   15  A    between atoms: C23_37  and  C24_38
ROOT
HETATM    1  C12 UNL     1       2.542   6.050  21.875  1.00  0.00     0.206 C
HETATM    2  C13 UNL     1       1.403   5.016  21.766  1.00  0.00     0.273 C
HETATM    3  N3  UNL     1       1.751   4.018  22.774  1.00  0.00    -0.057 N
HETATM    4  C14 UNL     1       0.574   3.815  23.627  1.00  0.00     0.274 C
HETATM    5  C15 UNL     1       2.157   2.778  22.156  1.00  0.00     0.274 C
HETATM    6  C16 UNL     1       2.833   4.543  23.536  1.00  0.00     0.363 C
HETATM    7  N4  UNL     1       2.834   6.019  23.292  1.00  0.00    -0.325 N
ENDROOT
BRANCH   7   8
HETATM    8  C17 UNL     1       3.084   6.945  24.283  1.00  0.00     0.139 C
BRANCH   8   9
HETATM    9  O4  UNL     1       2.649   6.655  25.474  1.00  0.00    -0.348 OA
ATOM     10  H4  UNL     1       3.129   7.027  26.204  1.00  0.00     0.219 HD
ENDBRANCH   8   9
BRANCH   8  11
HETATM   11  C18 UNL     1       3.770   8.233  24.245  1.00  0.00     0.158 C
HETATM   12  C19 UNL     1       3.259   9.335  25.100  1.00  0.00     0.041 C
BRANCH  11  13
HETATM   13  N5  UNL     1       5.206   8.186  24.407  1.00  0.00    -0.320 N
HETATM   14  C20 UNL     1       6.130   8.486  23.315  1.00  0.00     0.390 C
HETATM   15  O5  UNL     1       5.490   8.849  22.265  1.00  0.00    -0.231 OA
HETATM   16  N6  UNL     1       7.460   8.363  23.440  1.00  0.00    -0.380 NA
ATOM     17  H5  UNL     1       5.589   7.935  25.318  1.00  0.00     0.166 HD
BRANCH  16  18
HETATM   18  C21 UNL     1       8.839   8.247  23.532  1.00  0.00     0.269 C
BRANCH  18  19
HETATM   19  C22 UNL     1       9.519   8.387  24.881  1.00  0.00     0.051 C
BRANCH  19  20
HETATM   20  C23 UNL     1       9.168   7.283  25.829  1.00  0.00     0.003 C
BRANCH  20  21
HETATM   21  C24 UNL     1      10.300   6.882  26.710  1.00  0.00    -0.004 C
HETATM   22  C25 UNL     1      11.639   7.524  26.374  1.00  0.00     0.005 C
ENDBRANCH  20  21
ENDBRANCH  19  20
ENDBRANCH  18  19
BRANCH  18  23
HETATM   23  C26 UNL     1       9.506   9.198  22.618  1.00  0.00     0.210 C
HETATM   24  O6  UNL     1       9.102   9.590  21.518  1.00  0.00    -0.646 OA
HETATM   25  O7  UNL     1      10.756   9.734  23.022  1.00  0.00    -0.646 OA
ENDBRANCH  18  23
ENDBRANCH  16  18
ENDBRANCH  11  13
ENDBRANCH   8  11
ENDBRANCH   7   8
BRANCH   1  26
HETATM   26  C11 UNL     1       3.671   5.757  20.996  1.00  0.00     0.249 C
HETATM   27  N2  UNL     1       5.009   5.883  21.305  1.00  0.00    -0.294 N
HETATM   28  C10 UNL     1       6.180   5.576  20.601  1.00  0.00     0.247 C
ATOM     29  H2  UNL     1       5.180   6.276  22.230  1.00  0.00     0.171 HD
HETATM   30  O2  UNL     1       7.285   5.936  21.144  1.00  0.00    -0.271 OA
HETATM   31  O3  UNL     1       3.336   5.345  19.812  1.00  0.00    -0.271 OA
BRANCH  28  32
HETATM   32  C5  UNL     1       6.291   4.886  19.300  1.00  0.00     0.179 C
BRANCH  32  33
HETATM   33  N1  UNL     1       5.864   5.636  18.157  1.00  0.00    -0.340 N
HETATM   34  C3  UNL     1       5.292   4.934  17.021  1.00  0.00     0.242 C
HETATM   35  O1  UNL     1       4.828   5.594  16.032  1.00  0.00    -0.268 OA
HETATM   36  C4  UNL     1       5.901   7.072  18.019  1.00  0.00     0.154 C
BRANCH  34  37
HETATM   37  C2  UNL     1       5.204   3.492  16.893  1.00  0.00     0.064 C
HETATM   38  C1  UNL     1       5.815   2.906  15.856  1.00  0.00     0.017 C
ENDBRANCH  34  37
ENDBRANCH  32  33
BRANCH  32  39
HETATM   39  C6  UNL     1       7.636   4.225  19.090  1.00  0.00     0.039 C
BRANCH  39  40
HETATM   40  C7  UNL     1       7.810   2.827  19.510  1.00  0.00    -0.020 C
HETATM   41  C8  UNL     1       6.577   2.043  19.846  1.00  0.00     0.009 C
HETATM   42  C9  UNL     1       8.535   2.097  18.373  1.00  0.00     0.009 C
ENDBRANCH  39  40
ENDBRANCH  32  39
ENDBRANCH  28  32
ENDBRANCH   1  26
TORSDOF 15
ENDMDL