MODEL 5
REMARK VINA RESULT: -6.669301585      3.256      8.848
REMARK  19 active torsions:
REMARK  status: ('A' for Active; 'I' for Inactive)
REMARK    1  A    between atoms: C2_2  and  C4_4
REMARK    2  A    between atoms: C4_4  and  C5_5
REMARK    3  A    between atoms: C4_4  and  N1_7
REMARK       I    between atoms: N1_7  and  C6_9
REMARK       I    between atoms: C6_9  and  N3_14
REMARK    4  A    between atoms: N2_10  and  O2_12
REMARK    5  A    between atoms: C10_18  and  C11_19
REMARK       I    between atoms: C11_19  and  N4_21
REMARK    6  A    between atoms: N4_21  and  C12_23
REMARK    7  A    between atoms: C12_23  and  C13_24
REMARK    8  A    between atoms: C13_24  and  C14_25
REMARK    9  A    between atoms: C14_25  and  C15_26
REMARK   10  A    between atoms: C15_26  and  C16_27
REMARK   11  A    between atoms: C16_27  and  C17_28
REMARK   12  A    between atoms: C16_27  and  N7_34
REMARK   13  A    between atoms: C17_28  and  N5_29
REMARK   14  A    between atoms: C18_36  and  C19_37
REMARK   15  A    between atoms: C19_37  and  N8_38
REMARK   16  A    between atoms: N8_38  and  C20_39
REMARK   17  A    between atoms: N8_38  and  C22_41
REMARK   18  A    between atoms: C22_41  and  O4_42
REMARK   19  A    between atoms: C22_41  and  N9_44
ROOT
HETATM    1  C13 UNL     1       7.432   3.220  18.781  1.00  0.00     0.020 C
ENDROOT
BRANCH   1   2
HETATM    2  C12 UNL     1       7.703   4.672  18.987  1.00  0.00     0.122 C
BRANCH   2   3
HETATM    3  N4  UNL     1       6.539   5.341  19.492  1.00  0.00    -0.359 N
HETATM    4  C11 UNL     1       6.357   6.756  19.283  1.00  0.00     0.241 C
HETATM    5  O3  UNL     1       7.242   7.359  18.655  1.00  0.00    -0.271 OA
ATOM      6  H4  UNL     1       5.834   4.810  20.003  1.00  0.00     0.162 HD
BRANCH   4   7
HETATM    7  C10 UNL     1       5.152   7.442  19.807  1.00  0.00     0.194 C
HETATM    8  N3  UNL     1       5.266   8.024  21.087  1.00  0.00    -0.203 N
HETATM    9  C6  UNL     1       6.075   7.759  22.232  1.00  0.00     0.697 C
HETATM   10  C7  UNL     1       4.272   9.122  21.160  1.00  0.00     0.142 C
HETATM   11  N1  UNL     1       6.776   8.840  22.824  1.00  0.00    -0.210 N
HETATM   12  N2  UNL     1       6.133   6.595  22.713  1.00  0.00    -0.099 N
ATOM     13  H1  UNL     1       6.242   9.404  23.485  1.00  0.00     0.179 HD
ATOM     14  H2  UNL     1       6.714   6.493  23.545  1.00  0.00     0.213 HD
HETATM   15  C8  UNL     1       3.713   9.269  19.764  1.00  0.00     0.023 C
HETATM   16  C9  UNL     1       4.794   8.628  18.899  1.00  0.00     0.037 C
BRANCH  11  17
HETATM   17  C4  UNL     1       8.111   9.239  22.618  1.00  0.00     0.189 C
BRANCH  17  18
HETATM   18  C2  UNL     1       9.002   8.851  23.737  1.00  0.00    -0.064 C
HETATM   19  C1  UNL     1      10.283   9.137  23.735  1.00  0.00     0.016 C
HETATM   20  C3  UNL     1       8.401   8.132  24.929  1.00  0.00     0.045 C
ENDBRANCH  17  18
BRANCH  17  21
HETATM   21  C5  UNL     1       8.731   8.948  21.309  1.00  0.00     0.261 C
HETATM   22  O1  UNL     1       8.948   9.737  20.420  1.00  0.00    -0.304 OA
ENDBRANCH  17  21
ENDBRANCH  11  17
BRANCH  12  23
HETATM   23  O2  UNL     1       5.535   5.462  22.283  1.00  0.00    -0.276 OA
ATOM     24  H2  UNL     1       5.805   4.863  21.596  1.00  0.00     0.245 HD
ENDBRANCH  12  23
ENDBRANCH   4   7
ENDBRANCH   2   3
ENDBRANCH   1   2
BRANCH   1  25
HETATM   25  C14 UNL     1       8.680   2.430  18.532  1.00  0.00     0.004 C
BRANCH  25  26
HETATM   26  C15 UNL     1       8.433   1.016  18.078  1.00  0.00     0.027 C
BRANCH  26  27
HETATM   27  C16 UNL     1       8.970   0.737  16.706  1.00  0.00     0.100 C
BRANCH  27  28
HETATM   28  C17 UNL     1       9.820  -0.513  16.660  1.00  0.00     0.163 C
BRANCH  28  29
HETATM   29  N5  UNL     1      10.980  -0.370  17.516  1.00  0.00    -0.341 N
HETATM   30  N6  UNL     1      11.874  -1.203  17.380  1.00  0.00    -0.349 N
ATOM     31  H62 UNL     1      11.788  -1.952  16.693  1.00  0.00     0.176 HD
ATOM     32  H61 UNL     1      12.691  -1.102  17.982  1.00  0.00     0.176 HD
ATOM     33  H5  UNL     1      11.052   0.385  18.198  1.00  0.00     0.179 HD
ENDBRANCH  28  29
ENDBRANCH  27  28
BRANCH  27  34
HETATM   34  N7  UNL     1       7.821   0.442  15.859  1.00  0.00    -0.394 N
HETATM   35  C18 UNL     1       7.198   1.371  15.274  1.00  0.00     0.075 C
ATOM     36  H7  UNL     1       7.519  -0.524  15.738  1.00  0.00     0.159 HD
BRANCH  35  37
HETATM   37  C19 UNL     1       6.038   1.051  14.419  1.00  0.00     0.170 C
BRANCH  37  38
HETATM   38  N8  UNL     1       4.939   1.967  14.835  1.00  0.00    -0.343 N
BRANCH  38  39
HETATM   39  C20 UNL     1       3.929   1.383  15.644  1.00  0.00     0.122 C
HETATM   40  C21 UNL     1       4.289   1.555  17.106  1.00  0.00     0.026 C
ENDBRANCH  38  39
BRANCH  38  41
HETATM   41  C22 UNL     1       4.964   3.287  14.393  1.00  0.00     0.217 C
BRANCH  41  42
HETATM   42  O4  UNL     1       5.327   3.440  13.115  1.00  0.00    -0.333 OA
ATOM     43  H4  UNL     1       4.719   3.947  12.589  1.00  0.00     0.220 HD
ENDBRANCH  41  42
BRANCH  41  44
HETATM   44  N9  UNL     1       4.692   4.495  15.005  1.00  0.00    -0.347 N
HETATM   45  C23 UNL     1       3.734   5.495  14.441  1.00  0.00     0.126 C
HETATM   46  C24 UNL     1       2.933   5.828  15.679  1.00  0.00     0.021 C
HETATM   47  C25 UNL     1       3.795   5.450  16.868  1.00  0.00     0.021 C
HETATM   48  C26 UNL     1       5.150   5.140  16.180  1.00  0.00     0.126 C
ENDBRANCH  41  44
ENDBRANCH  38  41
ENDBRANCH  37  38
ENDBRANCH  35  37
ENDBRANCH  27  34
ENDBRANCH  26  27
ENDBRANCH  25  26
ENDBRANCH   1  25
TORSDOF 19
ENDMDL