MODEL 3
REMARK VINA RESULT: -6.632930128      2.268      4.004
REMARK  20 active torsions:
REMARK  status: ('A' for Active; 'I' for Inactive)
REMARK    1  A    between atoms: C2_2  and  C3_3
REMARK    2  A    between atoms: C3_3  and  C4_4
REMARK    3  A    between atoms: C4_4  and  C5_5
REMARK    4  A    between atoms: C5_5  and  N1_6
REMARK    5  A    between atoms: C5_5  and  C18_38
REMARK    6  A    between atoms: N1_6  and  C6_8
REMARK    7  A    between atoms: C6_8  and  N2_9
REMARK    8  A    between atoms: C6_8  and  C11_14
REMARK    9  A    between atoms: N2_9  and  C7_10
REMARK   10  A    between atoms: N3_16  and  N4_18
REMARK   11  A    between atoms: N4_18  and  N5_20
REMARK   12  A    between atoms: N5_20  and  N6_21
REMARK   13  A    between atoms: C15_29  and  O1_30
REMARK   14  A    between atoms: C15_29  and  C16_32
REMARK   15  A    between atoms: C16_32  and  N9_33
REMARK       I    between atoms: N9_33  and  C17_35
REMARK       I    between atoms: C18_38  and  N12_40
REMARK   16  A    between atoms: N12_40  and  C19_41
REMARK   17  A    between atoms: N12_40  and  C22_44
REMARK   18  A    between atoms: C19_41  and  C20_42
REMARK   19  A    between atoms: C22_44  and  C23_45
REMARK   20  A    between atoms: C23_45  and  C24_46
ROOT
HETATM    1  C11 UNL     1       5.435   6.506  22.348  1.00  0.00     0.237 C
HETATM    2  C12 UNL     1       4.779   7.657  22.943  1.00  0.00     0.126 C
HETATM    3  N3  UNL     1       3.532   7.925  23.027  1.00  0.00    -0.261 N
ATOM      4  H3  UNL     1       2.855   7.270  22.637  1.00  0.00     0.191 HD
HETATM    5  N7  UNL     1       5.656   8.613  23.534  1.00  0.00    -0.375 N
ATOM      6  H7  UNL     1       5.265   9.241  24.235  1.00  0.00     0.160 HD
HETATM    7  C13 UNL     1       7.060   8.759  23.214  1.00  0.00     0.141 C
HETATM    8  C14 UNL     1       7.576   7.630  22.363  1.00  0.00     0.146 C
HETATM    9  N8  UNL     1       6.508   7.092  21.524  1.00  0.00    -0.340 N
HETATM   10  C15 UNL     1       6.575   7.127  20.170  1.00  0.00     0.154 C
ENDROOT
BRANCH   1  11
HETATM   11  C6  UNL     1       4.699   5.420  21.758  1.00  0.00     0.177 C
BRANCH  11  12
HETATM   12  N1  UNL     1       5.450   4.161  21.741  1.00  0.00    -0.354 N
ATOM     13  H1  UNL     1       6.118   3.984  22.491  1.00  0.00     0.162 HD
BRANCH  12  14
HETATM   14  C5  UNL     1       5.286   3.151  20.707  1.00  0.00     0.176 C
BRANCH  14  15
HETATM   15  C4  UNL     1       5.119   1.864  21.496  1.00  0.00     0.035 C
BRANCH  15  16
HETATM   16  C3  UNL     1       3.765   1.328  21.651  1.00  0.00     0.002 C
BRANCH  16  17
HETATM   17  C2  UNL     1       3.252   1.147  23.049  1.00  0.00    -0.004 C
HETATM   18  C1  UNL     1       2.820   2.456  23.669  1.00  0.00     0.005 C
ENDBRANCH  16  17
ENDBRANCH  15  16
ENDBRANCH  14  15
BRANCH  14  19
HETATM   19  C18 UNL     1       6.657   3.049  20.051  1.00  0.00     0.242 C
HETATM   20  O2  UNL     1       7.612   3.720  20.612  1.00  0.00    -0.271 OA
HETATM   21  N12 UNL     1       7.009   2.327  18.930  1.00  0.00    -0.350 N
BRANCH  21  22
HETATM   22  C19 UNL     1       8.381   2.262  18.480  1.00  0.00     0.125 C
BRANCH  22  23
HETATM   23  C20 UNL     1       8.969   0.895  18.486  1.00  0.00     0.015 C
HETATM   24  C21 UNL     1      10.241   0.748  17.713  1.00  0.00     0.006 C
ENDBRANCH  22  23
ENDBRANCH  21  22
BRANCH  21  25
HETATM   25  C22 UNL     1       6.037   1.656  18.119  1.00  0.00     0.126 C
BRANCH  25  26
HETATM   26  C23 UNL     1       5.677   2.490  16.885  1.00  0.00     0.020 C
BRANCH  26  27
HETATM   27  C24 UNL     1       6.159   1.810  15.638  1.00  0.00    -0.003 C
HETATM   28  C25 UNL     1       6.385   0.321  15.865  1.00  0.00     0.005 C
ENDBRANCH  26  27
ENDBRANCH  25  26
ENDBRANCH  21  25
ENDBRANCH  14  19
ENDBRANCH  12  14
ENDBRANCH  11  12
BRANCH  11  29
HETATM   29  N2  UNL     1       3.599   5.424  21.286  1.00  0.00    -0.422 NA
BRANCH  29  30
HETATM   30  C7  UNL     1       2.364   5.438  20.767  1.00  0.00     0.084 C
HETATM   31  C8  UNL     1       2.056   6.732  19.936  1.00  0.00     0.053 C
HETATM   32  C9  UNL     1       2.007   4.376  19.699  1.00  0.00     0.053 C
HETATM   33  C10 UNL     1       1.244   5.446  21.806  1.00  0.00     0.053 C
ENDBRANCH  29  30
ENDBRANCH  11  29
ENDBRANCH   1  11
BRANCH   3  34
HETATM   34  N4  UNL     1       3.080   9.081  23.634  1.00  0.00    -0.155 N
ATOM     35  H4  UNL     1       2.673   9.810  23.048  1.00  0.00     0.225 HD
BRANCH  34  36
HETATM   36  N5  UNL     1       3.144   9.272  24.847  1.00  0.00    -0.228 NA
BRANCH  36  37
HETATM   37  N6  UNL     1       3.170   9.698  26.011  1.00  0.00    -0.259 N
ATOM     38  H62 UNL     1       3.337  10.641  25.660  1.00  0.00     0.193 HD
ATOM     39  H61 UNL     1       3.158   9.857  27.018  1.00  0.00     0.193 HD
ENDBRANCH  36  37
ENDBRANCH  34  36
ENDBRANCH   3  34
BRANCH  10  40
HETATM   40  O1  UNL     1       5.610   6.422  19.601  1.00  0.00    -0.345 OA
ATOM     41  H1  UNL     1       5.113   6.932  18.972  1.00  0.00     0.219 HD
ENDBRANCH  10  40
BRANCH  10  42
HETATM   42  C16 UNL     1       7.407   7.725  19.154  1.00  0.00     0.146 C
BRANCH  42  43
HETATM   43  N9  UNL     1       7.030   8.908  18.466  1.00  0.00    -0.339 N
HETATM   44  C17 UNL     1       7.347  10.100  18.780  1.00  0.00     0.201 C
HETATM   45  N10 UNL     1       6.892  11.178  17.993  1.00  0.00    -0.067 NA
HETATM   46  N11 UNL     1       8.144  10.335  19.919  1.00  0.00    -0.067 NA
ATOM     47  H9  UNL     1       6.447   8.791  17.637  1.00  0.00     0.167 HD
ENDBRANCH  42  43
ENDBRANCH  10  42
TORSDOF 20
ENDMDL