MODEL 4
REMARK VINA RESULT: -6.410447221      2.576      5.229
REMARK  17 active torsions:
REMARK  status: ('A' for Active; 'I' for Inactive)
REMARK    1  A    between atoms: C2_2  and  C3_3
REMARK    2  A    between atoms: C3_3  and  C4_4
REMARK    3  A    between atoms: C4_4  and  O1_5
REMARK    4  A    between atoms: C4_4  and  C5_7
REMARK    5  A    between atoms: C5_7  and  C6_8
REMARK    6  A    between atoms: C5_7  and  N8_32
REMARK       I    between atoms: C6_8  and  N1_10
REMARK    7  A    between atoms: C7_11  and  C8_12
REMARK    8  A    between atoms: C8_12  and  C9_13
REMARK    9  A    between atoms: C9_13  and  C10_14
REMARK   10  A    between atoms: C10_14  and  N2_15
REMARK   11  A    between atoms: C12_20  and  C13_21
REMARK   12  A    between atoms: C13_21  and  N5_22
REMARK       I    between atoms: C14_24  and  N7_26
REMARK   13  A    between atoms: N8_32  and  C21_34
REMARK   14  A    between atoms: C21_34  and  O3_35
REMARK   15  A    between atoms: C21_34  and  C22_37
REMARK   16  A    between atoms: C22_37  and  C23_38
REMARK   17  A    between atoms: C23_38  and  C24_39
REMARK       I    between atoms: C24_39  and  N9_41
ROOT
HETATM    1  C6  UNL     1       7.150   8.122  19.702  1.00  0.00     0.270 C
HETATM    2  O2  UNL     1       8.340   8.564  19.515  1.00  0.00    -0.266 OA
HETATM    3  N1  UNL     1       6.147   9.041  19.309  1.00  0.00    -0.333 N
HETATM    4  C7  UNL     1       4.727   9.182  19.191  1.00  0.00     0.096 C
HETATM    5  C12 UNL     1       4.888  10.676  19.217  1.00  0.00     0.054 C
HETATM    6  C17 UNL     1       6.275  10.395  18.785  1.00  0.00     0.036 C
HETATM    7  C18 UNL     1       7.264  11.254  19.549  1.00  0.00     0.039 C
HETATM    8  C19 UNL     1       6.519  10.464  17.304  1.00  0.00     0.039 C
ENDROOT
BRANCH   1   9
HETATM    9  C5  UNL     1       6.978   6.778  20.264  1.00  0.00     0.110 C
BRANCH   9  10
HETATM   10  C4  UNL     1       6.743   5.705  19.281  1.00  0.00     0.173 C
BRANCH  10  11
HETATM   11  C3  UNL     1       7.693   4.679  18.894  1.00  0.00     0.038 C
BRANCH  11  12
HETATM   12  C2  UNL     1       7.652   3.334  19.516  1.00  0.00    -0.002 C
HETATM   13  C1  UNL     1       8.467   2.407  18.579  1.00  0.00     0.005 C
ENDBRANCH  11  12
ENDBRANCH  10  11
BRANCH  10  14
HETATM   14  O1  UNL     1       6.423   6.414  18.046  1.00  0.00    -0.389 OA
ATOM     15  H1  UNL     1       5.545   6.131  17.818  1.00  0.00     0.210 HD
ENDBRANCH  10  14
ENDBRANCH   9  10
BRANCH   9  16
HETATM   16  N8  UNL     1       6.293   6.697  21.513  1.00  0.00    -0.332 N
HETATM   17  C20 UNL     1       5.181   5.647  21.462  1.00  0.00     0.158 C
BRANCH  16  18
HETATM   18  C21 UNL     1       6.369   7.315  22.741  1.00  0.00     0.118 C
BRANCH  18  19
HETATM   19  O3  UNL     1       5.831   6.611  23.726  1.00  0.00    -0.349 OA
ATOM     20  H3  UNL     1       6.454   6.353  24.396  1.00  0.00     0.219 HD
ENDBRANCH  18  19
BRANCH  18  21
HETATM   21  C22 UNL     1       6.903   8.578  23.230  1.00  0.00     0.093 C
BRANCH  21  22
HETATM   22  C23 UNL     1       8.414   8.695  23.029  1.00  0.00     0.111 C
BRANCH  22  23
HETATM   23  C24 UNL     1       9.109   8.161  24.230  1.00  0.00     0.217 C
HETATM   24  O4  UNL     1       8.621   7.189  24.856  1.00  0.00    -0.274 OA
HETATM   25  N9  UNL     1      10.322   8.718  24.700  1.00  0.00    -0.365 N
HETATM   26  C25 UNL     1      10.967   8.170  25.872  1.00  0.00     0.149 C
ATOM     27  H9  UNL     1      10.742   9.508  24.211  1.00  0.00     0.161 HD
ENDBRANCH  22  23
ENDBRANCH  21  22
ENDBRANCH  18  21
ENDBRANCH  16  18
ENDBRANCH   9  16
ENDBRANCH   1   9
BRANCH   4  28
HETATM   28  C8  UNL     1       3.846   8.716  20.288  1.00  0.00     0.027 C
BRANCH  28  29
HETATM   29  C9  UNL     1       3.798   9.718  21.407  1.00  0.00     0.022 C
BRANCH  29  30
HETATM   30  C10 UNL     1       2.631   9.274  22.304  1.00  0.00     0.122 C
BRANCH  30  31
HETATM   31  N2  UNL     1       3.118   8.351  23.306  1.00  0.00    -0.367 N
HETATM   32  C11 UNL     1       3.164   8.708  24.535  1.00  0.00     0.196 C
HETATM   33  N3  UNL     1       2.741  10.010  24.925  1.00  0.00    -0.067 NA
HETATM   34  N4  UNL     1       3.632   7.853  25.575  1.00  0.00    -0.067 NA
ATOM     35  H2  UNL     1       3.424   7.416  23.034  1.00  0.00     0.161 HD
ENDBRANCH  30  31
ENDBRANCH  29  30
ENDBRANCH  28  29
ENDBRANCH   4  28
BRANCH   5  36
HETATM   36  C13 UNL     1       4.055  11.480  18.245  1.00  0.00     0.131 C
BRANCH  36  37
HETATM   37  N5  UNL     1       3.426  12.538  19.052  1.00  0.00    -0.364 N
HETATM   38  C14 UNL     1       2.674  13.427  18.517  1.00  0.00     0.185 C
HETATM   39  N6  UNL     1       2.462  13.364  17.114  1.00  0.00    -0.064 NA
HETATM   40  N7  UNL     1       2.039  14.462  19.227  1.00  0.00    -0.364 N
HETATM   41  C15 UNL     1       2.748  15.699  19.454  1.00  0.00     0.151 C
HETATM   42  C16 UNL     1       0.695  14.327  19.738  1.00  0.00     0.151 C
ATOM     43  H5  UNL     1       3.591  12.564  20.059  1.00  0.00     0.162 HD
ENDBRANCH  36  37
ENDBRANCH   5  36
TORSDOF 17
ENDMDL