MODEL 5
REMARK VINA RESULT: -7.047718041      1.703      3.707
REMARK  14 active torsions:
REMARK  status: ('A' for Active; 'I' for Inactive)
REMARK       I    between atoms: C2_2  and  N1_4
REMARK    1  A    between atoms: N1_4  and  C3_6
REMARK    2  A    between atoms: C3_6  and  C4_7
REMARK    3  A    between atoms: C3_6  and  C8_11
REMARK    4  A    between atoms: C4_7  and  C5_8
REMARK    5  A    between atoms: C8_11  and  N2_12
REMARK    6  A    between atoms: C8_11  and  C23_34
REMARK    7  A    between atoms: N2_12  and  C9_14
REMARK    8  A    between atoms: C9_14  and  C10_15
REMARK       I    between atoms: N3_19  and  C14_20
REMARK    9  A    between atoms: C14_20  and  C15_22
REMARK   10  A    between atoms: C15_22  and  N4_23
REMARK   11  A    between atoms: N4_23  and  C16_24
REMARK       I    between atoms: C23_34  and  N6_36
REMARK   12  A    between atoms: N6_36  and  C24_38
REMARK   13  A    between atoms: C24_38  and  C25_39
REMARK   14  A    between atoms: C24_38  and  C26_42
ROOT
HETATM    1  C8  UNL     1       4.836   6.971  22.759  1.00  0.00     0.192 C
ENDROOT
BRANCH   1   2
HETATM    2  C3  UNL     1       5.048   7.571  24.170  1.00  0.00     0.116 C
BRANCH   2   3
HETATM    3  N1  UNL     1       6.310   7.089  24.708  1.00  0.00    -0.354 N
HETATM    4  C2  UNL     1       7.475   7.903  24.655  1.00  0.00     0.214 C
HETATM    5  C1  UNL     1       8.796   7.486  25.179  1.00  0.00     0.117 C
HETATM    6  O1  UNL     1       7.376   9.039  24.133  1.00  0.00    -0.274 OA
ATOM      7  H1  UNL     1       6.359   6.160  25.126  1.00  0.00     0.162 HD
ENDBRANCH   2   3
BRANCH   2   8
HETATM    8  C4  UNL     1       3.859   7.215  24.968  1.00  0.00     0.031 C
BRANCH   8   9
HETATM    9  C5  UNL     1       3.082   8.315  25.591  1.00  0.00    -0.021 C
HETATM   10  C6  UNL     1       3.601   9.692  25.401  1.00  0.00     0.009 C
HETATM   11  C7  UNL     1       1.610   8.277  25.231  1.00  0.00     0.009 C
ENDBRANCH   8   9
ENDBRANCH   2   8
ENDBRANCH   1   2
BRANCH   1  12
HETATM   12  N2  UNL     1       3.620   6.300  22.658  1.00  0.00    -0.406 N
ATOM     13  H2  UNL     1       2.843   6.602  23.246  1.00  0.00     0.154 HD
BRANCH  12  14
HETATM   14  C9  UNL     1       3.424   5.228  21.781  1.00  0.00     0.140 C
BRANCH  14  15
HETATM   15  C10 UNL     1       4.084   3.956  22.347  1.00  0.00     0.104 C
HETATM   16  C11 UNL     1       3.133   3.164  23.205  1.00  0.00     0.028 C
HETATM   17  C12 UNL     1       2.487   2.183  22.271  1.00  0.00     0.022 C
HETATM   18  C13 UNL     1       3.184   2.339  20.948  1.00  0.00     0.127 C
HETATM   19  N3  UNL     1       4.389   3.048  21.270  1.00  0.00    -0.341 N
HETATM   20  C14 UNL     1       5.684   2.899  20.619  1.00  0.00     0.267 C
HETATM   21  O2  UNL     1       6.560   3.664  21.047  1.00  0.00    -0.267 OA
BRANCH  20  22
HETATM   22  C15 UNL     1       5.850   1.918  19.573  1.00  0.00     0.278 C
BRANCH  22  23
HETATM   23  N4  UNL     1       5.984   2.286  18.212  1.00  0.00    -0.015 N
HETATM   24  C19 UNL     1       6.171   1.074  17.420  1.00  0.00     0.247 C
HETATM   25  C20 UNL     1       7.595   0.796  17.045  1.00  0.00     0.056 C
HETATM   26  C21 UNL     1       8.603   1.014  18.135  1.00  0.00     0.236 C
HETATM   27  N5  UNL     1       8.341   2.282  18.731  1.00  0.00    -0.050 N
HETATM   28  C22 UNL     1       7.271   3.006  18.073  1.00  0.00     0.474 C
ATOM     29  H52 UNL     1       8.155   2.184  19.729  1.00  0.00     0.279 HD
ATOM     30  H51 UNL     1       9.190   2.846  18.774  1.00  0.00     0.279 HD
BRANCH  23  31
HETATM   31  C16 UNL     1       4.979   3.131  17.684  1.00  0.00     0.190 C
HETATM   32  C17 UNL     1       5.504   4.508  17.224  1.00  0.00     0.040 C
HETATM   33  C18 UNL     1       4.188   2.620  16.521  1.00  0.00     0.040 C
ENDBRANCH  23  31
ENDBRANCH  22  23
ENDBRANCH  20  22
ENDBRANCH  14  15
ENDBRANCH  12  14
ENDBRANCH   1  12
BRANCH   1  34
HETATM   34  C23 UNL     1       5.197   7.940  21.725  1.00  0.00     0.242 C
HETATM   35  O3  UNL     1       4.278   8.638  21.163  1.00  0.00    -0.271 OA
HETATM   36  N6  UNL     1       6.521   8.186  21.269  1.00  0.00    -0.346 N
ATOM     37  H6  UNL     1       7.301   7.675  21.680  1.00  0.00     0.163 HD
BRANCH  36  38
HETATM   38  C24 UNL     1       6.770   9.167  20.215  1.00  0.00     0.177 C
BRANCH  38  39
HETATM   39  C25 UNL     1       7.919  10.047  20.543  1.00  0.00     0.254 C
HETATM   40  N7  UNL     1       8.014  11.334  19.978  1.00  0.00    -0.060 NA
HETATM   41  O4  UNL     1       8.854   9.699  21.330  1.00  0.00    -0.275 OA
ENDBRANCH  38  39
BRANCH  38  42
HETATM   42  C26 UNL     1       6.958   8.452  18.883  1.00  0.00     0.009 C
HETATM   43  C27 UNL     1       7.437   7.016  19.133  1.00  0.00     0.012 C
HETATM   44  C28 UNL     1       5.691   8.346  18.082  1.00  0.00     0.012 C
ENDBRANCH  38  42
ENDBRANCH  36  38
ENDBRANCH   1  34
TORSDOF 14
ENDMDL