MODEL 2
REMARK VINA RESULT: -7.034217010      1.841      3.671
REMARK  15 active torsions:
REMARK  status: ('A' for Active; 'I' for Inactive)
REMARK    1  A    between atoms: C2_2  and  C3_3
REMARK    2  A    between atoms: C3_3  and  N1_4
REMARK    3  A    between atoms: N1_4  and  C4_5
REMARK       I    between atoms: N1_4  and  C11_15
REMARK    4  A    between atoms: C4_5  and  C5_6
REMARK       I    between atoms: C5_6  and  N2_8
REMARK    5  A    between atoms: N2_8  and  C6_10
REMARK    6  A    between atoms: C11_15  and  C12_17
REMARK    7  A    between atoms: C12_17  and  C13_18
REMARK    8  A    between atoms: C13_18  and  N3_19
REMARK       I    between atoms: N3_19  and  C14_21
REMARK    9  A    between atoms: C14_21  and  C15_23
REMARK   10  A    between atoms: C15_23  and  N4_24
REMARK   11  A    between atoms: N4_24  and  C18_27
REMARK   12  A    between atoms: C18_27  and  C19_28
REMARK   13  A    between atoms: C19_28  and  C20_29
REMARK   14  A    between atoms: C20_29  and  C21_30
REMARK   15  A    between atoms: C21_30  and  C22_31
ROOT
HETATM    1  N3  UNL     1       4.069   5.388  21.162  1.00  0.00    -0.356 N
ATOM      2  H3  UNL     1       4.072   4.461  21.586  1.00  0.00     0.162 HD
HETATM    3  C14 UNL     1       3.062   6.326  21.488  1.00  0.00     0.264 C
HETATM    4  O3  UNL     1       3.080   7.446  20.951  1.00  0.00    -0.267 OA
ENDROOT
BRANCH   3   5
HETATM    5  C15 UNL     1       2.047   5.940  22.441  1.00  0.00     0.275 C
BRANCH   5   6
HETATM    6  N4  UNL     1       2.205   6.436  23.804  1.00  0.00    -0.050 N
HETATM    7  C16 UNL     1       1.497   7.718  23.846  1.00  0.00     0.278 C
HETATM    8  C17 UNL     1       1.528   5.459  24.631  1.00  0.00     0.278 C
BRANCH   6   9
HETATM    9  C18 UNL     1       3.577   6.626  24.039  1.00  0.00     0.242 C
BRANCH   9  10
HETATM   10  C19 UNL     1       4.017   7.762  24.929  1.00  0.00     0.028 C
BRANCH  10  11
HETATM   11  C20 UNL     1       4.978   8.709  24.329  1.00  0.00     0.004 C
BRANCH  11  12
HETATM   12  C21 UNL     1       5.815   8.176  23.246  1.00  0.00     0.034 C
BRANCH  12  13
HETATM   13  C22 UNL     1       7.242   7.892  23.450  1.00  0.00     0.064 C
HETATM   14  C23 UNL     1       7.734   6.990  22.299  1.00  0.00     0.107 C
HETATM   15  S1  UNL     1       8.159   8.261  21.067  1.00  0.00    -0.164 SA
HETATM   16  C24 UNL     1       8.328   9.686  22.179  1.00  0.00     0.101 C
HETATM   17  C25 UNL     1       8.140   9.063  23.527  1.00  0.00     0.124 C
HETATM   18  N5  UNL     1       9.360   8.515  24.085  1.00  0.00    -0.335 N
HETATM   19  C26 UNL     1       8.894   7.521  24.999  1.00  0.00     0.317 C
ATOM     20  H5  UNL     1      10.324   8.776  23.874  1.00  0.00     0.164 HD
HETATM   21  O4  UNL     1       9.606   7.103  25.975  1.00  0.00    -0.247 OA
HETATM   22  N6  UNL     1       7.582   7.124  24.634  1.00  0.00    -0.331 N
ATOM     23  H6  UNL     1       6.995   6.437  25.108  1.00  0.00     0.165 HD
ENDBRANCH  12  13
ENDBRANCH  11  12
ENDBRANCH  10  11
ENDBRANCH   9  10
ENDBRANCH   6   9
ENDBRANCH   5   6
ENDBRANCH   3   5
BRANCH   1  24
HETATM   24  C13 UNL     1       5.093   5.769  20.217  1.00  0.00     0.132 C
BRANCH  24  25
HETATM   25  C12 UNL     1       5.229   4.788  19.072  1.00  0.00     0.122 C
BRANCH  25  26
HETATM   26  C11 UNL     1       6.660   4.446  18.922  1.00  0.00     0.222 C
HETATM   27  N1  UNL     1       7.083   3.095  18.931  1.00  0.00    -0.340 N
HETATM   28  O2  UNL     1       7.499   5.389  18.783  1.00  0.00    -0.273 OA
BRANCH  27  29
HETATM   29  C3  UNL     1       8.479   2.715  18.793  1.00  0.00     0.153 C
BRANCH  29  30
HETATM   30  C2  UNL     1       8.625   1.308  18.377  1.00  0.00    -0.017 C
HETATM   31  C1  UNL     1       9.791   0.778  18.023  1.00  0.00     0.008 C
ENDBRANCH  29  30
ENDBRANCH  27  29
BRANCH  27  32
HETATM   32  C4  UNL     1       6.105   2.049  19.082  1.00  0.00     0.228 C
BRANCH  32  33
HETATM   33  C5  UNL     1       5.719   1.781  20.478  1.00  0.00     0.235 C
HETATM   34  O1  UNL     1       6.677   1.755  21.320  1.00  0.00    -0.272 OA
HETATM   35  N2  UNL     1       4.413   1.560  20.944  1.00  0.00    -0.355 N
ATOM     36  H2  UNL     1       3.639   1.580  20.282  1.00  0.00     0.162 HD
BRANCH  35  37
HETATM   37  C6  UNL     1       4.135   1.303  22.359  1.00  0.00     0.084 C
HETATM   38  C7  UNL     1       3.339   0.061  22.537  1.00  0.00     0.025 C
HETATM   39  C8  UNL     1       2.070   0.432  23.228  1.00  0.00     0.002 C
HETATM   40  C9  UNL     1       1.960   1.928  23.099  1.00  0.00     0.002 C
HETATM   41  C10 UNL     1       3.354   2.421  22.920  1.00  0.00     0.025 C
ENDBRANCH  35  37
ENDBRANCH  32  33
ENDBRANCH  27  32
ENDBRANCH  25  26
ENDBRANCH  24  25
ENDBRANCH   1  24
TORSDOF 15
ENDMDL