MODEL 4
REMARK VINA RESULT: -7.174799588      1.195      3.897
REMARK  14 active torsions:
REMARK  status: ('A' for Active; 'I' for Inactive)
REMARK    1  A    between atoms: C2_2  and  C3_3
REMARK    2  A    between atoms: C3_3  and  N1_4
REMARK       I    between atoms: N1_4  and  C4_5
REMARK    3  A    between atoms: N1_4  and  C16_20
REMARK    4  A    between atoms: C4_5  and  C5_7
REMARK       I    between atoms: N2_11  and  C9_12
REMARK    5  A    between atoms: C9_12  and  C10_14
REMARK    6  A    between atoms: C16_20  and  C17_21
REMARK    7  A    between atoms: C16_20  and  C19_23
REMARK       I    between atoms: C19_23  and  N3_25
REMARK    8  A    between atoms: N3_25  and  C20_27
REMARK    9  A    between atoms: C20_27  and  C21_28
REMARK   10  A    between atoms: C20_27  and  C25_36
REMARK   11  A    between atoms: C21_28  and  C22_29
REMARK   12  A    between atoms: C22_29  and  C23_30
REMARK   13  A    between atoms: C23_30  and  N4_31
REMARK   14  A    between atoms: C25_36  and  N7_37
ROOT
HETATM    1  C16 UNL     1       7.926   7.647  21.559  1.00  0.00     0.178 C
ENDROOT
BRANCH   1   2
HETATM    2  N1  UNL     1       7.500   7.473  20.123  1.00  0.00    -0.337 N
HETATM    3  C4  UNL     1       6.923   6.223  19.833  1.00  0.00     0.243 C
HETATM    4  O1  UNL     1       6.791   5.394  20.809  1.00  0.00    -0.271 OA
BRANCH   2   5
HETATM    5  C3  UNL     1       7.751   8.534  19.214  1.00  0.00     0.126 C
BRANCH   5   6
HETATM    6  C2  UNL     1       6.706   9.495  18.846  1.00  0.00     0.015 C
HETATM    7  C1  UNL     1       6.730  10.849  19.427  1.00  0.00     0.006 C
ENDBRANCH   5   6
ENDBRANCH   2   5
BRANCH   3   8
HETATM    8  C5  UNL     1       6.444   5.709  18.539  1.00  0.00     0.179 C
HETATM    9  C6  UNL     1       5.069   6.264  18.294  1.00  0.00     0.037 C
HETATM   10  C7  UNL     1       4.153   5.299  18.967  1.00  0.00     0.022 C
HETATM   11  C8  UNL     1       4.824   3.980  18.598  1.00  0.00     0.127 C
HETATM   12  N2  UNL     1       6.221   4.247  18.644  1.00  0.00    -0.338 N
HETATM   13  C9  UNL     1       7.242   3.267  18.779  1.00  0.00     0.224 C
HETATM   14  O2  UNL     1       8.454   3.696  18.810  1.00  0.00    -0.273 OA
BRANCH  13  15
HETATM   15  C10 UNL     1       6.972   1.832  18.881  1.00  0.00     0.078 C
HETATM   16  C11 UNL     1       8.233   1.041  19.189  1.00  0.00     0.014 C
HETATM   17  C12 UNL     1       9.171   0.999  18.011  1.00  0.00     0.001 C
HETATM   18  C13 UNL     1       8.521   0.801  16.688  1.00  0.00     0.000 C
HETATM   19  C14 UNL     1       7.274   1.673  16.490  1.00  0.00     0.001 C
HETATM   20  C15 UNL     1       6.343   1.285  17.617  1.00  0.00     0.014 C
ENDBRANCH  13  15
ENDBRANCH   3   8
ENDBRANCH   1   2
BRANCH   1  21
HETATM   21  C17 UNL     1       8.842   8.786  21.699  1.00  0.00     0.030 C
HETATM   22  C18 UNL     1       9.183   9.199  23.107  1.00  0.00     0.007 C
ENDBRANCH   1  21
BRANCH   1  23
HETATM   23  C19 UNL     1       6.736   7.625  22.402  1.00  0.00     0.241 C
HETATM   24  O3  UNL     1       5.861   8.537  22.132  1.00  0.00    -0.271 OA
HETATM   25  N3  UNL     1       6.419   6.773  23.444  1.00  0.00    -0.353 N
ATOM     26  H3  UNL     1       7.074   6.037  23.707  1.00  0.00     0.163 HD
BRANCH  25  27
HETATM   27  C20 UNL     1       5.156   6.909  24.176  1.00  0.00     0.102 C
BRANCH  27  28
HETATM   28  C21 UNL     1       4.840   8.361  24.430  1.00  0.00     0.028 C
BRANCH  28  29
HETATM   29  C22 UNL     1       3.689   8.552  25.374  1.00  0.00     0.022 C
BRANCH  29  30
HETATM   30  C23 UNL     1       2.664   9.459  24.780  1.00  0.00     0.122 C
BRANCH  30  31
HETATM   31  N4  UNL     1       3.020   9.693  23.390  1.00  0.00    -0.367 N
HETATM   32  C24 UNL     1       2.157  10.286  22.612  1.00  0.00     0.196 C
HETATM   33  N5  UNL     1       2.505  10.516  21.248  1.00  0.00    -0.067 NA
HETATM   34  N6  UNL     1       0.888  10.709  23.072  1.00  0.00    -0.067 NA
ATOM     35  H4  UNL     1       3.927   9.398  23.028  1.00  0.00     0.161 HD
ENDBRANCH  30  31
ENDBRANCH  29  30
ENDBRANCH  28  29
ENDBRANCH  27  28
BRANCH  27  36
HETATM   36  C25 UNL     1       4.028   6.243  23.421  1.00  0.00     0.147 C
BRANCH  36  37
HETATM   37  N7  UNL     1       4.483   5.109  22.657  1.00  0.00    -0.365 N
HETATM   38  C26 UNL     1       3.991   3.926  22.794  1.00  0.00     0.197 C
HETATM   39  N8  UNL     1       4.494   2.858  22.003  1.00  0.00    -0.067 NA
HETATM   40  N9  UNL     1       2.955   3.642  23.712  1.00  0.00    -0.067 NA
ATOM     41  H7  UNL     1       5.230   5.248  21.977  1.00  0.00     0.161 HD
ENDBRANCH  36  37
ENDBRANCH  27  36
ENDBRANCH  25  27
ENDBRANCH   1  23
TORSDOF 14
ENDMDL