MODEL 1
REMARK VINA RESULT: -7.440462602      0.000      0.000
REMARK  16 active torsions:
REMARK  status: ('A' for Active; 'I' for Inactive)
REMARK    1  A    between atoms: C2_2  and  C3_3
REMARK    2  A    between atoms: C3_3  and  C4_4
REMARK    3  A    between atoms: C4_4  and  C5_5
REMARK    4  A    between atoms: C5_5  and  C6_6
REMARK       I    between atoms: C6_6  and  N1_8
REMARK       I    between atoms: N2_11  and  C9_12
REMARK    5  A    between atoms: C9_12  and  C10_14
REMARK    6  A    between atoms: C10_14  and  C11_15
REMARK    7  A    between atoms: C11_15  and  C12_16
REMARK    8  A    between atoms: C11_15  and  N6_24
REMARK    9  A    between atoms: C12_16  and  C13_17
REMARK   10  A    between atoms: C13_17  and  C14_18
REMARK   11  A    between atoms: C14_18  and  N3_19
REMARK       I    between atoms: N6_24  and  C16_26
REMARK   12  A    between atoms: C16_26  and  C17_28
REMARK   13  A    between atoms: C23_38  and  C24_39
REMARK   14  A    between atoms: C24_39  and  C25_40
REMARK   15  A    between atoms: C25_40  and  C26_41
REMARK   16  A    between atoms: C26_41  and  N9_42
ROOT
HETATM    1  C6  UNL     1       5.943   4.177  17.912  1.00  0.00     0.220 C
HETATM    2  O1  UNL     1       5.321   4.074  16.823  1.00  0.00    -0.273 OA
HETATM    3  N1  UNL     1       5.496   5.090  18.920  1.00  0.00    -0.344 N
HETATM    4  C7  UNL     1       4.310   5.878  18.617  1.00  0.00     0.146 C
HETATM    5  C8  UNL     1       4.558   7.352  18.855  1.00  0.00     0.146 C
HETATM    6  N2  UNL     1       5.380   7.592  20.003  1.00  0.00    -0.344 N
HETATM    7  C9  UNL     1       5.046   8.596  20.974  1.00  0.00     0.222 C
HETATM    8  O2  UNL     1       3.988   9.233  20.741  1.00  0.00    -0.273 OA
HETATM    9  C21 UNL     1       6.570   6.823  20.211  1.00  0.00     0.106 C
HETATM   10  C22 UNL     1       7.666   7.103  19.237  1.00  0.00     0.034 C
HETATM   11  C23 UNL     1       6.139   5.318  20.152  1.00  0.00     0.109 C
ENDROOT
BRANCH   7  12
HETATM   12  C10 UNL     1       5.894   8.847  22.154  1.00  0.00     0.128 C
BRANCH  12  13
HETATM   13  C11 UNL     1       5.209   8.429  23.403  1.00  0.00     0.093 C
BRANCH  13  14
HETATM   14  C12 UNL     1       6.004   7.377  24.176  1.00  0.00     0.027 C
BRANCH  14  15
HETATM   15  C13 UNL     1       7.439   7.463  23.785  1.00  0.00     0.022 C
BRANCH  15  16
HETATM   16  C14 UNL     1       8.248   8.221  24.850  1.00  0.00     0.122 C
BRANCH  16  17
HETATM   17  N3  UNL     1       8.936   7.260  25.663  1.00  0.00    -0.367 N
HETATM   18  C15 UNL     1      10.132   7.405  26.126  1.00  0.00     0.196 C
HETATM   19  N4  UNL     1      10.646   6.341  26.913  1.00  0.00    -0.067 NA
HETATM   20  N5  UNL     1      10.907   8.556  25.872  1.00  0.00    -0.067 NA
ATOM     21  H3  UNL     1       8.444   6.397  25.893  1.00  0.00     0.161 HD
ENDBRANCH  16  17
ENDBRANCH  15  16
ENDBRANCH  14  15
ENDBRANCH  13  14
BRANCH  13  22
HETATM   22  N6  UNL     1       3.887   7.898  23.104  1.00  0.00    -0.354 N
HETATM   23  C16 UNL     1       2.818   8.156  23.984  1.00  0.00     0.242 C
HETATM   24  O3  UNL     1       3.005   8.836  25.014  1.00  0.00    -0.271 OA
ATOM     25  H6  UNL     1       3.735   7.342  22.263  1.00  0.00     0.162 HD
BRANCH  23  26
HETATM   26  C17 UNL     1       1.486   7.606  23.653  1.00  0.00     0.198 C
HETATM   27  C18 UNL     1       0.678   7.478  24.926  1.00  0.00     0.159 C
HETATM   28  N7  UNL     1       1.238   6.284  25.523  1.00  0.00    -0.341 N
HETATM   29  C19 UNL     1       1.679   5.468  24.446  1.00  0.00     0.318 C
ATOM     30  H7  UNL     1       1.303   6.071  26.519  1.00  0.00     0.164 HD
HETATM   31  O4  UNL     1       2.056   4.261  24.550  1.00  0.00    -0.247 OA
HETATM   32  N8  UNL     1       1.625   6.227  23.235  1.00  0.00    -0.323 N
HETATM   33  C20 UNL     1       1.698   5.684  21.893  1.00  0.00     0.155 C
ENDBRANCH  23  26
ENDBRANCH  13  22
ENDBRANCH  12  13
ENDBRANCH   7  12
BRANCH  11  34
HETATM   34  C24 UNL     1       5.495   5.070  21.439  1.00  0.00     0.029 C
BRANCH  34  35
HETATM   35  C25 UNL     1       4.629   3.922  21.699  1.00  0.00     0.029 C
BRANCH  35  36
HETATM   36  C26 UNL     1       5.015   2.596  21.143  1.00  0.00     0.230 C
BRANCH  36  37
HETATM   37  N9  UNL     1       6.281   2.144  21.719  1.00  0.00    -0.079 N
ATOM     38  H93 UNL     1       7.038   2.170  21.036  1.00  0.00     0.274 HD
ATOM     39  H92 UNL     1       6.654   2.818  22.387  1.00  0.00     0.274 HD
ATOM     40  H91 UNL     1       6.177   1.218  22.134  1.00  0.00     0.274 HD
ENDBRANCH  36  37
ENDBRANCH  35  36
ENDBRANCH  34  35
ENDBRANCH  11  34
BRANCH   1  41
HETATM   41  C5  UNL     1       7.131   3.320  18.087  1.00  0.00     0.103 C
BRANCH  41  42
HETATM   42  C4  UNL     1       6.848   1.853  18.133  1.00  0.00     0.009 C
BRANCH  42  43
HETATM   43  C3  UNL     1       7.978   0.981  18.541  1.00  0.00     0.000 C
BRANCH  43  44
HETATM   44  C2  UNL     1       9.330   1.507  18.139  1.00  0.00    -0.005 C
HETATM   45  C1  UNL     1      10.183   0.286  17.774  1.00  0.00     0.005 C
ENDBRANCH  43  44
ENDBRANCH  42  43
ENDBRANCH  41  42
ENDBRANCH   1  41
TORSDOF 16
ENDMDL