MODEL 4
REMARK VINA RESULT: -7.875900383      4.783      6.926
REMARK  16 active torsions:
REMARK  status: ('A' for Active; 'I' for Inactive)
REMARK    1  A    between atoms: N1_2  and  C2_3
REMARK    2  A    between atoms: N1_2  and  C14_24
REMARK    3  A    between atoms: C4_5  and  C5_6
REMARK       I    between atoms: C5_6  and  N2_8
REMARK    4  A    between atoms: N2_8  and  C6_10
REMARK    5  A    between atoms: C6_10  and  C7_11
REMARK    6  A    between atoms: C7_11  and  N3_12
REMARK    7  A    between atoms: C11_16  and  C12_17
REMARK    8  A    between atoms: C12_17  and  O2_18
REMARK    9  A    between atoms: C17_29  and  C18_30
REMARK   10  A    between atoms: C18_30  and  C19_31
REMARK   11  A    between atoms: C19_31  and  C20_32
REMARK   12  A    between atoms: C20_32  and  C21_33
REMARK   13  A    between atoms: C21_33  and  C22_34
REMARK   14  A    between atoms: C22_34  and  C23_35
REMARK   15  A    between atoms: C23_35  and  C24_36
REMARK   16  A    between atoms: C24_36  and  C25_37
ROOT
HETATM    1  C1  UNL     1       0.796   3.013  21.418  1.00  0.00     0.144 C
HETATM    2  N1  UNL     1       2.199   3.211  21.330  1.00  0.00    -0.396 N
ENDROOT
BRANCH   2   3
HETATM    3  C2  UNL     1       2.860   3.591  22.525  1.00  0.00     0.172 C
HETATM    4  C3  UNL     1       3.427   4.988  22.304  1.00  0.00     0.050 C
HETATM    5  C4  UNL     1       3.461   5.654  23.688  1.00  0.00     0.105 C
HETATM    6  C11 UNL     1       1.989   6.021  23.936  1.00  0.00     0.121 C
HETATM    7  N4  UNL     1       1.296   4.764  24.078  1.00  0.00    -0.352 N
HETATM    8  C13 UNL     1       1.975   3.572  23.724  1.00  0.00     0.240 C
ATOM      9  H4  UNL     1       0.337   4.734  24.425  1.00  0.00     0.163 HD
HETATM   10  O3  UNL     1       1.823   2.515  24.423  1.00  0.00    -0.271 OA
BRANCH   5  11
HETATM   11  C5  UNL     1       4.356   6.809  23.675  1.00  0.00     0.224 C
HETATM   12  O1  UNL     1       4.062   7.721  22.817  1.00  0.00    -0.273 OA
HETATM   13  N2  UNL     1       5.470   7.001  24.503  1.00  0.00    -0.359 N
ATOM     14  H2  UNL     1       5.722   6.284  25.182  1.00  0.00     0.162 HD
BRANCH  13  15
HETATM   15  C6  UNL     1       6.266   8.199  24.405  1.00  0.00     0.150 C
BRANCH  15  16
HETATM   16  C7  UNL     1       7.685   7.994  24.024  1.00  0.00     0.255 C
BRANCH  16  17
HETATM   17  N3  UNL     1       8.026   8.289  22.666  1.00  0.00    -0.077 N
HETATM   18  C8  UNL     1       9.332   8.821  22.452  1.00  0.00     0.271 C
HETATM   19  C9  UNL     1       7.043   9.290  22.215  1.00  0.00     0.271 C
HETATM   20  C10 UNL     1       7.837   7.148  21.786  1.00  0.00     0.271 C
ENDBRANCH  16  17
ENDBRANCH  15  16
ENDBRANCH  13  15
ENDBRANCH   5  11
BRANCH   6  21
HETATM   21  C12 UNL     1       1.804   6.935  25.098  1.00  0.00     0.190 C
BRANCH  21  22
HETATM   22  O2  UNL     1       0.595   6.594  25.744  1.00  0.00    -0.399 OA
ATOM     23  H2  UNL     1       0.331   7.325  26.292  1.00  0.00     0.209 HD
ENDBRANCH  21  22
ENDBRANCH   6  21
ENDBRANCH   2   3
BRANCH   2  24
HETATM   24  C14 UNL     1       2.880   2.229  20.543  1.00  0.00     0.120 A
HETATM   25  C15 UNL     1       3.684   1.248  21.391  1.00  0.00     0.153 A
HETATM   26  N5  UNL     1       4.873   1.677  20.728  1.00  0.00    -0.343 N
HETATM   27  C16 UNL     1       6.264   1.720  20.451  1.00  0.00     0.224 C
HETATM   28  C28 UNL     1       4.102   2.560  19.811  1.00  0.00     0.111 A
HETATM   29  O4  UNL     1       7.084   1.674  21.432  1.00  0.00    -0.273 OA
HETATM   30  C17 UNL     1       6.809   1.810  19.088  1.00  0.00     0.078 C
HETATM   31  C26 UNL     1       5.749   1.975  18.033  1.00  0.00     0.016 C
HETATM   32  C27 UNL     1       4.317   1.846  18.483  1.00  0.00     0.028 C
BRANCH  30  33
HETATM   33  C18 UNL     1       7.789   2.990  18.927  1.00  0.00     0.014 C
BRANCH  33  34
HETATM   34  C19 UNL     1       9.115   2.376  18.438  1.00  0.00     0.001 C
BRANCH  34  35
HETATM   35  C20 UNL     1       9.072   0.894  18.457  1.00  0.00     0.000 C
BRANCH  35  36
HETATM   36  C21 UNL     1       9.854   0.169  17.417  1.00  0.00     0.000 C
BRANCH  36  37
HETATM   37  C22 UNL     1       9.099  -0.256  16.222  1.00  0.00     0.000 C
BRANCH  37  38
HETATM   38  C23 UNL     1       8.019   0.594  15.674  1.00  0.00     0.007 C
BRANCH  38  39
HETATM   39  C24 UNL     1       6.722  -0.226  15.480  1.00  0.00     0.072 C
BRANCH  39  40
HETATM   40  C25 UNL     1       5.805   0.505  14.593  1.00  0.00     0.086 C
HETATM   41  N6  UNL     1       6.279   1.162  13.594  1.00  0.00    -0.391 N
ATOM     42  H62 UNL     1       7.292   1.153  13.477  1.00  0.00     0.157 HD
ATOM     43  H61 UNL     1       5.643   1.669  12.978  1.00  0.00     0.157 HD
HETATM   44  N7  UNL     1       4.374   0.518  14.757  1.00  0.00    -0.088 NA
ENDBRANCH  39  40
ENDBRANCH  38  39
ENDBRANCH  37  38
ENDBRANCH  36  37
ENDBRANCH  35  36
ENDBRANCH  34  35
ENDBRANCH  33  34
ENDBRANCH  30  33
ENDBRANCH   2  24
TORSDOF 16
ENDMDL