MODEL 2
REMARK VINA RESULT: -7.462381975      0.145      1.050
REMARK  6 active torsions:
REMARK  status: ('A' for Active; 'I' for Inactive)
REMARK    1  A    between atoms: C3_3  and  N1_4
REMARK    2  A    between atoms: N2_7  and  C6_8
REMARK    3  A    between atoms: C6_8  and  C7_9
REMARK    4  A    between atoms: C7_9  and  C8_10
REMARK       I    between atoms: C8_10  and  N3_12
REMARK    5  A    between atoms: N3_12  and  C9_14
REMARK    6  A    between atoms: N4_16  and  C11_17
ROOT
HETATM    1  C1  UNL     1     -10.471 -25.346  23.428  1.00  0.00     0.013 C
HETATM    2  C2  UNL     1     -11.236 -25.776  22.601  1.00  0.00    -0.089 C
HETATM    3  C3  UNL     1     -12.167 -26.294  21.608  1.00  0.00     0.330 C
ENDROOT
BRANCH   3   4
HETATM    4  N1  UNL     1     -13.421 -25.597  21.608  1.00  0.00    -0.052 N
HETATM    5  C4  UNL     1     -13.350 -24.323  20.920  1.00  0.00     0.266 C
HETATM    6  C5  UNL     1     -14.754 -23.784  20.803  1.00  0.00     0.265 C
HETATM    7  N2  UNL     1     -15.663 -24.461  21.737  1.00  0.00    -0.062 N
HETATM    8  C21 UNL     1     -15.039 -24.417  23.037  1.00  0.00     0.265 C
HETATM    9  C23 UNL     1     -15.774 -25.849  21.350  1.00  0.00     0.265 C
HETATM   10  C22 UNL     1     -13.823 -25.346  22.957  1.00  0.00     0.266 C
HETATM   11  C24 UNL     1     -14.418 -26.390  20.922  1.00  0.00     0.266 C
BRANCH   7  12
HETATM   12  C6  UNL     1     -16.916 -23.759  21.668  1.00  0.00     0.247 C
BRANCH  12  13
HETATM   13  C7  UNL     1     -18.050 -24.542  22.291  1.00  0.00     0.130 C
BRANCH  13  14
HETATM   14  C8  UNL     1     -18.132 -24.287  23.752  1.00  0.00     0.219 C
HETATM   15  O1  UNL     1     -18.186 -23.096  24.140  1.00  0.00    -0.274 OA
HETATM   16  N3  UNL     1     -18.151 -25.336  24.703  1.00  0.00    -0.349 N
ATOM     17  H3  UNL     1     -18.107 -26.307  24.394  1.00  0.00     0.163 HD
BRANCH  16  18
HETATM   18  C9  UNL     1     -18.231 -25.032  26.094  1.00  0.00     0.152 C
HETATM   19  C10 UNL     1     -18.920 -26.097  26.946  1.00  0.00     0.160 C
HETATM   20  N4  UNL     1     -17.957 -25.590  27.976  1.00  0.00    -0.353 N
HETATM   21  C19 UNL     1     -17.055 -25.491  26.919  1.00  0.00     0.026 C
HETATM   22  C20 UNL     1     -15.783 -25.721  26.755  1.00  0.00     0.040 C
BRANCH  20  23
HETATM   23  C11 UNL     1     -18.024 -25.359  29.377  1.00  0.00    -0.004 C
HETATM   24  C12 UNL     1     -18.071 -26.644  30.153  1.00  0.00     0.056 C
HETATM   25  C13 UNL     1     -16.882 -26.966  30.967  1.00  0.00     0.039 C
HETATM   26  C14 UNL     1     -16.289 -25.847  31.757  1.00  0.00     0.136 C
HETATM   27  O2  UNL     1     -15.346 -25.225  30.990  1.00  0.00    -0.384 OA
HETATM   28  C18 UNL     1     -17.247 -24.874  32.341  1.00  0.00     0.087 C
HETATM   29  C15 UNL     1     -15.863 -24.221  30.182  1.00  0.00     0.178 C
HETATM   30  C16 UNL     1     -17.310 -24.231  29.970  1.00  0.00     0.056 C
HETATM   31  C17 UNL     1     -17.972 -23.997  31.355  1.00  0.00     0.031 C
HETATM   32 BR1  UNL     1     -16.327 -23.668  33.577  1.00  0.00    -0.088 Br
ENDBRANCH  20  23
ENDBRANCH  16  18
ENDBRANCH  13  14
ENDBRANCH  12  13
ENDBRANCH   7  12
ENDBRANCH   3   4
TORSDOF 6
ENDMDL