MODEL 5
REMARK VINA RESULT: -7.444146959      2.296      2.623
REMARK  5 active torsions:
REMARK  status: ('A' for Active; 'I' for Inactive)
REMARK    1  A    between atoms: C4_4  and  C6_6
REMARK       I    between atoms: N4_23  and  C16_25
REMARK    2  A    between atoms: C16_25  and  C17_27
REMARK    3  A    between atoms: C17_27  and  N5_28
REMARK    4  A    between atoms: C22_33  and  C23_34
REMARK    5  A    between atoms: C23_34  and  C25_36
ROOT
HETATM    1  C1  UNL     1     -15.124 -25.351  24.658  1.00  0.00     0.028 C
HETATM    2  C2  UNL     1     -16.004 -24.785  23.892  1.00  0.00     0.012 A
HETATM    3  C3  UNL     1     -15.833 -24.285  22.626  1.00  0.00     0.052 A
HETATM    4  C4  UNL     1     -14.796 -24.218  21.821  1.00  0.00    -0.023 C
HETATM    5  C5  UNL     1     -14.975 -23.578  20.453  1.00  0.00     0.051 C
HETATM    6  N2  UNL     1     -17.044 -23.782  22.214  1.00  0.00    -0.340 N
ATOM      7  H2  UNL     1     -17.223 -23.343  21.311  1.00  0.00     0.167 HD
HETATM    8  C12 UNL     1     -17.956 -23.958  23.186  1.00  0.00     0.130 A
HETATM    9  C13 UNL     1     -17.353 -24.578  24.249  1.00  0.00     0.091 A
HETATM   10  N3  UNL     1     -17.719 -24.985  25.424  1.00  0.00    -0.318 N
ATOM     11  H3  UNL     1     -16.984 -25.423  25.980  1.00  0.00     0.169 HD
HETATM   12  C14 UNL     1     -19.010 -24.914  26.064  1.00  0.00     0.268 C
HETATM   13  O1  UNL     1     -19.227 -25.862  26.872  1.00  0.00    -0.266 OA
HETATM   14  C15 UNL     1     -20.154 -24.011  26.018  1.00  0.00     0.082 C
HETATM   15  N4  UNL     1     -20.957 -24.159  26.997  1.00  0.00    -0.324 N
ATOM     16  H4  UNL     1     -20.697 -24.878  27.673  1.00  0.00     0.169 HD
HETATM   17  C16 UNL     1     -22.139 -23.475  27.274  1.00  0.00     0.248 C
HETATM   18  O2  UNL     1     -22.097 -22.266  27.596  1.00  0.00    -0.271 OA
HETATM   19  C21 UNL     1     -20.489 -22.969  25.003  1.00  0.00     0.088 C
HETATM   20  C22 UNL     1     -20.442 -23.482  23.614  1.00  0.00     0.093 C
HETATM   21  N6  UNL     1     -19.150 -23.564  23.007  1.00  0.00    -0.369 N
ATOM     22  H6  UNL     1     -19.210 -23.148  22.078  1.00  0.00     0.161 HD
ENDROOT
BRANCH   4  23
HETATM   23  C6  UNL     1     -13.448 -24.693  22.068  1.00  0.00    -0.012 A
HETATM   24  C7  UNL     1     -12.536 -23.831  22.642  1.00  0.00     0.099 A
HETATM   25  N1  UNL     1     -11.284 -24.279  22.823  1.00  0.00    -0.374 N
HETATM   26  C8  UNL     1     -10.883 -25.512  22.475  1.00  0.00     0.094 A
ATOM     27  H1  UNL     1     -10.601 -23.650  23.246  1.00  0.00     0.164 HD
HETATM   28  C9  UNL     1     -11.769 -26.402  21.899  1.00  0.00    -0.046 A
HETATM   29  C10 UNL     1     -11.313 -27.753  21.523  1.00  0.00     0.049 C
HETATM   30  C11 UNL     1     -13.058 -25.977  21.699  1.00  0.00     0.021 A
ENDBRANCH   4  23
BRANCH  20  31
HETATM   31  C23 UNL     1     -21.290 -22.618  22.709  1.00  0.00     0.018 C
HETATM   32  C24 UNL     1     -21.451 -23.311  21.336  1.00  0.00     0.013 C
BRANCH  31  33
HETATM   33  C25 UNL     1     -22.683 -22.387  23.195  1.00  0.00     0.121 C
HETATM   34 CL1  UNL     1     -23.012 -20.627  22.972  1.00  0.00    -0.130 Cl
ENDBRANCH  31  33
ENDBRANCH  20  31
BRANCH  17  35
HETATM   35  C17 UNL     1     -23.436 -24.163  27.190  1.00  0.00     0.338 C
BRANCH  35  36
HETATM   36  N5  UNL     1     -23.749 -25.023  28.286  1.00  0.00    -0.070 N
HETATM   37  C18 UNL     1     -23.312 -26.379  28.009  1.00  0.00     0.272 C
HETATM   38  C19 UNL     1     -23.297 -24.577  29.570  1.00  0.00     0.272 C
HETATM   39  C20 UNL     1     -25.219 -25.092  28.351  1.00  0.00     0.272 C
ENDBRANCH  35  36
ENDBRANCH  17  35
TORSDOF 5
ENDMDL