MODEL 1
REMARK VINA RESULT: -6.820737623      0.000      0.000
REMARK  10 active torsions:
REMARK  status: ('A' for Active; 'I' for Inactive)
REMARK    1  A    between atoms: C2_2  and  S1_3
REMARK    2  A    between atoms: S1_3  and  C4_5
REMARK    3  A    between atoms: C5_6  and  C6_7
REMARK       I    between atoms: C6_7  and  N1_9
REMARK    4  A    between atoms: N1_9  and  C7_11
REMARK    5  A    between atoms: N4_22  and  C14_24
REMARK    6  A    between atoms: C14_24  and  C15_25
REMARK    7  A    between atoms: C15_25  and  C16_27
REMARK    8  A    between atoms: C17_28  and  C18_29
REMARK    9  A    between atoms: C19_30  and  C20_31
REMARK   10  A    between atoms: C20_31  and  O3_32
ROOT
HETATM    1  C4  UNL     1     -17.595 -24.781  28.317  1.00  0.00     0.255 C
HETATM    2  C5  UNL     1     -16.886 -23.829  29.191  1.00  0.00     0.119 C
HETATM    3  C10 UNL     1     -17.908 -22.805  29.782  1.00  0.00     0.019 C
HETATM    4  C11 UNL     1     -18.296 -21.914  28.662  1.00  0.00     0.029 C
HETATM    5  C12 UNL     1     -18.092 -22.608  27.359  1.00  0.00     0.239 C
HETATM    6  N4  UNL     1     -18.392 -24.042  27.395  1.00  0.00    -0.050 N
HETATM    7  C13 UNL     1     -19.821 -24.085  27.766  1.00  0.00     0.274 C
ENDROOT
BRANCH   2   8
HETATM    8  C6  UNL     1     -16.011 -24.296  30.246  1.00  0.00     0.242 C
HETATM    9  O1  UNL     1     -14.830 -24.659  30.028  1.00  0.00    -0.272 OA
HETATM   10  N1  UNL     1     -16.472 -24.356  31.586  1.00  0.00    -0.159 N
ATOM     11  H1  UNL     1     -17.378 -24.789  31.764  1.00  0.00     0.187 HD
BRANCH  10  12
HETATM   12  C7  UNL     1     -15.814 -23.898  32.585  1.00  0.00     0.685 A
HETATM   13  N2  UNL     1     -14.680 -24.413  33.073  1.00  0.00    -0.199 N
HETATM   14  C8  UNL     1     -14.249 -23.687  34.130  1.00  0.00     0.144 A
ATOM     15  H2  UNL     1     -14.206 -25.237  32.701  1.00  0.00     0.183 HD
HETATM   16  C9  UNL     1     -15.165 -22.675  34.297  1.00  0.00     0.112 A
HETATM   17 BR1  UNL     1     -15.071 -21.338  35.641  1.00  0.00    -0.029 Br
HETATM   18  N3  UNL     1     -16.098 -22.831  33.348  1.00  0.00    -0.183 N
ATOM     19  H3  UNL     1     -16.908 -22.225  33.222  1.00  0.00     0.185 HD
ENDBRANCH  10  12
ENDBRANCH   2   8
BRANCH   1  20
HETATM   20  S1  UNL     1     -18.407 -26.127  29.128  1.00  0.00    -0.193 SA
HETATM   21  C3  UNL     1     -17.128 -27.290  29.667  1.00  0.00     0.080 C
BRANCH  20  22
HETATM   22  C2  UNL     1     -19.369 -27.103  27.998  1.00  0.00     0.060 C
HETATM   23  C1  UNL     1     -18.958 -28.560  28.264  1.00  0.00     0.015 C
ENDBRANCH  20  22
ENDBRANCH   1  20
BRANCH   6  24
HETATM   24  C14 UNL     1     -18.318 -24.533  26.065  1.00  0.00     0.331 C
BRANCH  24  25
HETATM   25  C15 UNL     1     -18.188 -23.599  24.956  1.00  0.00     0.229 C
HETATM   26  O2  UNL     1     -19.070 -22.833  24.574  1.00  0.00    -0.281 OA
BRANCH  25  27
HETATM   27  C16 UNL     1     -16.929 -23.568  24.254  1.00  0.00    -0.013 C
HETATM   28  C17 UNL     1     -15.868 -23.560  23.664  1.00  0.00    -0.007 C
BRANCH  28  29
HETATM   29  C18 UNL     1     -14.631 -23.571  22.971  1.00  0.00    -0.013 C
HETATM   30  C19 UNL     1     -13.577 -23.599  22.385  1.00  0.00    -0.066 C
BRANCH  30  31
HETATM   31  C20 UNL     1     -12.277 -23.657  21.676  1.00  0.00     0.261 C
BRANCH  31  32
HETATM   32  O3  UNL     1     -12.133 -24.972  21.240  1.00  0.00    -0.384 OA
HETATM   33  C21 UNL     1     -11.668 -25.772  22.279  1.00  0.00     0.202 C
ENDBRANCH  31  32
ENDBRANCH  30  31
ENDBRANCH  28  29
ENDBRANCH  25  27
ENDBRANCH  24  25
ENDBRANCH   6  24
TORSDOF 10
ENDMDL