MODEL 4
REMARK VINA RESULT: -7.437138408      2.344      7.114
REMARK  12 active torsions:
REMARK  status: ('A' for Active; 'I' for Inactive)
REMARK    1  A    between atoms: N1_1  and  C1_4
REMARK    2  A    between atoms: C4_7  and  C5_8
REMARK    3  A    between atoms: C6_9  and  C7_10
REMARK    4  A    between atoms: N2_15  and  C12_16
REMARK    5  A    between atoms: C12_16  and  O1_17
REMARK    6  A    between atoms: O1_17  and  C13_18
REMARK    7  A    between atoms: C13_18  and  C14_19
REMARK    8  A    between atoms: C15_20  and  C16_21
REMARK    9  A    between atoms: C17_22  and  C18_23
REMARK   10  A    between atoms: C18_23  and  N3_24
REMARK   11  A    between atoms: N4_27  and  O2_28
REMARK   12  A    between atoms: C22_31  and  C23_32
ROOT
HETATM    1  C7  UNL     1     -19.915 -26.635  26.964  1.00  0.00     0.090 A
HETATM    2  C8  UNL     1     -20.024 -28.005  27.090  1.00  0.00     0.039 A
HETATM    3  C9  UNL     1     -19.969 -28.648  28.306  1.00  0.00     0.004 A
HETATM    4  C10 UNL     1     -19.799 -27.902  29.450  1.00  0.00     0.017 A
HETATM    5  C11 UNL     1     -19.690 -26.537  29.320  1.00  0.00     0.094 A
HETATM    6  N2  UNL     1     -19.748 -25.951  28.117  1.00  0.00    -0.328 N
ENDROOT
BRANCH   6   7
HETATM    7  C12 UNL     1     -19.633 -24.494  27.968  1.00  0.00     0.299 C
BRANCH   7   8
HETATM    8  O1  UNL     1     -18.312 -24.254  27.574  1.00  0.00    -0.360 OA
BRANCH   8   9
HETATM    9  C13 UNL     1     -18.217 -23.019  26.915  1.00  0.00     0.264 C
BRANCH   9  10
HETATM   10  C14 UNL     1     -17.491 -23.231  25.643  1.00  0.00    -0.066 C
HETATM   11  C15 UNL     1     -16.915 -23.402  24.595  1.00  0.00    -0.013 C
BRANCH  11  12
HETATM   12  C16 UNL     1     -16.258 -23.593  23.351  1.00  0.00    -0.013 C
HETATM   13  C17 UNL     1     -15.685 -23.744  22.302  1.00  0.00    -0.072 C
BRANCH  13  14
HETATM   14  C18 UNL     1     -14.992 -23.953  21.044  1.00  0.00     0.223 C
BRANCH  14  15
HETATM   15  N3  UNL     1     -14.213 -25.151  20.976  1.00  0.00    -0.346 N
HETATM   16  C19 UNL     1     -14.627 -26.212  20.222  1.00  0.00     0.111 A
HETATM   17  C20 UNL     1     -13.932 -27.378  20.117  1.00  0.00     0.139 A
HETATM   18  N4  UNL     1     -12.773 -27.491  20.791  1.00  0.00    -0.244 N
HETATM   19  C21 UNL     1     -12.337 -26.458  21.545  1.00  0.00     0.148 A
HETATM   20  C22 UNL     1     -13.063 -25.268  21.643  1.00  0.00     0.040 A
BRANCH  18  21
HETATM   21  O2  UNL     1     -12.067 -28.674  20.684  1.00  0.00    -0.284 OA
ATOM     22  H2  UNL     1     -11.491 -28.789  19.937  1.00  0.00     0.245 HD
ENDBRANCH  18  21
BRANCH  20  23
HETATM   23  C23 UNL     1     -12.488 -24.224  22.490  1.00  0.00     0.144 C
HETATM   24 BR1  UNL     1     -11.248 -25.012  23.746  1.00  0.00    -0.090 Br
ENDBRANCH  20  23
ENDBRANCH  14  15
ENDBRANCH  13  14
ENDBRANCH  11  12
ENDBRANCH   9  10
ENDBRANCH   8   9
ENDBRANCH   7   8
ENDBRANCH   6   7
BRANCH   1  25
HETATM   25  C6  UNL     1     -19.975 -25.993  25.680  1.00  0.00    -0.043 C
HETATM   26  C5  UNL     1     -20.018 -25.471  24.590  1.00  0.00    -0.059 C
BRANCH  26  27
HETATM   27  C4  UNL     1     -20.057 -24.872  23.287  1.00  0.00     0.033 A
HETATM   28  C3  UNL     1     -20.714 -23.679  23.073  1.00  0.00     0.026 A
HETATM   29  C2  UNL     1     -20.768 -23.084  21.838  1.00  0.00     0.049 A
HETATM   30  C1  UNL     1     -20.145 -23.696  20.775  1.00  0.00     0.098 A
HETATM   31  N5  UNL     1     -19.502 -24.854  20.964  1.00  0.00    -0.351 N
HETATM   32  C24 UNL     1     -19.455 -25.425  22.167  1.00  0.00     0.110 A
ATOM     33  H5  UNL     1     -19.040 -25.306  20.175  1.00  0.00     0.166 HD
BRANCH  30  34
HETATM   34  N1  UNL     1     -20.183 -23.143  19.583  1.00  0.00    -0.385 N
ATOM     35  H12 UNL     1     -21.069 -22.820  19.192  1.00  0.00     0.157 HD
ATOM     36  H11 UNL     1     -19.325 -23.034  19.043  1.00  0.00     0.157 HD
ENDBRANCH  30  34
ENDBRANCH  26  27
ENDBRANCH   1  25
TORSDOF 12
ENDMDL