MODEL 3
REMARK VINA RESULT: -7.349020797      1.255      1.926
REMARK  8 active torsions:
REMARK  status: ('A' for Active; 'I' for Inactive)
REMARK    1  A    between atoms: C3_3  and  C4_4
REMARK    2  A    between atoms: N2_11  and  C11_13
REMARK    3  A    between atoms: C11_13  and  C12_14
REMARK    4  A    between atoms: C12_14  and  N3_16
REMARK       I    between atoms: N3_16  and  C14_18
REMARK    5  A    between atoms: C14_18  and  C15_20
REMARK    6  A    between atoms: C19_25  and  O2_26
REMARK    7  A    between atoms: C20_28  and  C21_29
REMARK    8  A    between atoms: C21_29  and  O3_31
ROOT
HETATM    1  C1  UNL     1     -17.970 -19.735  26.978  1.00  0.00     0.012 C
HETATM    2  C2  UNL     1     -18.395 -20.850  26.803  1.00  0.00    -0.115 C
HETATM    3  C3  UNL     1     -18.941 -22.219  26.571  1.00  0.00     0.128 C
ENDROOT
BRANCH   3   4
HETATM    4  C4  UNL     1     -18.568 -23.060  27.772  1.00  0.00     0.232 C
HETATM    5  C5  UNL     1     -19.050 -22.252  28.977  1.00  0.00     0.271 C
HETATM    6  N1  UNL     1     -18.627 -22.791  30.232  1.00  0.00    -0.071 N
HETATM    7  C6  UNL     1     -17.220 -22.457  30.425  1.00  0.00     0.272 C
HETATM    8  C7  UNL     1     -19.368 -22.123  31.285  1.00  0.00     0.272 C
HETATM    9  C8  UNL     1     -18.864 -24.212  30.327  1.00  0.00     0.265 C
HETATM   10  C9  UNL     1     -18.659 -24.963  29.096  1.00  0.00     0.271 C
HETATM   11  N2  UNL     1     -19.179 -24.338  27.847  1.00  0.00    -0.041 N
HETATM   12  C10 UNL     1     -20.621 -24.264  28.097  1.00  0.00     0.279 C
BRANCH  11  13
HETATM   13  C11 UNL     1     -18.809 -25.331  26.904  1.00  0.00     0.227 C
BRANCH  13  14
HETATM   14  C12 UNL     1     -17.581 -25.296  26.173  1.00  0.00     0.031 C
HETATM   15  C13 UNL     1     -16.259 -25.504  26.776  1.00  0.00     0.070 C
BRANCH  14  16
HETATM   16  N3  UNL     1     -17.623 -25.038  24.908  1.00  0.00    -0.328 N
HETATM   17  C14 UNL     1     -16.629 -24.361  24.196  1.00  0.00     0.256 C
HETATM   18  O1  UNL     1     -16.413 -23.156  24.461  1.00  0.00    -0.271 OA
ATOM     19  H3  UNL     1     -18.444 -25.351  24.389  1.00  0.00     0.168 HD
BRANCH  17  20
HETATM   20  C15 UNL     1     -15.828 -25.015  23.145  1.00  0.00     0.329 C
HETATM   21  C16 UNL     1     -16.413 -24.525  21.809  1.00  0.00     0.103 C
HETATM   22 BR1  UNL     1     -17.060 -26.041  20.803  1.00  0.00    -0.088 Br
HETATM   23  C17 UNL     1     -15.212 -23.965  21.032  1.00  0.00     0.057 C
HETATM   24  C18 UNL     1     -14.127 -24.710  21.712  1.00  0.00     0.254 C
HETATM   25  C19 UNL     1     -12.783 -24.084  21.753  1.00  0.00     0.159 C
HETATM   26  N4  UNL     1     -14.526 -24.481  23.120  1.00  0.00     0.111 N
HETATM   27  C20 UNL     1     -12.267 -24.661  23.078  1.00  0.00     0.073 C
HETATM   28  C23 UNL     1     -13.485 -25.257  23.757  1.00  0.00     0.283 C
BRANCH  25  29
HETATM   29  O2  UNL     1     -12.906 -22.721  21.928  1.00  0.00    -0.393 OA
ATOM     30  H2  UNL     1     -13.633 -22.536  22.510  1.00  0.00     0.210 HD
ENDBRANCH  25  29
BRANCH  27  31
HETATM   31  C21 UNL     1     -11.197 -25.671  22.813  1.00  0.00     0.122 C
HETATM   32  C22 UNL     1     -11.596 -26.802  21.928  1.00  0.00     0.040 C
BRANCH  31  33
HETATM   33  O3  UNL     1     -10.045 -25.076  22.303  1.00  0.00    -0.395 OA
ATOM     34  H3  UNL     1      -9.418 -24.883  22.991  1.00  0.00     0.210 HD
ENDBRANCH  31  33
ENDBRANCH  27  31
ENDBRANCH  17  20
ENDBRANCH  14  16
ENDBRANCH  13  14
ENDBRANCH  11  13
ENDBRANCH   3   4
TORSDOF 8
ENDMDL