MODEL 3
REMARK VINA RESULT: -8.233345499      3.590      5.928
REMARK  10 active torsions:
REMARK  status: ('A' for Active; 'I' for Inactive)
REMARK    1  A    between atoms: C3_3  and  N1_4
REMARK    2  A    between atoms: N2_7  and  C6_8
REMARK    3  A    between atoms: C6_8  and  C7_9
REMARK    4  A    between atoms: C8_10  and  C9_11
REMARK    5  A    between atoms: C9_11  and  N3_12
REMARK    6  A    between atoms: N3_12  and  C10_13
REMARK    7  A    between atoms: C10_13  and  C11_14
REMARK    8  A    between atoms: C12_15  and  C13_16
REMARK    9  A    between atoms: C13_16  and  C14_17
REMARK   10  A    between atoms: C22_29  and  O1_30
ROOT
HETATM    1  C1  UNL     1     -18.105 -33.234  29.566  1.00  0.00     0.013 C
HETATM    2  C2  UNL     1     -17.867 -32.181  29.028  1.00  0.00    -0.089 C
HETATM    3  C3  UNL     1     -17.560 -30.916  28.363  1.00  0.00     0.332 C
ENDROOT
BRANCH   3   4
HETATM    4  N1  UNL     1     -17.707 -29.786  29.191  1.00  0.00    -0.030 N
HETATM    5  C4  UNL     1     -19.052 -29.250  29.259  1.00  0.00     0.268 C
HETATM    6  C5  UNL     1     -18.819 -27.826  29.720  1.00  0.00     0.268 C
HETATM    7  N2  UNL     1     -17.377 -27.693  29.780  1.00  0.00    -0.030 N
HETATM    8  C23 UNL     1     -16.912 -28.424  30.915  1.00  0.00     0.268 C
HETATM    9  C25 UNL     1     -16.988 -28.602  28.687  1.00  0.00     0.475 C
HETATM   10  C24 UNL     1     -17.186 -29.882  30.518  1.00  0.00     0.268 C
BRANCH   7  11
HETATM   11  C6  UNL     1     -16.897 -26.383  29.611  1.00  0.00     0.333 C
BRANCH  11  12
HETATM   12  C7  UNL     1     -16.824 -25.995  28.206  1.00  0.00    -0.077 C
HETATM   13  C8  UNL     1     -16.782 -25.659  27.037  1.00  0.00    -0.077 C
BRANCH  13  14
HETATM   14  C9  UNL     1     -16.742 -25.231  25.631  1.00  0.00     0.335 C
BRANCH  14  15
HETATM   15  N3  UNL     1     -17.959 -24.581  25.215  1.00  0.00    -0.021 N
HETATM   16  C20 UNL     1     -19.031 -24.605  26.189  1.00  0.00     0.247 C
HETATM   17  C21 UNL     1     -19.821 -25.615  25.423  1.00  0.00     0.090 C
HETATM   18  C22 UNL     1     -18.797 -25.347  24.331  1.00  0.00     0.326 C
BRANCH  15  19
HETATM   19  C10 UNL     1     -17.673 -23.237  24.738  1.00  0.00     0.335 C
BRANCH  19  20
HETATM   20  C11 UNL     1     -16.405 -23.255  23.995  1.00  0.00    -0.078 C
HETATM   21  C12 UNL     1     -15.364 -23.288  23.375  1.00  0.00    -0.099 C
BRANCH  21  22
HETATM   22  C13 UNL     1     -14.091 -23.351  22.624  1.00  0.00     0.152 C
BRANCH  22  23
HETATM   23  C14 UNL     1     -14.048 -24.619  21.859  1.00  0.00     0.039 A
HETATM   24  N4  UNL     1     -15.056 -25.023  21.065  1.00  0.00    -0.367 N
HETATM   25  C15 UNL     1     -15.010 -26.173  20.376  1.00  0.00     0.096 A
ATOM     26  H4  UNL     1     -15.885 -24.434  20.984  1.00  0.00     0.165 HD
HETATM   27  C16 UNL     1     -13.888 -26.984  20.478  1.00  0.00    -0.021 A
HETATM   28  C17 UNL     1     -13.820 -28.254  19.726  1.00  0.00     0.052 C
HETATM   29  C18 UNL     1     -12.851 -26.569  21.296  1.00  0.00     0.073 A
HETATM   30  N5  UNL     1     -11.669 -27.362  21.442  1.00  0.00    -0.100 NA
HETATM   31  C19 UNL     1     -12.895 -25.389  22.005  1.00  0.00     0.059 A
HETATM   32 BR1  UNL     1     -11.454 -24.849  23.117  1.00  0.00    -0.047 Br
ENDBRANCH  22  23
ENDBRANCH  21  22
ENDBRANCH  19  20
ENDBRANCH  15  19
BRANCH  18  33
HETATM   33  O1  UNL     1     -19.383 -24.597  23.314  1.00  0.00    -0.369 OA
ATOM     34  H1  UNL     1     -19.144 -24.877  22.439  1.00  0.00     0.212 HD
ENDBRANCH  18  33
ENDBRANCH  14  15
ENDBRANCH  13  14
ENDBRANCH  11  12
ENDBRANCH   7  11
ENDBRANCH   3   4
TORSDOF 10
ENDMDL