MODEL 2
REMARK VINA RESULT: -6.342310976      3.662      5.570
REMARK  10 active torsions:
REMARK  status: ('A' for Active; 'I' for Inactive)
REMARK    1  A    between atoms: C2_2  and  C3_3
REMARK    2  A    between atoms: C2_2  and  C10_13
REMARK    3  A    between atoms: C3_3  and  C4_4
REMARK    4  A    between atoms: C4_4  and  C5_5
REMARK    5  A    between atoms: C10_13  and  C11_14
REMARK       I    between atoms: N3_16  and  C13_17
REMARK    6  A    between atoms: C13_17  and  C14_19
REMARK    7  A    between atoms: C14_19  and  N4_20
REMARK    8  A    between atoms: N4_20  and  S1_22
REMARK    9  A    between atoms: S1_22  and  N5_23
REMARK   10  A    between atoms: C16_28  and  C17_29
ROOT
HETATM    1  C11 UNL     1     -20.088 -23.885  24.548  1.00  0.00     0.221 C
HETATM    2  C12 UNL     1     -20.147 -25.396  24.592  1.00  0.00     0.076 C
HETATM    3  N3  UNL     1     -19.455 -23.326  25.780  1.00  0.00    -0.306 N
HETATM    4  C13 UNL     1     -18.396 -23.878  26.518  1.00  0.00     0.236 C
HETATM    5  O1  UNL     1     -18.007 -23.253  27.561  1.00  0.00    -0.272 OA
HETATM    6  C16 UNL     1     -20.181 -22.109  25.938  1.00  0.00     0.139 C
HETATM    7  C20 UNL     1     -21.602 -22.689  25.845  1.00  0.00     0.267 C
HETATM    8  N6  UNL     1     -21.411 -23.374  24.541  1.00  0.00    -0.043 N
HETATM    9  C21 UNL     1     -22.471 -24.392  24.566  1.00  0.00     0.275 C
HETATM   10  C22 UNL     1     -21.771 -22.439  23.540  1.00  0.00     0.275 C
ENDROOT
BRANCH   1  11
HETATM   11  C10 UNL     1     -19.214 -23.511  23.429  1.00  0.00     0.050 C
BRANCH  11  12
HETATM   12  C2  UNL     1     -18.913 -24.137  22.341  1.00  0.00    -0.008 C
HETATM   13  C1  UNL     1     -19.957 -24.339  21.253  1.00  0.00     0.058 C
BRANCH  12  14
HETATM   14  C3  UNL     1     -17.647 -24.712  22.001  1.00  0.00    -0.065 C
BRANCH  14  15
HETATM   15  C4  UNL     1     -16.547 -25.188  21.731  1.00  0.00    -0.042 C
BRANCH  15  16
HETATM   16  C5  UNL     1     -15.260 -25.754  21.437  1.00  0.00     0.105 A
HETATM   17  C6  UNL     1     -14.969 -26.607  20.388  1.00  0.00     0.128 A
HETATM   18  N1  UNL     1     -13.664 -26.941  20.417  1.00  0.00    -0.353 N
HETATM   19  C7  UNL     1     -13.126 -26.300  21.484  1.00  0.00     0.079 A
ATOM     20  H1  UNL     1     -13.176 -27.555  19.765  1.00  0.00     0.166 HD
HETATM   21  C8  UNL     1     -11.689 -26.389  21.893  1.00  0.00     0.089 C
HETATM   22  N2  UNL     1     -14.097 -25.591  22.088  1.00  0.00    -0.333 N
HETATM   23  C9  UNL     1     -13.906 -24.775  23.261  1.00  0.00     0.158 C
ENDBRANCH  15  16
ENDBRANCH  14  15
ENDBRANCH  12  14
ENDBRANCH  11  12
ENDBRANCH   1  11
BRANCH   4  24
HETATM   24  C14 UNL     1     -17.662 -25.110  26.225  1.00  0.00     0.211 C
BRANCH  24  25
HETATM   25  N4  UNL     1     -16.542 -25.299  27.166  1.00  0.00    -0.189 NA
HETATM   26  C15 UNL     1     -15.404 -25.724  26.415  1.00  0.00     0.131 C
BRANCH  25  27
HETATM   27  S1  UNL     1     -16.916 -26.548  28.297  1.00  0.00     0.296 S
HETATM   28  O2  UNL     1     -16.578 -26.180  29.693  1.00  0.00    -0.189 OA
HETATM   29  O3  UNL     1     -16.132 -27.766  27.879  1.00  0.00    -0.189 OA
BRANCH  27  30
HETATM   30  N5  UNL     1     -18.594 -26.963  28.143  1.00  0.00    -0.316 N
ATOM     31  H52 UNL     1     -19.053 -27.211  27.266  1.00  0.00     0.170 HD
ATOM     32  H51 UNL     1     -19.032 -26.916  29.062  1.00  0.00     0.170 HD
ENDBRANCH  27  30
ENDBRANCH  25  27
ENDBRANCH  24  25
ENDBRANCH   4  24
BRANCH   6  33
HETATM   33  C17 UNL     1     -20.000 -21.134  26.968  1.00  0.00     0.052 C
HETATM   34  C18 UNL     1     -21.115 -20.057  26.745  1.00  0.00     0.034 C
HETATM   35  C19 UNL     1     -18.719 -20.343  26.822  1.00  0.00     0.034 C
HETATM   36 CL1  UNL     1     -20.186 -21.589  28.651  1.00  0.00    -0.118 Cl
ENDBRANCH   6  33
TORSDOF 10
ENDMDL