MODEL 1
REMARK VINA RESULT: -6.416895551      0.000      0.000
REMARK  8 active torsions:
REMARK  status: ('A' for Active; 'I' for Inactive)
REMARK    1  A    between atoms: C2_2  and  C3_3
REMARK    2  A    between atoms: C4_4  and  C5_5
REMARK    3  A    between atoms: C6_6  and  C7_7
REMARK       I    between atoms: N1_11  and  C11_12
REMARK    4  A    between atoms: C11_12  and  C12_14
REMARK    5  A    between atoms: C12_14  and  C13_15
REMARK    6  A    between atoms: C13_15  and  N2_16
REMARK    7  A    between atoms: C13_15  and  C16_21
REMARK       I    between atoms: N2_16  and  C14_18
REMARK       I    between atoms: C16_21  and  N3_23
REMARK    8  A    between atoms: C21_30  and  C22_31
ROOT
HETATM    1  C7  UNL     1     -16.853 -28.659  29.493  1.00  0.00     0.079 A
HETATM    2  C8  UNL     1     -16.867 -27.523  28.744  1.00  0.00     0.035 A
HETATM    3  C9  UNL     1     -17.643 -28.755  28.310  1.00  0.00     0.027 A
HETATM    4  C10 UNL     1     -18.997 -28.037  28.151  1.00  0.00     0.133 C
HETATM    5  N1  UNL     1     -18.606 -26.810  27.433  1.00  0.00    -0.343 N
HETATM    6  C11 UNL     1     -19.552 -26.041  26.665  1.00  0.00     0.222 C
HETATM    7  O1  UNL     1     -20.720 -26.498  26.662  1.00  0.00    -0.273 OA
HETATM    8  C21 UNL     1     -17.204 -26.560  27.627  1.00  0.00     0.116 C
ENDROOT
BRANCH   6   9
HETATM    9  C12 UNL     1     -19.149 -24.839  25.960  1.00  0.00     0.138 C
BRANCH   9  10
HETATM   10  C13 UNL     1     -18.587 -24.956  24.579  1.00  0.00     0.185 C
BRANCH  10  11
HETATM   11  N2  UNL     1     -19.722 -24.420  23.740  1.00  0.00    -0.348 N
HETATM   12  C14 UNL     1     -20.377 -25.255  22.810  1.00  0.00     0.214 C
HETATM   13  C15 UNL     1     -21.491 -24.679  22.005  1.00  0.00     0.117 C
HETATM   14  O2  UNL     1     -20.049 -26.471  22.641  1.00  0.00    -0.274 OA
ATOM     15  H2  UNL     1     -20.017 -23.450  23.846  1.00  0.00     0.163 HD
ENDBRANCH  10  11
BRANCH  10  16
HETATM   16  C16 UNL     1     -17.450 -24.035  24.342  1.00  0.00     0.244 C
HETATM   17  O3  UNL     1     -17.497 -22.958  25.050  1.00  0.00    -0.271 OA
HETATM   18  N3  UNL     1     -16.414 -24.277  23.438  1.00  0.00    -0.324 N
HETATM   19  C17 UNL     1     -15.259 -23.377  23.244  1.00  0.00     0.224 C
HETATM   20  C20 UNL     1     -16.287 -25.370  22.517  1.00  0.00     0.183 A
HETATM   21  C18 UNL     1     -14.707 -23.842  21.953  1.00  0.00     0.219 C
HETATM   22  O4  UNL     1     -13.560 -23.641  21.495  1.00  0.00    -0.278 OA
HETATM   23  N4  UNL     1     -15.732 -24.572  21.311  1.00  0.00    -0.226 NA
HETATM   24  C19 UNL     1     -16.871 -25.502  21.208  1.00  0.00     0.142 A
ENDBRANCH  10  16
ENDBRANCH   9  10
ENDBRANCH   6   9
BRANCH   8  25
HETATM   25  C22 UNL     1     -16.912 -25.196  28.154  1.00  0.00     0.006 C
HETATM   26  C23 UNL     1     -17.356 -24.766  29.313  1.00  0.00     0.054 C
HETATM   27 BR1  UNL     1     -16.937 -23.009  29.910  1.00  0.00    -0.064 Br
ENDBRANCH   8  25
BRANCH   1  28
HETATM   28  C6  UNL     1     -16.355 -29.313  30.695  1.00  0.00    -0.087 C
HETATM   29  C5  UNL     1     -15.927 -29.839  31.690  1.00  0.00    -0.015 C
BRANCH  29  30
HETATM   30  C4  UNL     1     -15.405 -30.465  32.847  1.00  0.00    -0.015 C
HETATM   31  C3  UNL     1     -14.939 -30.999  33.833  1.00  0.00    -0.093 C
BRANCH  31  32
HETATM   32  C2  UNL     1     -14.362 -31.651  35.004  1.00  0.00     0.090 C
HETATM   33  C1  UNL     1     -13.041 -32.270  34.621  1.00  0.00     0.018 C
ENDBRANCH  31  32
ENDBRANCH  29  30
ENDBRANCH   1  28
TORSDOF 8
ENDMDL