MODEL 4
REMARK VINA RESULT: -7.802311982      2.676      8.037
REMARK  8 active torsions:
REMARK  status: ('A' for Active; 'I' for Inactive)
REMARK    1  A    between atoms: C2_2  and  C4_4
REMARK    2  A    between atoms: C6_6  and  C7_7
REMARK    3  A    between atoms: C7_7  and  N1_10
REMARK       I    between atoms: N1_10  and  C8_12
REMARK       I    between atoms: C8_12  and  N2_14
REMARK    4  A    between atoms: N2_14  and  C9_16
REMARK    5  A    between atoms: N3_23  and  C16_24
REMARK    6  A    between atoms: C16_24  and  C17_25
REMARK    7  A    between atoms: C17_25  and  C18_26
REMARK    8  A    between atoms: C18_26  and  O2_27
ROOT
HETATM    1  C7  UNL     1      15.063 -28.867  37.790  1.00  0.00     0.369 C
HETATM    2  F1  UNL     1      14.291 -28.180  38.658  1.00  0.00    -0.176 F
HETATM    3  F2  UNL     1      14.392 -30.102  37.600  1.00  0.00    -0.176 F
ENDROOT
BRANCH   1   4
HETATM    4  C6  UNL     1      16.450 -29.119  38.210  1.00  0.00     0.107 A
HETATM    5  C5  UNL     1      16.962 -28.678  39.437  1.00  0.00     0.042 A
HETATM    6  C4  UNL     1      18.273 -29.083  39.552  1.00  0.00    -0.037 A
HETATM    7  C19 UNL     1      18.542 -29.767  38.394  1.00  0.00     0.098 A
HETATM    8  N3  UNL     1      17.433 -29.782  37.591  1.00  0.00    -0.353 N
BRANCH   6   9
HETATM    9  C2  UNL     1      19.171 -28.796  40.721  1.00  0.00     0.012 C
HETATM   10  C1  UNL     1      18.324 -28.425  41.906  1.00  0.00     0.015 C
HETATM   11  C3  UNL     1      19.967 -27.530  40.367  1.00  0.00     0.015 C
ENDBRANCH   6   9
BRANCH   8  12
HETATM   12  C16 UNL     1      17.363 -30.421  36.296  1.00  0.00     0.130 C
BRANCH  12  13
HETATM   13  C17 UNL     1      16.899 -31.855  36.357  1.00  0.00     0.046 C
BRANCH  13  14
HETATM   14  C18 UNL     1      15.763 -32.114  35.389  1.00  0.00     0.165 C
BRANCH  14  15
HETATM   15  O2  UNL     1      15.485 -33.443  35.194  1.00  0.00    -0.401 OA
ATOM     16  H2  UNL     1      15.220 -33.903  35.982  1.00  0.00     0.209 HD
ENDBRANCH  14  15
ENDBRANCH  13  14
ENDBRANCH  12  13
ENDBRANCH   8  12
ENDBRANCH   1   4
BRANCH   1  17
HETATM   17  N1  UNL     1      14.993 -28.243  36.477  1.00  0.00    -0.275 N
HETATM   18  C8  UNL     1      15.302 -26.891  36.222  1.00  0.00     0.321 C
HETATM   19  O1  UNL     1      15.649 -26.169  37.201  1.00  0.00    -0.247 OA
HETATM   20  N2  UNL     1      15.255 -26.262  34.952  1.00  0.00    -0.338 N
ATOM     21  H2  UNL     1      14.989 -26.805  34.130  1.00  0.00     0.164 HD
ATOM     22  H1  UNL     1      14.702 -28.822  35.690  1.00  0.00     0.170 HD
BRANCH  20  23
HETATM   23  C9  UNL     1      15.586 -24.840  34.806  1.00  0.00     0.086 C
HETATM   24  C10 UNL     1      16.603 -24.568  33.755  1.00  0.00     0.025 C
HETATM   25  C11 UNL     1      16.130 -24.516  32.352  1.00  0.00     0.002 C
HETATM   26  C12 UNL     1      14.890 -23.750  32.078  1.00  0.00     0.000 C
HETATM   27  C13 UNL     1      14.735 -22.478  32.849  1.00  0.00     0.000 C
HETATM   28  C14 UNL     1      14.562 -22.628  34.317  1.00  0.00     0.002 C
HETATM   29  C15 UNL     1      14.327 -24.051  34.723  1.00  0.00     0.025 C
ENDBRANCH  20  23
ENDBRANCH   1  17
TORSDOF 8
ENDMDL