MODEL 4
REMARK VINA RESULT: -7.799002171      3.901      7.210
REMARK  9 active torsions:
REMARK  status: ('A' for Active; 'I' for Inactive)
REMARK       I    between atoms: C1_2  and  N1_3
REMARK    1  A    between atoms: C1_2  and  C8_17
REMARK    2  A    between atoms: N1_3  and  C2_5
REMARK    3  A    between atoms: C2_5  and  C3_6
REMARK    4  A    between atoms: C3_6  and  C4_7
REMARK    5  A    between atoms: C4_7  and  C5_8
REMARK    6  A    between atoms: C5_8  and  C6_9
REMARK    7  A    between atoms: C6_9  and  C7_10
REMARK    8  A    between atoms: C7_10  and  O2_11
REMARK    9  A    between atoms: N2_13  and  O3_15
ROOT
HETATM    1  O1  UNL     1      15.153 -27.411  34.956  1.00  0.00    -0.272 OA
HETATM    2  C1  UNL     1      15.559 -26.308  35.491  1.00  0.00     0.238 C
HETATM    3  N1  UNL     1      15.988 -26.441  36.836  1.00  0.00    -0.359 N
ATOM      4  H1  UNL     1      16.321 -25.611  37.325  1.00  0.00     0.162 HD
ENDROOT
BRANCH   2   5
HETATM    5  C8  UNL     1      15.512 -25.168  34.679  1.00  0.00     0.083 A
HETATM    6  C9  UNL     1      16.842 -24.879  33.910  1.00  0.00     0.037 C
HETATM    7  C10 UNL     1      16.718 -23.904  32.691  1.00  0.00    -0.009 C
HETATM    8  C11 UNL     1      16.622 -22.644  33.512  1.00  0.00     0.029 C
HETATM    9  C15 UNL     1      15.356 -23.689  31.943  1.00  0.00     0.030 C
HETATM   10  C12 UNL     1      15.406 -23.331  34.010  1.00  0.00     0.028 A
HETATM   11 CL1  UNL     1      15.447 -25.176  32.859  1.00  0.00    -0.195 Cl
HETATM   12  C13 UNL     1      14.113 -22.749  33.597  1.00  0.00     0.050 C
HETATM   13  C17 UNL     1      15.479 -23.830  35.395  1.00  0.00     0.056 A
HETATM   14  C14 UNL     1      14.062 -24.017  32.770  1.00  0.00     0.041 C
HETATM   15 CL2  UNL     1      12.749 -24.307  31.777  1.00  0.00    -0.119 Cl
HETATM   16  C16 UNL     1      14.111 -24.993  33.999  1.00  0.00     0.058 C
ENDBRANCH   2   5
BRANCH   3  17
HETATM   17  C2  UNL     1      15.976 -27.705  37.548  1.00  0.00     0.122 C
BRANCH  17  18
HETATM   18  C3  UNL     1      17.333 -28.169  37.943  1.00  0.00     0.020 C
BRANCH  18  19
HETATM   19  C4  UNL     1      17.515 -29.664  37.812  1.00  0.00     0.002 C
BRANCH  19  20
HETATM   20  C5  UNL     1      17.280 -30.059  36.382  1.00  0.00     0.008 C
BRANCH  20  21
HETATM   21  C6  UNL     1      16.680 -31.411  36.197  1.00  0.00     0.086 C
BRANCH  21  22
HETATM   22  C7  UNL     1      15.544 -31.291  35.261  1.00  0.00     0.135 C
HETATM   23  N2  UNL     1      15.221 -32.269  34.499  1.00  0.00    -0.251 N
ATOM     24  H2  UNL     1      14.432 -32.167  33.860  1.00  0.00     0.196 HD
BRANCH  22  25
HETATM   25  O2  UNL     1      14.822 -30.121  35.202  1.00  0.00    -0.348 OA
ATOM     26  H2  UNL     1      13.901 -30.119  35.437  1.00  0.00     0.219 HD
ENDBRANCH  22  25
BRANCH  23  27
HETATM   27  O3  UNL     1      15.910 -33.444  34.527  1.00  0.00    -0.288 OA
ATOM     28  H3  UNL     1      16.049 -33.952  33.737  1.00  0.00     0.244 HD
ENDBRANCH  23  27
ENDBRANCH  21  22
ENDBRANCH  20  21
ENDBRANCH  19  20
ENDBRANCH  18  19
ENDBRANCH  17  18
ENDBRANCH   3  17
TORSDOF 9
ENDMDL