MODEL 2
REMARK VINA RESULT: -8.830574391      0.942      1.084
REMARK  10 active torsions:
REMARK  status: ('A' for Active; 'I' for Inactive)
REMARK    1  A    between atoms: C3_3  and  O1_4
REMARK    2  A    between atoms: C7_9  and  C8_10
REMARK    3  A    between atoms: C9_11  and  C10_12
REMARK    4  A    between atoms: C10_12  and  C12_14
REMARK    5  A    between atoms: C12_14  and  O2_15
REMARK    6  A    between atoms: C12_14  and  C13_17
REMARK    7  A    between atoms: C13_17  and  O3_18
REMARK    8  A    between atoms: C13_17  and  C14_20
REMARK    9  A    between atoms: C14_20  and  C15_21
REMARK   10  A    between atoms: C15_21  and  C17_23
ROOT
HETATM    1  C12 UNL     1      16.178 -27.331  41.909  1.00  0.00     0.154 C
ENDROOT
BRANCH   1   2
HETATM    2  C10 UNL     1      16.118 -27.857  43.387  1.00  0.00     0.035 C
HETATM    3  C11 UNL     1      17.460 -28.551  43.527  1.00  0.00     0.017 C
BRANCH   2   4
HETATM    4  C9  UNL     1      14.968 -28.758  43.487  1.00  0.00    -0.019 C
HETATM    5  C8  UNL     1      14.577 -29.805  44.048  1.00  0.00     0.008 C
BRANCH   5   6
HETATM    6  C7  UNL     1      15.021 -30.802  44.989  1.00  0.00    -0.028 A
HETATM    7  C2  UNL     1      14.687 -32.110  45.041  1.00  0.00    -0.019 A
HETATM    8  C1  UNL     1      14.003 -32.781  43.890  1.00  0.00     0.052 C
HETATM    9  C3  UNL     1      15.077 -32.925  46.096  1.00  0.00     0.072 A
HETATM   10  C4  UNL     1      15.828 -32.428  47.133  1.00  0.00     0.037 A
HETATM   11  C5  UNL     1      16.193 -31.103  47.117  1.00  0.00     0.004 A
HETATM   12  C6  UNL     1      15.796 -30.323  46.072  1.00  0.00     0.012 A
BRANCH   9  13
HETATM   13  O1  UNL     1      14.688 -34.281  46.083  1.00  0.00    -0.360 OA
ATOM     14  H1  UNL     1      14.763 -34.769  45.271  1.00  0.00     0.217 HD
ENDBRANCH   9  13
ENDBRANCH   5   6
ENDBRANCH   2   4
ENDBRANCH   1   2
BRANCH   1  15
HETATM   15  O2  UNL     1      15.645 -26.028  41.930  1.00  0.00    -0.392 OA
ATOM     16  H2  UNL     1      16.386 -25.436  41.887  1.00  0.00     0.210 HD
ENDBRANCH   1  15
BRANCH   1  17
HETATM   17  C13 UNL     1      17.606 -27.174  41.453  1.00  0.00     0.147 C
BRANCH  17  18
HETATM   18  O3  UNL     1      17.954 -25.807  41.513  1.00  0.00    -0.393 OA
ATOM     19  H3  UNL     1      17.722 -25.395  40.689  1.00  0.00     0.210 HD
ENDBRANCH  17  18
BRANCH  17  20
HETATM   20  C14 UNL     1      17.627 -27.655  40.000  1.00  0.00     0.039 C
BRANCH  20  21
HETATM   21  C15 UNL     1      18.231 -29.015  39.830  1.00  0.00    -0.012 C
HETATM   22  C16 UNL     1      19.528 -29.133  40.584  1.00  0.00     0.010 C
BRANCH  21  23
HETATM   23  C17 UNL     1      18.455 -29.247  38.363  1.00  0.00    -0.000 C
HETATM   24  C18 UNL     1      17.431 -28.559  37.474  1.00  0.00     0.016 C
HETATM   25  C19 UNL     1      17.137 -29.694  36.529  1.00  0.00     0.059 C
HETATM   26  C20 UNL     1      18.472 -30.442  36.386  1.00  0.00     0.021 C
HETATM   27  C22 UNL     1      16.811 -30.818  37.523  1.00  0.00     0.251 C
HETATM   28  C21 UNL     1      18.270 -30.649  37.903  1.00  0.00     0.063 C
HETATM   29  F1  UNL     1      16.598 -31.976  36.802  1.00  0.00    -0.206 F
HETATM   30  F2  UNL     1      15.878 -30.510  38.452  1.00  0.00    -0.206 F
ENDBRANCH  21  23
ENDBRANCH  20  21
ENDBRANCH  17  20
ENDBRANCH   1  17
TORSDOF 10
ENDMDL