MODEL 4
REMARK VINA RESULT: -8.043566150      4.500      7.312
REMARK  8 active torsions:
REMARK  status: ('A' for Active; 'I' for Inactive)
REMARK    1  A    between atoms: C3_3  and  C4_4
REMARK    2  A    between atoms: N2_6  and  O1_8
REMARK    3  A    between atoms: C7_12  and  C8_13
REMARK    4  A    between atoms: C8_13  and  C9_14
REMARK    5  A    between atoms: C12_17  and  C13_18
REMARK    6  A    between atoms: C13_18  and  C14_20
REMARK    7  A    between atoms: C14_20  and  C15_21
REMARK    8  A    between atoms: C15_21  and  C16_22
ROOT
HETATM    1  C1  UNL     1      16.764 -25.821  38.452  1.00  0.00     0.050 C
HETATM    2  C2  UNL     1      16.786 -27.231  37.981  1.00  0.00    -0.036 A
HETATM    3  C3  UNL     1      16.105 -27.572  36.850  1.00  0.00     0.013 A
HETATM    4  C5  UNL     1      16.258 -28.859  36.325  1.00  0.00     0.016 A
HETATM    5  C6  UNL     1      17.071 -29.722  36.957  1.00  0.00     0.009 A
HETATM    6  C7  UNL     1      17.786 -29.400  38.137  1.00  0.00    -0.045 A
HETATM    7  C12 UNL     1      17.621 -28.136  38.634  1.00  0.00    -0.003 A
ENDROOT
BRANCH   7   8
HETATM    8  C13 UNL     1      18.064 -27.884  40.008  1.00  0.00     0.035 C
HETATM    9  N3  UNL     1      19.506 -27.842  40.085  1.00  0.00    -0.106 NA
BRANCH   8  10
HETATM   10  C14 UNL     1      17.341 -28.525  41.127  1.00  0.00     0.055 C
BRANCH  10  11
HETATM   11  C15 UNL     1      17.251 -27.652  42.388  1.00  0.00     0.010 C
BRANCH  11  12
HETATM   12  C16 UNL     1      15.791 -27.378  42.673  1.00  0.00    -0.014 C
HETATM   13  C17 UNL     1      15.070 -28.634  43.125  1.00  0.00     0.010 C
HETATM   14  C18 UNL     1      15.774 -29.214  44.364  1.00  0.00     0.079 C
HETATM   15  C19 UNL     1      15.806 -28.181  45.422  1.00  0.00     0.243 C
HETATM   16  F1  UNL     1      16.637 -28.611  46.489  1.00  0.00    -0.206 F
HETATM   17  F2  UNL     1      14.547 -28.058  45.976  1.00  0.00    -0.206 F
HETATM   18  C20 UNL     1      16.295 -26.822  45.041  1.00  0.00     0.079 C
HETATM   19  C21 UNL     1      15.657 -26.351  43.757  1.00  0.00     0.010 C
ENDBRANCH  11  12
ENDBRANCH  10  11
ENDBRANCH   8  10
ENDBRANCH   7   8
BRANCH   6  20
HETATM   20  C8  UNL     1      18.604 -30.479  38.666  1.00  0.00     0.044 C
BRANCH  20  21
HETATM   21  C9  UNL     1      18.426 -31.846  38.061  1.00  0.00    -0.010 A
HETATM   22  C10 UNL     1      19.602 -32.634  37.641  1.00  0.00     0.005 A
HETATM   23  C11 UNL     1      18.878 -33.041  38.912  1.00  0.00     0.005 A
ENDBRANCH  20  21
ENDBRANCH   6  20
BRANCH   3  24
HETATM   24  C4  UNL     1      15.188 -26.715  36.148  1.00  0.00     0.146 C
HETATM   25  N1  UNL     1      15.630 -25.951  35.006  1.00  0.00    -0.080 NA
HETATM   26  N2  UNL     1      13.978 -26.581  36.469  1.00  0.00    -0.255 N
ATOM     27  H2  UNL     1      13.661 -27.124  37.273  1.00  0.00     0.195 HD
BRANCH  26  28
HETATM   28  O1  UNL     1      13.037 -25.788  35.863  1.00  0.00    -0.288 OA
ATOM     29  H1  UNL     1      12.142 -25.635  36.144  1.00  0.00     0.244 HD
ENDBRANCH  26  28
ENDBRANCH   3  24
TORSDOF 8
ENDMDL