MODEL 2
REMARK VINA RESULT: -7.715920846      1.342      1.718
REMARK  10 active torsions:
REMARK  status: ('A' for Active; 'I' for Inactive)
REMARK    1  A    between atoms: C2_2  and  C3_3
REMARK    2  A    between atoms: C3_3  and  O1_4
REMARK    3  A    between atoms: C4_6  and  O2_7
REMARK    4  A    between atoms: C9_13  and  C10_14
REMARK    5  A    between atoms: C10_14  and  O3_15
REMARK    6  A    between atoms: C10_14  and  C11_17
REMARK    7  A    between atoms: C11_17  and  C12_18
REMARK    8  A    between atoms: C12_18  and  C13_19
REMARK    9  A    between atoms: C13_19  and  C14_20
REMARK   10  A    between atoms: C14_20  and  C15_21
ROOT
HETATM    1  C1  UNL     1      16.768 -29.723  45.985  1.00  0.00     0.020 C
HETATM    2  C2  UNL     1      16.123 -28.843  44.876  1.00  0.00     0.007 C
HETATM    3  C4  UNL     1      15.816 -27.558  45.586  1.00  0.00     0.128 C
HETATM    4  C5  UNL     1      15.644 -26.391  44.690  1.00  0.00     0.033 C
HETATM    5  C6  UNL     1      16.740 -26.236  43.705  1.00  0.00     0.012 C
HETATM    6  C7  UNL     1      16.970 -27.526  42.879  1.00  0.00    -0.034 C
HETATM    7  C8  UNL     1      15.762 -27.656  42.003  1.00  0.00     0.016 C
HETATM    8  C9  UNL     1      18.199 -27.286  42.073  1.00  0.00     0.023 C
HETATM    9  C18 UNL     1      19.247 -28.398  42.262  1.00  0.00     0.008 C
HETATM   10  C19 UNL     1      19.704 -28.272  43.684  1.00  0.00     0.001 C
HETATM   11  C20 UNL     1      18.502 -28.443  44.562  1.00  0.00     0.006 C
HETATM   12  C21 UNL     1      17.198 -28.674  43.817  1.00  0.00     0.007 C
ENDROOT
BRANCH   8  13
HETATM   13  C10 UNL     1      18.072 -27.007  40.614  1.00  0.00     0.123 C
BRANCH  13  14
HETATM   14  O3  UNL     1      18.421 -25.592  40.529  1.00  0.00    -0.395 OA
ATOM     15  H3  UNL     1      19.366 -25.616  40.438  1.00  0.00     0.210 HD
ENDBRANCH  13  14
BRANCH  13  16
HETATM   16  C11 UNL     1      19.165 -27.591  39.745  1.00  0.00     0.032 C
BRANCH  16  17
HETATM   17  C12 UNL     1      18.567 -28.403  38.602  1.00  0.00     0.002 C
BRANCH  17  18
HETATM   18  C13 UNL     1      17.169 -28.860  38.856  1.00  0.00     0.001 C
BRANCH  18  19
HETATM   19  C14 UNL     1      17.124 -30.364  38.565  1.00  0.00     0.011 C
BRANCH  19  20
HETATM   20  C15 UNL     1      18.450 -30.851  38.040  1.00  0.00     0.064 A
HETATM   21  C16 UNL     1      18.846 -32.215  38.498  1.00  0.00     0.090 A
HETATM   22  C17 UNL     1      18.503 -31.997  37.072  1.00  0.00     0.248 A
HETATM   23  F1  UNL     1      19.557 -32.060  36.172  1.00  0.00    -0.206 F
HETATM   24  F2  UNL     1      17.350 -32.566  36.605  1.00  0.00    -0.206 F
ENDBRANCH  19  20
ENDBRANCH  18  19
ENDBRANCH  17  18
ENDBRANCH  16  17
ENDBRANCH  13  16
ENDBRANCH   8  13
BRANCH   2  25
HETATM   25  C3  UNL     1      14.921 -29.604  44.438  1.00  0.00     0.176 C
BRANCH  25  26
HETATM   26  O1  UNL     1      14.657 -30.695  45.311  1.00  0.00    -0.400 OA
ATOM     27  H1  UNL     1      14.313 -31.442  44.835  1.00  0.00     0.209 HD
ENDBRANCH  25  26
ENDBRANCH   2  25
BRANCH   3  28
HETATM   28  O2  UNL     1      14.653 -27.712  46.354  1.00  0.00    -0.395 OA
ATOM     29  H2  UNL     1      14.832 -27.472  47.256  1.00  0.00     0.210 HD
ENDBRANCH   3  28
TORSDOF 10
ENDMDL