MODEL 1
REMARK VINA RESULT: -7.445990375      0.000      0.000
REMARK  9 active torsions:
REMARK  status: ('A' for Active; 'I' for Inactive)
REMARK    1  A    between atoms: C2_2  and  C4_4
REMARK    2  A    between atoms: C4_4  and  O1_5
REMARK    3  A    between atoms: C4_4  and  C19_24
REMARK    4  A    between atoms: O1_5  and  C5_6
REMARK    5  A    between atoms: C8_10  and  C9_11
REMARK    6  A    between atoms: C10_12  and  C11_13
REMARK    7  A    between atoms: C11_13  and  O2_14
REMARK    8  A    between atoms: C11_13  and  C12_16
REMARK    9  A    between atoms: C13_17  and  C14_18
ROOT
HETATM    1  C5  UNL     1      15.495 -24.240  35.055  1.00  0.00     0.113 A
HETATM    2  C6  UNL     1      15.020 -25.289  34.275  1.00  0.00     0.070 A
HETATM    3 CL1  UNL     1      14.157 -25.043  32.771  1.00  0.00    -0.081 Cl
HETATM    4  C7  UNL     1      15.148 -26.615  34.660  1.00  0.00     0.038 A
HETATM    5  C8  UNL     1      15.752 -26.970  35.843  1.00  0.00    -0.033 A
HETATM    6  C17 UNL     1      16.217 -25.934  36.611  1.00  0.00     0.038 A
HETATM    7  C18 UNL     1      16.099 -24.589  36.240  1.00  0.00     0.070 A
HETATM    8 CL2  UNL     1      16.748 -23.401  37.377  1.00  0.00    -0.081 Cl
ENDROOT
BRANCH   1   9
HETATM    9  O1  UNL     1      15.354 -22.938  34.627  1.00  0.00    -0.335 OA
BRANCH   9  10
HETATM   10  C4  UNL     1      16.312 -22.168  34.028  1.00  0.00     0.196 C
BRANCH  10  11
HETATM   11  C2  UNL     1      16.428 -20.741  34.488  1.00  0.00     0.014 C
HETATM   12  C1  UNL     1      15.464 -20.427  35.608  1.00  0.00     0.012 C
HETATM   13  C3  UNL     1      17.787 -20.293  34.914  1.00  0.00     0.012 C
ENDBRANCH  10  11
BRANCH  10  14
HETATM   14  C19 UNL     1      16.277 -22.149  32.509  1.00  0.00     0.116 C
HETATM   15  N1  UNL     1      17.088 -22.887  31.844  1.00  0.00    -0.389 N
ATOM     16  H12 UNL     1      17.740 -23.492  32.345  1.00  0.00     0.157 HD
ATOM     17  H11 UNL     1      17.064 -22.874  30.824  1.00  0.00     0.157 HD
HETATM   18  N2  UNL     1      15.365 -21.303  31.808  1.00  0.00    -0.085 NA
ENDBRANCH  10  14
ENDBRANCH   9  10
ENDBRANCH   1   9
BRANCH   5  19
HETATM   19  C9  UNL     1      15.880 -28.371  36.239  1.00  0.00     0.010 C
HETATM   20  C10 UNL     1      15.519 -29.390  35.515  1.00  0.00     0.009 C
BRANCH  20  21
HETATM   21  C11 UNL     1      15.693 -30.762  36.013  1.00  0.00     0.163 C
BRANCH  21  22
HETATM   22  O2  UNL     1      15.647 -31.713  34.997  1.00  0.00    -0.388 OA
ATOM     23  H2  UNL     1      14.789 -32.112  34.905  1.00  0.00     0.210 HD
ENDBRANCH  21  22
BRANCH  21  24
HETATM   24  C12 UNL     1      16.915 -30.916  36.831  1.00  0.00     0.005 C
HETATM   25  C13 UNL     1      17.793 -31.889  36.618  1.00  0.00    -0.023 C
BRANCH  25  26
HETATM   26  C14 UNL     1      19.020 -32.054  37.428  1.00  0.00     0.008 A
HETATM   27  C15 UNL     1      18.907 -33.045  38.569  1.00  0.00     0.009 A
HETATM   28  C16 UNL     1      19.106 -31.560  38.820  1.00  0.00     0.009 A
ENDBRANCH  25  26
ENDBRANCH  21  24
ENDBRANCH  20  21
ENDBRANCH   5  19
TORSDOF 9
ENDMDL