MODEL 2
REMARK VINA RESULT: -8.384773673      1.164      1.741
REMARK  7 active torsions:
REMARK  status: ('A' for Active; 'I' for Inactive)
REMARK    1  A    between atoms: C2_2  and  C4_4
REMARK    2  A    between atoms: C8_9  and  O1_10
REMARK    3  A    between atoms: O1_10  and  C9_11
REMARK    4  A    between atoms: C9_11  and  C10_12
REMARK    5  A    between atoms: C10_12  and  N2_13
REMARK    6  A    between atoms: C10_12  and  C14_21
REMARK       I    between atoms: N2_13  and  C11_15
REMARK    7  A    between atoms: C11_15  and  C12_17
ROOT
HETATM    1  C10 UNL     1      16.512 -27.888  38.305  1.00  0.00     0.113 C
ENDROOT
BRANCH   1   2
HETATM    2  C9  UNL     1      15.303 -27.748  39.204  1.00  0.00     0.201 C
BRANCH   2   3
HETATM    3  O1  UNL     1      15.453 -26.566  39.952  1.00  0.00    -0.347 OA
BRANCH   3   4
HETATM    4  C8  UNL     1      15.580 -26.563  41.335  1.00  0.00     0.093 A
HETATM    5  C7  UNL     1      15.774 -25.374  41.989  1.00  0.00     0.079 A
HETATM    6  C6  UNL     1      15.902 -25.349  43.361  1.00  0.00     0.030 A
HETATM    7  N1  UNL     1      15.852 -24.125  41.298  1.00  0.00    -0.100 NA
HETATM    8  C5  UNL     1      15.836 -26.532  44.100  1.00  0.00     0.014 A
HETATM    9  C4  UNL     1      15.642 -27.733  43.454  1.00  0.00    -0.028 A
HETATM   10  C21 UNL     1      15.517 -27.717  42.075  1.00  0.00     0.050 A
BRANCH   9  11
HETATM   11  C2  UNL     1      15.567 -28.989  44.183  1.00  0.00    -0.061 C
HETATM   12  C1  UNL     1      14.653 -29.912  43.980  1.00  0.00     0.019 C
HETATM   13  C3  UNL     1      16.599 -29.269  45.245  1.00  0.00     0.048 C
ENDBRANCH   9  11
ENDBRANCH   3   4
ENDBRANCH   2   3
ENDBRANCH   1   2
BRANCH   1  14
HETATM   14  N2  UNL     1      16.171 -27.450  36.976  1.00  0.00    -0.349 N
HETATM   15  C11 UNL     1      16.437 -26.151  36.475  1.00  0.00     0.290 C
HETATM   16  O2  UNL     1      17.015 -25.348  37.281  1.00  0.00    -0.267 OA
ATOM     17  H2  UNL     1      15.709 -28.116  36.356  1.00  0.00     0.163 HD
BRANCH  15  18
HETATM   18  C12 UNL     1      16.079 -25.730  35.118  1.00  0.00     0.318 C
HETATM   19  C13 UNL     1      15.125 -24.557  35.162  1.00  0.00     0.101 C
HETATM   20  F1  UNL     1      15.497 -26.805  34.475  1.00  0.00    -0.196 F
HETATM   21  F2  UNL     1      17.220 -25.314  34.460  1.00  0.00    -0.196 F
ENDBRANCH  15  18
ENDBRANCH   1  14
BRANCH   1  22
HETATM   22  C14 UNL     1      17.088 -29.277  38.350  1.00  0.00     0.010 C
HETATM   23  C15 UNL     1      18.527 -29.250  38.713  1.00  0.00     0.007 C
HETATM   24  C16 UNL     1      19.062 -30.601  39.118  1.00  0.00     0.000 C
HETATM   25  C17 UNL     1      18.583 -31.722  38.266  1.00  0.00     0.000 C
HETATM   26  C18 UNL     1      18.769 -31.487  36.791  1.00  0.00     0.000 C
HETATM   27  C19 UNL     1      17.977 -30.350  36.258  1.00  0.00     0.000 C
HETATM   28  C20 UNL     1      16.780 -29.985  37.071  1.00  0.00     0.007 C
ENDBRANCH   1  22
TORSDOF 7
ENDMDL