MODEL 4
REMARK VINA RESULT: -7.589641168      4.093      9.112
REMARK  11 active torsions:
REMARK  status: ('A' for Active; 'I' for Inactive)
REMARK    1  A    between atoms: C2_2  and  C3_3
REMARK    2  A    between atoms: C4_4  and  C5_5
REMARK    3  A    between atoms: C9_9  and  C10_10
REMARK    4  A    between atoms: C10_10  and  C11_11
REMARK    5  A    between atoms: C11_11  and  C12_12
REMARK    6  A    between atoms: C12_12  and  C13_13
REMARK    7  A    between atoms: C12_12  and  C20_26
REMARK    8  A    between atoms: C14_14  and  C15_15
REMARK    9  A    between atoms: C15_15  and  O1_16
REMARK   10  A    between atoms: C17_19  and  O2_20
REMARK   11  A    between atoms: C20_26  and  O3_27
ROOT
HETATM    1  C12 UNL     1      14.511 -25.781  35.491  1.00  0.00     0.032 C
ENDROOT
BRANCH   1   2
HETATM    2  C11 UNL     1      15.557 -25.483  34.489  1.00  0.00     0.014 C
BRANCH   2   3
HETATM    3  C10 UNL     1      15.103 -25.116  33.112  1.00  0.00     0.028 C
BRANCH   3   4
HETATM    4  C9  UNL     1      13.727 -25.636  32.950  1.00  0.00    -0.020 C
HETATM    5  C2  UNL     1      12.761 -25.059  32.297  1.00  0.00    -0.066 C
HETATM    6  C1  UNL     1      12.896 -23.778  31.609  1.00  0.00     0.048 C
BRANCH   5   7
HETATM    7  C3  UNL     1      11.461 -25.722  32.243  1.00  0.00     0.003 C
HETATM    8  C4  UNL     1      10.665 -25.518  31.223  1.00  0.00    -0.018 C
BRANCH   8   9
HETATM    9  C5  UNL     1       9.327 -26.157  31.096  1.00  0.00    -0.034 C
HETATM   10  C6  UNL     1       9.099 -26.447  29.628  1.00  0.00     0.018 C
HETATM   11  C7  UNL     1       8.265 -25.170  31.539  1.00  0.00     0.018 C
HETATM   12  C8  UNL     1       9.203 -27.408  31.906  1.00  0.00     0.018 C
ENDBRANCH   8   9
ENDBRANCH   5   7
ENDBRANCH   3   4
ENDBRANCH   2   3
ENDBRANCH   1   2
BRANCH   1  13
HETATM   13  C13 UNL     1      14.973 -27.003  36.254  1.00  0.00    -0.021 C
HETATM   14  C14 UNL     1      15.536 -28.040  35.655  1.00  0.00     0.007 C
BRANCH  14  15
HETATM   15  C15 UNL     1      15.979 -29.220  36.416  1.00  0.00     0.082 C
HETATM   16  C16 UNL     1      15.224 -29.273  37.722  1.00  0.00     0.078 C
HETATM   17  C17 UNL     1      16.097 -30.099  38.632  1.00  0.00     0.176 C
HETATM   18  C18 UNL     1      17.450 -30.198  37.962  1.00  0.00     0.207 C
HETATM   19  F1  UNL     1      17.625 -31.435  37.351  1.00  0.00    -0.223 F
HETATM   20 CL1  UNL     1      18.767 -29.910  39.114  1.00  0.00    -0.080 Cl
HETATM   21  C19 UNL     1      17.411 -29.121  36.883  1.00  0.00     0.105 C
BRANCH  15  22
HETATM   22  O1  UNL     1      15.817 -30.402  35.710  1.00  0.00    -0.386 OA
ATOM     23  H1  UNL     1      15.443 -31.097  36.239  1.00  0.00     0.211 HD
ENDBRANCH  15  22
BRANCH  17  24
HETATM   24  O2  UNL     1      16.247 -29.503  39.886  1.00  0.00    -0.391 OA
ATOM     25  H2  UNL     1      15.659 -29.881  40.529  1.00  0.00     0.210 HD
ENDBRANCH  17  24
ENDBRANCH  14  15
ENDBRANCH   1  13
BRANCH   1  26
HETATM   26  C20 UNL     1      14.206 -24.723  36.492  1.00  0.00     0.172 C
BRANCH  26  27
HETATM   27  O3  UNL     1      12.870 -24.386  36.621  1.00  0.00    -0.400 OA
ATOM     28  H3  UNL     1      12.626 -23.532  36.283  1.00  0.00     0.209 HD
ENDBRANCH  26  27
ENDBRANCH   1  26
TORSDOF 11
ENDMDL