MODEL 4
REMARK VINA RESULT: -7.022030043      2.394      3.261
REMARK  11 active torsions:
REMARK  status: ('A' for Active; 'I' for Inactive)
REMARK    1  A    between atoms: C2_2  and  C3_3
REMARK    2  A    between atoms: C3_3  and  C4_4
REMARK    3  A    between atoms: C4_4  and  C5_5
REMARK    4  A    between atoms: C5_5  and  C6_6
REMARK    5  A    between atoms: C6_6  and  C7_7
REMARK    6  A    between atoms: C7_7  and  O1_8
REMARK    7  A    between atoms: C7_7  and  C8_10
REMARK    8  A    between atoms: C9_11  and  C10_12
REMARK    9  A    between atoms: C15_18  and  C16_20
REMARK   10  A    between atoms: C16_20  and  O2_21
REMARK   11  A    between atoms: N1_23  and  O3_25
ROOT
HETATM    1  C10 UNL     1      15.915 -26.215  35.936  1.00  0.00     0.003 C
HETATM    2  C11 UNL     1      15.977 -25.419  34.889  1.00  0.00    -0.076 C
HETATM    3  C12 UNL     1      15.711 -25.980  33.551  1.00  0.00     0.035 C
HETATM    4  C13 UNL     1      16.237 -24.963  32.530  1.00  0.00     0.024 C
HETATM    5  C14 UNL     1      15.473 -23.687  32.730  1.00  0.00     0.106 C
HETATM    6 BR1  UNL     1      13.597 -24.072  32.427  1.00  0.00    -0.087 Br
HETATM    7  C15 UNL     1      15.669 -23.083  34.087  1.00  0.00     0.185 C
HETATM    8  F1  UNL     1      14.447 -22.663  34.576  1.00  0.00    -0.232 F
HETATM    9  C17 UNL     1      16.304 -24.008  35.077  1.00  0.00     0.087 C
ENDROOT
BRANCH   1  10
HETATM   10  C9  UNL     1      15.591 -27.628  35.780  1.00  0.00    -0.001 C
HETATM   11  C8  UNL     1      16.187 -28.500  36.563  1.00  0.00     0.004 C
BRANCH  11  12
HETATM   12  C7  UNL     1      15.871 -29.942  36.422  1.00  0.00     0.141 C
BRANCH  12  13
HETATM   13  C6  UNL     1      17.070 -30.612  35.785  1.00  0.00     0.036 C
BRANCH  13  14
HETATM   14  C5  UNL     1      18.264 -30.345  36.664  1.00  0.00     0.003 C
BRANCH  14  15
HETATM   15  C4  UNL     1      18.668 -31.562  37.463  1.00  0.00     0.000 C
BRANCH  15  16
HETATM   16  C3  UNL     1      18.995 -31.215  38.896  1.00  0.00    -0.000 C
BRANCH  16  17
HETATM   17  C2  UNL     1      18.659 -29.740  39.085  1.00  0.00    -0.005 C
HETATM   18  C1  UNL     1      19.405 -29.261  40.303  1.00  0.00     0.005 C
ENDBRANCH  16  17
ENDBRANCH  15  16
ENDBRANCH  14  15
ENDBRANCH  13  14
ENDBRANCH  12  13
BRANCH  12  19
HETATM   19  O1  UNL     1      14.774 -30.032  35.541  1.00  0.00    -0.392 OA
ATOM     20  H1  UNL     1      13.998 -29.704  35.979  1.00  0.00     0.210 HD
ENDBRANCH  12  19
ENDBRANCH  11  12
ENDBRANCH   1  10
BRANCH   7  21
HETATM   21  C16 UNL     1      16.537 -21.857  34.005  1.00  0.00     0.177 C
HETATM   22  N1  UNL     1      17.287 -21.499  34.968  1.00  0.00    -0.248 N
ATOM     23  H1  UNL     1      17.316 -22.046  35.828  1.00  0.00     0.196 HD
BRANCH  21  24
HETATM   24  O2  UNL     1      16.477 -21.140  32.831  1.00  0.00    -0.346 OA
ATOM     25  H2  UNL     1      16.948 -20.315  32.813  1.00  0.00     0.219 HD
ENDBRANCH  21  24
BRANCH  22  26
HETATM   26  O3  UNL     1      18.057 -20.371  34.837  1.00  0.00    -0.288 OA
ATOM     27  H3  UNL     1      18.482 -20.192  34.007  1.00  0.00     0.244 HD
ENDBRANCH  22  26
ENDBRANCH   7  21
TORSDOF 11
ENDMDL