MODEL 3
REMARK VINA RESULT: -8.861298186      1.273      1.769
REMARK  8 active torsions:
REMARK  status: ('A' for Active; 'I' for Inactive)
REMARK    1  A    between atoms: C1_2  and  C2_4
REMARK    2  A    between atoms: C5_7  and  C6_8
REMARK    3  A    between atoms: C10_12  and  N1_13
REMARK    4  A    between atoms: N1_13  and  C11_16
REMARK    5  A    between atoms: C11_16  and  C12_17
REMARK    6  A    between atoms: C12_17  and  O3_18
REMARK    7  A    between atoms: C12_17  and  C13_20
REMARK    8  A    between atoms: C13_20  and  C14_23
ROOT
HETATM    1  C6  UNL     1      15.513 -27.250  42.988  1.00  0.00     0.020 C
HETATM    2  C7  UNL     1      15.874 -25.853  42.698  1.00  0.00     0.009 C
HETATM    3  C8  UNL     1      17.040 -25.634  41.799  1.00  0.00     0.003 C
HETATM    4  C9  UNL     1      17.209 -26.635  40.712  1.00  0.00     0.033 C
HETATM    5  C10 UNL     1      16.233 -27.757  40.694  1.00  0.00     0.186 C
HETATM    6  C19 UNL     1      16.066 -28.300  42.076  1.00  0.00     0.042 C
ENDROOT
BRANCH   5   7
HETATM    7  N1  UNL     1      14.991 -27.443  40.018  1.00  0.00    -0.068 N
ATOM      8  H12 UNL     1      14.209 -27.967  40.411  1.00  0.00     0.277 HD
ATOM      9  H11 UNL     1      14.675 -26.499  40.238  1.00  0.00     0.277 HD
BRANCH   7  10
HETATM   10  C11 UNL     1      15.098 -27.645  38.595  1.00  0.00     0.270 C
BRANCH  10  11
HETATM   11  C12 UNL     1      15.401 -29.085  38.244  1.00  0.00     0.216 C
BRANCH  11  12
HETATM   12  O3  UNL     1      14.235 -29.631  37.738  1.00  0.00    -0.388 OA
ATOM     13  H3  UNL     1      14.479 -30.424  37.275  1.00  0.00     0.210 HD
ENDBRANCH  11  12
BRANCH  11  14
HETATM   14  C13 UNL     1      16.565 -29.139  37.269  1.00  0.00     0.274 C
HETATM   15  F1  UNL     1      17.440 -28.110  37.693  1.00  0.00    -0.203 F
HETATM   16  F2  UNL     1      16.222 -28.858  35.986  1.00  0.00    -0.203 F
BRANCH  14  17
HETATM   17  C14 UNL     1      17.337 -30.397  37.454  1.00  0.00     0.061 C
HETATM   18  C15 UNL     1      18.250 -30.272  38.677  1.00  0.00     0.011 C
HETATM   19  C16 UNL     1      18.951 -31.633  38.589  1.00  0.00     0.001 C
HETATM   20  C17 UNL     1      19.041 -31.936  37.085  1.00  0.00     0.001 C
HETATM   21  C18 UNL     1      18.325 -30.750  36.400  1.00  0.00     0.011 C
ENDBRANCH  14  17
ENDBRANCH  11  14
ENDBRANCH  10  11
ENDBRANCH   7  10
ENDBRANCH   5   7
BRANCH   1  22
HETATM   22  C5  UNL     1      15.883 -27.705  44.379  1.00  0.00    -0.054 A
HETATM   23  C4  UNL     1      16.628 -28.849  44.590  1.00  0.00     0.008 A
HETATM   24  C3  UNL     1      16.979 -29.250  45.855  1.00  0.00     0.019 A
HETATM   25  C2  UNL     1      16.606 -28.534  46.966  1.00  0.00     0.040 A
HETATM   26  C21 UNL     1      15.861 -27.391  46.764  1.00  0.00     0.019 A
HETATM   27  C20 UNL     1      15.500 -26.976  45.480  1.00  0.00     0.008 A
BRANCH  25  28
HETATM   28  C1  UNL     1      16.988 -28.948  48.327  1.00  0.00     0.209 C
HETATM   29  O1  UNL     1      17.987 -28.432  48.882  1.00  0.00    -0.644 OA
HETATM   30  O2  UNL     1      16.266 -29.900  49.022  1.00  0.00    -0.644 OA
ENDBRANCH  25  28
ENDBRANCH   1  22
TORSDOF 8
ENDMDL