MODEL 4
REMARK VINA RESULT: -8.500174916      1.609      1.919
REMARK  7 active torsions:
REMARK  status: ('A' for Active; 'I' for Inactive)
REMARK    1  A    between atoms: N1_1  and  N2_4
REMARK    2  A    between atoms: N2_4  and  C1_6
REMARK    3  A    between atoms: C4_16  and  N6_17
REMARK    4  A    between atoms: N6_17  and  C5_19
REMARK    5  A    between atoms: N10_26  and  N11_27
REMARK    6  A    between atoms: N11_27  and  C6_29
REMARK    7  A    between atoms: C6_29  and  C7_30
ROOT
HETATM    1  N6  UNL     1      -0.233   0.539  20.990  1.00  0.00    -0.168 N
ATOM      2  H6  UNL     1       0.724   0.191  21.057  1.00  0.00     0.186 HD
ENDROOT
BRANCH   1   3
HETATM    3  C4  UNL     1      -0.995   0.389  22.017  1.00  0.00     0.165 A
HETATM    4  N5  UNL     1      -2.280  -0.065  22.055  1.00  0.00    -0.282 N
HETATM    5  N4  UNL     1      -2.666  -0.050  23.327  1.00  0.00    -0.292 N
ATOM      6  H5  UNL     1      -2.841  -0.360  21.255  1.00  0.00     0.188 HD
HETATM    7  C3  UNL     1      -1.665   0.398  24.105  1.00  0.00     0.148 A
ATOM      8  H4  UNL     1      -3.585  -0.336  23.664  1.00  0.00     0.187 HD
HETATM    9  C2  UNL     1      -1.519   0.611  25.457  1.00  0.00     0.290 A
HETATM   10  C11 UNL     1      -0.581   0.689  23.300  1.00  0.00     0.128 A
HETATM   11  N3  UNL     1      -0.358   1.083  25.952  1.00  0.00    -0.153 N
HETATM   12  O1  UNL     1      -2.510   0.345  26.189  1.00  0.00    -0.265 OA
HETATM   13  C1  UNL     1       0.701   1.367  25.165  1.00  0.00     0.700 A
ATOM     14  H3  UNL     1      -0.277   1.232  26.958  1.00  0.00     0.187 HD
HETATM   15  N14 UNL     1       0.555   1.159  23.846  1.00  0.00    -0.184 N
ATOM     16  H14 UNL     1       1.342   1.366  23.231  1.00  0.00     0.184 HD
BRANCH  13  17
HETATM   17  N2  UNL     1       1.804   1.821  25.679  1.00  0.00    -0.138 N
ATOM     18  H2  UNL     1       2.152   2.751  25.444  1.00  0.00     0.205 HD
BRANCH  17  19
HETATM   19  N1  UNL     1       2.498   0.989  26.567  1.00  0.00    -0.331 N
ATOM     20  H12 UNL     1       3.190   0.328  26.215  1.00  0.00     0.177 HD
ATOM     21  H11 UNL     1       2.285   1.075  27.560  1.00  0.00     0.177 HD
ENDBRANCH  17  19
ENDBRANCH  13  17
ENDBRANCH   1   3
BRANCH   1  22
HETATM   22  C5  UNL     1      -0.624   1.148  19.782  1.00  0.00     0.737 A
HETATM   23  N7  UNL     1      -0.665   2.440  19.492  1.00  0.00    -0.113 N
HETATM   24  N8  UNL     1      -1.091   2.564  18.251  1.00  0.00    -0.212 N
ATOM     25  H7  UNL     1      -0.413   3.204  20.119  1.00  0.00     0.207 HD
HETATM   26  N9  UNL     1      -1.313   1.361  17.770  1.00  0.00    -0.192 N
ATOM     27  H8  UNL     1      -1.224   3.442  17.750  1.00  0.00     0.210 HD
HETATM   28  N10 UNL     1      -1.031   0.471  18.700  1.00  0.00    -0.007 N
ATOM     29  H9  UNL     1      -1.650   1.150  16.830  1.00  0.00     0.212 HD
BRANCH  28  30
HETATM   30  N11 UNL     1      -1.135  -0.918  18.586  1.00  0.00    -0.293 N
ATOM     31  H11 UNL     1      -1.829  -1.423  19.136  1.00  0.00     0.183 HD
BRANCH  30  32
HETATM   32  C6  UNL     1      -0.273  -1.632  17.704  1.00  0.00     0.200 C
BRANCH  32  33
HETATM   33  C7  UNL     1       0.860  -2.319  18.322  1.00  0.00     0.047 A
HETATM   34  C8  UNL     1       1.471  -3.389  17.673  1.00  0.00     0.114 A
HETATM   35  N12 UNL     1       2.518  -4.037  18.215  1.00  0.00    -0.369 N
HETATM   36  C9  UNL     1       3.016  -3.678  19.403  1.00  0.00     0.162 A
ATOM     37  H12 UNL     1       2.940  -4.817  17.710  1.00  0.00     0.164 HD
HETATM   38  C10 UNL     1       2.430  -2.623  20.066  1.00  0.00     0.261 A
HETATM   39  O2  UNL     1       2.900  -2.280  21.193  1.00  0.00    -0.267 OA
HETATM   40  N13 UNL     1       1.368  -1.968  19.516  1.00  0.00    -0.323 N
ATOM     41  H13 UNL     1       0.948  -1.189  20.024  1.00  0.00     0.169 HD
ENDBRANCH  32  33
ENDBRANCH  30  32
ENDBRANCH  28  30
ENDBRANCH   1  22
TORSDOF 7
ENDMDL