MODEL 2
REMARK VINA RESULT: -7.767798456      5.249      9.732
REMARK  6 active torsions:
REMARK  status: ('A' for Active; 'I' for Inactive)
REMARK    1  A    between atoms: N1_1  and  C1_4
REMARK    2  A    between atoms: C2_9  and  C3_10
REMARK    3  A    between atoms: C3_10  and  N4_11
REMARK    4  A    between atoms: C5_13  and  C6_14
REMARK    5  A    between atoms: C6_14  and  O1_15
REMARK    6  A    between atoms: N6_21  and  N7_22
ROOT
HETATM    1  C6  UNL     1      -0.148  -2.347  18.202  1.00  0.00     0.220 A
HETATM    2  N5  UNL     1      -0.008  -0.976  17.748  1.00  0.00    -0.300 N
ATOM      3  H5  UNL     1       0.206  -0.836  16.761  1.00  0.00     0.168 HD
HETATM    4  C7  UNL     1      -0.139   0.172  18.536  1.00  0.00     0.345 A
HETATM    5  O2  UNL     1       0.022   1.339  18.040  1.00  0.00    -0.245 OA
HETATM    6  N6  UNL     1      -0.458   0.007  19.907  1.00  0.00    -0.195 N
HETATM    7  C8  UNL     1      -0.635  -1.298  20.449  1.00  0.00     0.149 A
HETATM    8  N8  UNL     1      -0.946  -1.452  21.753  1.00  0.00    -0.336 N
ATOM      9  H8  UNL     1      -1.043  -0.616  22.330  1.00  0.00     0.168 HD
HETATM   10  C9  UNL     1      -1.136  -2.651  22.330  1.00  0.00     0.185 A
HETATM   11  N9  UNL     1      -1.007  -3.755  21.568  1.00  0.00    -0.319 N
ATOM     12  H9  UNL     1      -1.146  -4.675  21.985  1.00  0.00     0.169 HD
HETATM   13  C10 UNL     1      -0.693  -3.654  20.244  1.00  0.00     0.261 A
HETATM   14  O3  UNL     1      -0.594  -4.724  19.611  1.00  0.00    -0.267 OA
HETATM   15  C11 UNL     1      -0.497  -2.430  19.640  1.00  0.00     0.117 A
ENDROOT
BRANCH   1  16
HETATM   16  C5  UNL     1       1.170  -2.986  17.921  1.00  0.00     0.104 A
HETATM   17  C4  UNL     1       1.583  -3.690  16.823  1.00  0.00     0.144 A
HETATM   18  N4  UNL     1       2.845  -4.061  17.040  1.00  0.00    -0.280 N
HETATM   19  N11 UNL     1       3.189  -3.603  18.226  1.00  0.00    -0.240 N
HETATM   20  N10 UNL     1       2.190  -2.947  18.779  1.00  0.00    -0.284 N
ATOM     21  H11 UNL     1       4.105  -3.736  18.657  1.00  0.00     0.208 HD
ATOM     22  H10 UNL     1       2.195  -2.495  19.694  1.00  0.00     0.188 HD
BRANCH  18  23
HETATM   23  C3  UNL     1       3.692  -4.832  16.137  1.00  0.00     0.228 C
BRANCH  23  24
HETATM   24  C2  UNL     1       3.166  -6.220  16.160  1.00  0.00     0.132 A
HETATM   25  N3  UNL     1       2.613  -6.868  15.134  1.00  0.00    -0.273 N
HETATM   26  N2  UNL     1       2.267  -8.087  15.547  1.00  0.00    -0.131 N
ATOM     27  H3  UNL     1       2.477  -6.494  14.195  1.00  0.00     0.189 HD
HETATM   28  C1  UNL     1       2.623  -8.174  16.856  1.00  0.00     0.691 A
ATOM     29  H2  UNL     1       1.822  -8.815  14.988  1.00  0.00     0.205 HD
HETATM   30  N12 UNL     1       3.184  -7.019  17.253  1.00  0.00    -0.177 N
ATOM     31  H12 UNL     1       3.546  -6.792  18.180  1.00  0.00     0.185 HD
BRANCH  28  32
HETATM   32  N1  UNL     1       2.443  -9.210  17.594  1.00  0.00    -0.233 N
ATOM     33  H12 UNL     1       1.711  -9.320  18.296  1.00  0.00     0.174 HD
ATOM     34  H11 UNL     1       3.019 -10.051  17.560  1.00  0.00     0.174 HD
ENDBRANCH  28  32
ENDBRANCH  23  24
ENDBRANCH  18  23
ENDBRANCH   1  16
BRANCH   1  35
HETATM   35  O1  UNL     1      -1.092  -2.943  17.379  1.00  0.00    -0.361 OA
ATOM     36  H1  UNL     1      -1.479  -2.262  16.842  1.00  0.00     0.213 HD
ENDBRANCH   1  35
BRANCH   6  37
HETATM   37  N7  UNL     1      -0.588   1.161  20.689  1.00  0.00    -0.333 N
ATOM     38  H72 UNL     1      -0.666   2.090  20.275  1.00  0.00     0.177 HD
ATOM     39  H71 UNL     1      -0.604   1.048  21.703  1.00  0.00     0.177 HD
ENDBRANCH   6  37
TORSDOF 6
ENDMDL