MODEL 3
REMARK VINA RESULT: -5.990420859      2.119      6.509
REMARK  10 active torsions:
REMARK  status: ('A' for Active; 'I' for Inactive)
REMARK    1  A    between atoms: O1_2  and  C2_3
REMARK    2  A    between atoms: C4_5  and  N1_6
REMARK    3  A    between atoms: C6_11  and  N2_12
REMARK    4  A    between atoms: C7_16  and  O2_17
REMARK    5  A    between atoms: O2_17  and  C8_18
REMARK    6  A    between atoms: C9_19  and  N3_20
REMARK    7  A    between atoms: C11_26  and  N4_27
REMARK    8  A    between atoms: C12_31  and  O4_32
REMARK    9  A    between atoms: O4_32  and  C13_33
REMARK   10  A    between atoms: C14_36  and  O6_37
ROOT
HETATM    1  C2  UNL     1       3.495 -10.976  13.887  1.00  0.00     0.113 C
HETATM    2  C3  UNL     1       4.467 -11.866  13.133  1.00  0.00     0.051 C
HETATM    3  C4  UNL     1       2.722 -10.165  12.891  1.00  0.00     0.222 C
HETATM    4  C5  UNL     1       1.693  -9.348  13.638  1.00  0.00     0.071 C
HETATM    5  C6  UNL     1       2.270  -8.656  14.835  1.00  0.00     0.217 C
HETATM    6  C7  UNL     1       3.780  -8.666  14.832  1.00  0.00     0.184 C
HETATM    7  C14 UNL     1       4.375 -10.020  14.699  1.00  0.00     0.185 C
ENDROOT
BRANCH   6   8
HETATM    8  O2  UNL     1       4.252  -7.988  15.926  1.00  0.00    -0.371 OA
BRANCH   8   9
HETATM    9  C8  UNL     1       4.451  -6.643  15.714  1.00  0.00     0.188 C
HETATM   10  C9  UNL     1       5.832  -6.151  15.952  1.00  0.00     0.238 C
HETATM   11  C10 UNL     1       5.940  -5.231  17.169  1.00  0.00     0.206 C
HETATM   12  O3  UNL     1       5.076  -4.172  17.115  1.00  0.00    -0.355 OA
HETATM   13  C11 UNL     1       3.975  -4.349  16.319  1.00  0.00     0.351 C
HETATM   14  C12 UNL     1       3.493  -5.774  16.501  1.00  0.00     0.220 C
BRANCH  10  15
HETATM   15  N3  UNL     1       6.822  -7.178  16.127  1.00  0.00    -0.070 N
ATOM     16  H33 UNL     1       6.607  -7.978  15.531  1.00  0.00     0.274 HD
ATOM     17  H32 UNL     1       7.709  -6.884  15.719  1.00  0.00     0.274 HD
ATOM     18  H31 UNL     1       6.960  -7.484  17.090  1.00  0.00     0.274 HD
ENDBRANCH  10  15
BRANCH  13  19
HETATM   19  N4  UNL     1       2.959  -3.386  16.704  1.00  0.00    -0.050 N
ATOM     20  H43 UNL     1       3.355  -2.554  17.142  1.00  0.00     0.277 HD
ATOM     21  H42 UNL     1       2.528  -2.930  15.900  1.00  0.00     0.277 HD
ATOM     22  H41 UNL     1       2.274  -3.851  17.300  1.00  0.00     0.277 HD
ENDBRANCH  13  19
BRANCH  14  23
HETATM   23  O4  UNL     1       3.489  -6.055  17.870  1.00  0.00    -0.294 OA
BRANCH  23  24
HETATM   24  C13 UNL     1       2.368  -6.297  18.635  1.00  0.00     0.373 C
HETATM   25  N5  UNL     1       1.850  -7.609  18.866  1.00  0.00    -0.032 NA
HETATM   26  O5  UNL     1       1.786  -5.305  19.146  1.00  0.00    -0.242 OA
ENDBRANCH  23  24
ENDBRANCH  14  23
ENDBRANCH   8   9
ENDBRANCH   6   8
BRANCH   5  27
HETATM   27  N2  UNL     1       1.698  -9.124  16.070  1.00  0.00    -0.072 N
ATOM     28  H23 UNL     1       0.977  -9.825  15.898  1.00  0.00     0.274 HD
ATOM     29  H22 UNL     1       2.363  -9.698  16.588  1.00  0.00     0.274 HD
ATOM     30  H21 UNL     1       1.341  -8.363  16.649  1.00  0.00     0.274 HD
ENDBRANCH   5  27
BRANCH   7  31
HETATM   31  O6  UNL     1       4.611 -10.655  15.923  1.00  0.00    -0.390 OA
ATOM     32  H6  UNL     1       3.770 -10.991  16.212  1.00  0.00     0.210 HD
ENDBRANCH   7  31
BRANCH   1  33
HETATM   33  O1  UNL     1       2.706 -11.642  14.759  1.00  0.00    -0.381 OA
HETATM   34  C1  UNL     1       2.470 -12.962  14.618  1.00  0.00     0.202 C
ENDBRANCH   1  33
BRANCH   3  35
HETATM   35  N1  UNL     1       2.063 -11.026  11.961  1.00  0.00    -0.072 N
ATOM     36  H13 UNL     1       1.695 -10.513  11.160  1.00  0.00     0.274 HD
ATOM     37  H12 UNL     1       2.721 -11.626  11.464  1.00  0.00     0.274 HD
ATOM     38  H11 UNL     1       1.337 -11.565  12.434  1.00  0.00     0.274 HD
ENDBRANCH   3  35
TORSDOF 10
ENDMDL