MODEL 4
REMARK VINA RESULT: -6.662519812      4.763      7.530
REMARK  7 active torsions:
REMARK  status: ('A' for Active; 'I' for Inactive)
REMARK    1  A    between atoms: C4_9  and  N3_10
REMARK    2  A    between atoms: N4_12  and  N5_13
REMARK    3  A    between atoms: N5_13  and  C6_14
REMARK    4  A    between atoms: C8_16  and  O1_18
REMARK    5  A    between atoms: C10_23  and  N7_24
REMARK    6  A    between atoms: C11_29  and  O2_30
REMARK    7  A    between atoms: C12_32  and  N9_33
ROOT
HETATM    1  N3  UNL     1       0.262  -1.853  19.816  1.00  0.00    -0.319 N
HETATM    2  C5  UNL     1       1.678  -2.219  20.025  1.00  0.00     0.258 C
HETATM    3  N4  UNL     1       1.805  -3.392  19.209  1.00  0.00    -0.126 NA
HETATM    4  N8  UNL     1       0.808  -3.366  18.255  1.00  0.00    -0.094 NA
HETATM    5  C11 UNL     1       0.078  -2.103  18.419  1.00  0.00     0.337 C
ENDROOT
BRANCH   1   6
HETATM    6  C4  UNL     1      -0.530  -1.389  20.867  1.00  0.00     0.123 A
HETATM    7  C3  UNL     1      -0.865  -0.064  20.956  1.00  0.00     0.131 A
HETATM    8  N1  UNL     1      -1.645   0.402  21.976  1.00  0.00    -0.331 N
HETATM    9  N2  UNL     1      -0.488   0.798  20.127  1.00  0.00    -0.383 N
HETATM   10  C2  UNL     1      -2.114  -0.393  22.921  1.00  0.00     0.080 A
ATOM     11  H1  UNL     1      -1.873   1.396  22.008  1.00  0.00     0.168 HD
HETATM   12  C1  UNL     1      -2.969   0.179  24.022  1.00  0.00     0.089 C
HETATM   13  N10 UNL     1      -1.815  -1.694  22.880  1.00  0.00    -0.331 N
HETATM   14  C12 UNL     1      -1.034  -2.200  21.870  1.00  0.00     0.135 A
ATOM     15  H10 UNL     1      -2.171  -2.317  23.605  1.00  0.00     0.168 HD
ATOM     16  H22 UNL     1      -0.737   1.786  20.193  1.00  0.00     0.157 HD
ATOM     17  H21 UNL     1       0.095   0.450  19.366  1.00  0.00     0.157 HD
BRANCH  14  18
HETATM   18  N9  UNL     1      -0.743  -3.589  21.884  1.00  0.00    -0.374 N
HETATM   19  C13 UNL     1       0.288  -4.115  22.741  1.00  0.00     0.150 C
HETATM   20  C14 UNL     1      -1.491  -4.490  21.049  1.00  0.00     0.150 C
ENDBRANCH  14  18
ENDBRANCH   1   6
BRANCH   5  21
HETATM   21  O2  UNL     1       0.725  -1.171  17.586  1.00  0.00    -0.362 OA
ATOM     22  H2  UNL     1       0.147  -0.505  17.234  1.00  0.00     0.213 HD
ENDBRANCH   5  21
BRANCH   3  23
HETATM   23  N5  UNL     1       3.089  -3.459  18.625  1.00  0.00    -0.138 NA
BRANCH  23  24
HETATM   24  C6  UNL     1       3.030  -4.514  17.636  1.00  0.00     0.158 C
HETATM   25  C7  UNL     1       4.141  -5.495  17.939  1.00  0.00     0.094 C
HETATM   26  C8  UNL     1       5.179  -5.189  16.869  1.00  0.00     0.224 C
HETATM   27  C9  UNL     1       6.583  -5.222  17.400  1.00  0.00     0.078 C
HETATM   28  N6  UNL     1       4.826  -3.850  16.373  1.00  0.00    -0.013 N
HETATM   29  C10 UNL     1       3.390  -3.975  16.275  1.00  0.00     0.404 C
ATOM     30  H62 UNL     1       5.164  -3.068  16.934  1.00  0.00     0.283 HD
ATOM     31  H61 UNL     1       5.302  -3.555  15.520  1.00  0.00     0.283 HD
BRANCH  26  32
HETATM   32  O1  UNL     1       4.983  -6.061  15.825  1.00  0.00    -0.365 OA
ATOM     33  H1  UNL     1       4.054  -6.077  15.627  1.00  0.00     0.212 HD
ENDBRANCH  26  32
BRANCH  29  34
HETATM   34  N7  UNL     1       2.731  -2.722  16.053  1.00  0.00    -0.048 N
ATOM     35  H73 UNL     1       2.267  -2.690  15.145  1.00  0.00     0.276 HD
ATOM     36  H72 UNL     1       1.909  -2.613  16.645  1.00  0.00     0.276 HD
ATOM     37  H71 UNL     1       3.391  -1.953  16.172  1.00  0.00     0.276 HD
ENDBRANCH  29  34
ENDBRANCH  23  24
ENDBRANCH   3  23
TORSDOF 7
ENDMDL