MODEL 3
REMARK VINA RESULT: -6.818562396      0.664      1.027
REMARK  8 active torsions:
REMARK  status: ('A' for Active; 'I' for Inactive)
REMARK    1  A    between atoms: N1_2  and  C2_5
REMARK    2  A    between atoms: C3_6  and  N2_7
REMARK    3  A    between atoms: C4_11  and  C5_12
REMARK    4  A    between atoms: C5_12  and  O2_14
REMARK    5  A    between atoms: O2_14  and  C6_15
REMARK    6  A    between atoms: C6_15  and  O3_16
REMARK    7  A    between atoms: N3_18  and  N4_19
REMARK    8  A    between atoms: C11_29  and  N6_30
REMARK       I    between atoms: N6_30  and  C12_32
ROOT
HETATM    1  C2  UNL     1       3.290  -5.015  18.972  1.00  0.00     0.248 C
HETATM    2  C3  UNL     1       2.964  -6.017  17.932  1.00  0.00     0.245 C
HETATM    3  C4  UNL     1       3.827  -5.706  16.727  1.00  0.00     0.214 C
HETATM    4  N3  UNL     1       3.118  -4.976  15.719  1.00  0.00    -0.191 NA
HETATM    5  C8  UNL     1       2.916  -3.617  16.192  1.00  0.00     0.249 C
HETATM    6  O4  UNL     1       3.721  -3.323  17.284  1.00  0.00    -0.358 OA
HETATM    7  C9  UNL     1       3.033  -3.638  18.422  1.00  0.00     0.189 C
HETATM    8  C10 UNL     1       1.571  -3.390  18.162  1.00  0.00     0.256 C
HETATM    9  N5  UNL     1       1.180  -2.083  18.684  1.00  0.00    -0.020 N
ATOM     10  H51 UNL     1       1.950  -1.519  19.043  1.00  0.00     0.282 HD
ATOM     11  H52 UNL     1       0.658  -2.113  19.560  1.00  0.00     0.282 HD
HETATM   12  C11 UNL     1       0.445  -1.476  17.542  1.00  0.00     0.488 C
HETATM   13  N7  UNL     1       1.301  -1.868  16.463  1.00  0.00    -0.018 N
ATOM     14  H71 UNL     1       2.154  -1.313  16.391  1.00  0.00     0.282 HD
ATOM     15  H72 UNL     1       0.934  -1.640  15.539  1.00  0.00     0.282 HD
HETATM   16  C14 UNL     1       1.543  -3.307  16.667  1.00  0.00     0.268 C
ENDROOT
BRANCH   3  17
HETATM   17  C5  UNL     1       4.549  -6.905  16.207  1.00  0.00     0.282 C
HETATM   18  O1  UNL     1       5.617  -7.327  16.710  1.00  0.00    -0.263 OA
BRANCH  17  19
HETATM   19  O2  UNL     1       4.009  -7.559  15.137  1.00  0.00    -0.294 OA
BRANCH  19  20
HETATM   20  C6  UNL     1       3.728  -8.946  15.094  1.00  0.00     0.347 C
BRANCH  20  21
HETATM   21  O3  UNL     1       4.237  -9.412  13.875  1.00  0.00    -0.371 OA
HETATM   22  C7  UNL     1       5.569  -9.726  13.989  1.00  0.00     0.204 C
ENDBRANCH  20  21
ENDBRANCH  19  20
ENDBRANCH  17  19
ENDBRANCH   3  17
BRANCH   2  23
HETATM   23  N2  UNL     1       3.027  -7.401  18.345  1.00  0.00    -0.071 N
ATOM     24  H23 UNL     1       3.474  -7.469  19.260  1.00  0.00     0.274 HD
ATOM     25  H22 UNL     1       2.091  -7.737  18.574  1.00  0.00     0.274 HD
ATOM     26  H21 UNL     1       3.475  -8.042  17.691  1.00  0.00     0.274 HD
ENDBRANCH   2  23
BRANCH   4  27
HETATM   27  N4  UNL     1       1.884  -5.534  15.384  1.00  0.00    -0.360 NA
ATOM     28  H42 UNL     1       1.852  -6.499  15.712  1.00  0.00     0.171 HD
ATOM     29  H41 UNL     1       1.688  -5.528  14.383  1.00  0.00     0.171 HD
ENDBRANCH   4  27
BRANCH   1  30
HETATM   30  N1  UNL     1       2.676  -5.163  20.252  1.00  0.00    -0.070 N
HETATM   31  C1  UNL     1       3.249  -4.167  21.170  1.00  0.00     0.267 C
ATOM     32  H12 UNL     1       2.752  -6.114  20.613  1.00  0.00     0.277 HD
ATOM     33  H11 UNL     1       1.659  -5.110  20.205  1.00  0.00     0.277 HD
ENDBRANCH   1  30
BRANCH  12  34
HETATM   34  N6  UNL     1       0.448  -0.074  17.843  1.00  0.00    -0.311 N
HETATM   35  C12 UNL     1      -0.553   0.464  18.680  1.00  0.00     0.216 C
HETATM   36  C13 UNL     1      -0.564   1.920  19.004  1.00  0.00     0.117 C
HETATM   37  O5  UNL     1      -1.475  -0.267  19.187  1.00  0.00    -0.274 OA
ATOM     38  H6  UNL     1       1.170   0.532  17.453  1.00  0.00     0.166 HD
ENDBRANCH  12  34
TORSDOF 8
ENDMDL