MODEL 5
REMARK VINA RESULT: -7.484915546      2.449      7.745
REMARK  5 active torsions:
REMARK  status: ('A' for Active; 'I' for Inactive)
REMARK    1  A    between atoms: C1_4  and  C2_6
REMARK    2  A    between atoms: C3_7  and  C4_8
REMARK    3  A    between atoms: N3_9  and  N4_11
REMARK    4  A    between atoms: C6_13  and  C7_14
REMARK    5  A    between atoms: N10_31  and  N11_32
ROOT
HETATM    1  C2  UNL     1      -0.121  -1.953  18.642  1.00  0.00     0.114 A
HETATM    2  C3  UNL     1       0.785  -2.357  19.607  1.00  0.00     0.042 A
HETATM    3  C9  UNL     1       1.892  -3.122  19.174  1.00  0.00     0.078 A
HETATM    4  N8  UNL     1       2.775  -3.533  20.090  1.00  0.00    -0.296 N
ATOM      5  H8  UNL     1       2.627  -3.283  21.068  1.00  0.00     0.187 HD
HETATM    6  N9  UNL     1       3.819  -4.242  19.770  1.00  0.00    -0.266 N
ATOM      7  H9  UNL     1       4.473  -4.539  20.494  1.00  0.00     0.190 HD
HETATM    8  C10 UNL     1       4.038  -4.584  18.493  1.00  0.00     0.260 A
HETATM    9  O2  UNL     1       5.051  -5.266  18.217  1.00  0.00    -0.267 OA
HETATM   10  C11 UNL     1       3.180  -4.203  17.491  1.00  0.00     0.095 A
HETATM   11  C12 UNL     1       2.073  -3.447  17.853  1.00  0.00     0.068 A
HETATM   12  C13 UNL     1       1.176  -3.030  16.933  1.00  0.00     0.279 A
HETATM   13  O3  UNL     1       1.317  -3.310  15.709  1.00  0.00    -0.265 OA
HETATM   14  N10 UNL     1       0.115  -2.307  17.327  1.00  0.00    -0.222 N
ENDROOT
BRANCH   2  15
HETATM   15  C4  UNL     1       0.812  -1.863  20.967  1.00  0.00     0.124 C
HETATM   16  N3  UNL     1       0.400  -0.807  21.491  1.00  0.00    -0.296 N
ATOM     17  H3  UNL     1      -0.051  -0.132  20.873  1.00  0.00     0.187 HD
BRANCH  16  18
HETATM   18  N4  UNL     1       0.497  -0.461  22.837  1.00  0.00    -0.221 N
HETATM   19  C5  UNL     1      -0.233   0.719  23.261  1.00  0.00     0.181 C
HETATM   20  C6  UNL     1      -0.566   0.627  24.718  1.00  0.00     0.112 C
HETATM   21  C8  UNL     1      -0.546  -0.832  25.119  1.00  0.00     0.147 C
HETATM   22  N6  UNL     1       0.761  -1.421  24.937  1.00  0.00    -0.124 NA
HETATM   23  N7  UNL     1       1.268  -1.254  23.661  1.00  0.00    -0.013 NA
BRANCH  20  24
HETATM   24  C7  UNL     1       0.348   1.394  25.576  1.00  0.00     0.238 C
HETATM   25  N5  UNL     1       0.456   1.181  26.968  1.00  0.00    -0.062 NA
HETATM   26  O1  UNL     1       1.076   2.285  25.067  1.00  0.00    -0.276 OA
ENDBRANCH  20  24
ENDBRANCH  16  18
ENDBRANCH   2  15
BRANCH   1  27
HETATM   27  C1  UNL     1      -1.427  -1.420  18.943  1.00  0.00     0.140 C
HETATM   28  N1  UNL     1      -2.400  -2.029  19.394  1.00  0.00    -0.386 N
ATOM     29  H12 UNL     1      -3.324  -1.652  19.607  1.00  0.00     0.157 HD
ATOM     30  H11 UNL     1      -2.279  -3.042  19.389  1.00  0.00     0.157 HD
HETATM   31  N2  UNL     1      -1.600   0.029  18.949  1.00  0.00    -0.081 NA
ENDBRANCH   1  27
BRANCH  14  32
HETATM   32  N11 UNL     1      -0.802  -1.916  16.350  1.00  0.00    -0.335 N
ATOM     33 2H11 UNL     1      -1.709  -2.383  16.338  1.00  0.00     0.177 HD
ATOM     34 1H11 UNL     1      -0.541  -1.176  15.699  1.00  0.00     0.177 HD
ENDBRANCH  14  32
TORSDOF 5
ENDMDL