MODEL 3
REMARK VINA RESULT: -6.967924939      1.869      1.945
REMARK  10 active torsions:
REMARK  status: ('A' for Active; 'I' for Inactive)
REMARK    1  A    between atoms: N1_1  and  C1_4
REMARK    2  A    between atoms: C2_9  and  S1_10
REMARK    3  A    between atoms: S1_10  and  C3_11
REMARK    4  A    between atoms: C3_11  and  C4_12
REMARK       I    between atoms: C4_12  and  N4_14
REMARK    5  A    between atoms: C6_16  and  O2_17
REMARK    6  A    between atoms: C7_19  and  O3_20
REMARK    7  A    between atoms: O3_20  and  C8_21
REMARK    8  A    between atoms: C8_21  and  N5_23
REMARK    9  A    between atoms: N5_23  and  N6_25
REMARK   10  A    between atoms: N6_25  and  N7_26
ROOT
HETATM    1  C4  UNL     1       3.728  -4.217  17.646  1.00  0.00     0.245 C
HETATM    2  O1  UNL     1       3.858  -4.648  18.810  1.00  0.00    -0.271 OA
HETATM    3  N4  UNL     1       2.578  -3.463  17.249  1.00  0.00    -0.259 N
HETATM    4  C5  UNL     1       2.341  -2.924  15.925  1.00  0.00     0.183 C
HETATM    5  C6  UNL     1       0.829  -2.985  15.858  1.00  0.00     0.184 C
HETATM    6  C7  UNL     1       0.452  -2.651  17.284  1.00  0.00     0.274 C
HETATM    7  N8  UNL     1       1.526  -3.149  18.100  1.00  0.00    -0.101 NA
ENDROOT
BRANCH   1   8
HETATM    8  C3  UNL     1       4.805  -4.506  16.665  1.00  0.00     0.185 C
BRANCH   8   9
HETATM    9  S1  UNL     1       5.794  -5.905  17.250  1.00  0.00    -0.094 SA
BRANCH   9  10
HETATM   10  C2  UNL     1       5.784  -7.185  15.988  1.00  0.00     0.130 A
HETATM   11  N3  UNL     1       6.009  -7.095  14.689  1.00  0.00    -0.286 N
HETATM   12  N2  UNL     1       5.958  -8.120  13.947  1.00  0.00    -0.279 N
ATOM     13  H3  UNL     1       6.227  -6.187  14.278  1.00  0.00     0.188 HD
HETATM   14  C1  UNL     1       5.672  -9.301  14.501  1.00  0.00     0.159 A
ATOM     15  H2  UNL     1       6.132  -8.045  12.944  1.00  0.00     0.189 HD
HETATM   16  S3  UNL     1       5.478  -8.874  16.147  1.00  0.00    -0.027 SA
BRANCH  14  17
HETATM   17  N1  UNL     1       5.574 -10.465  13.904  1.00  0.00    -0.379 N
ATOM     18  H12 UNL     1       5.093 -10.732  13.045  1.00  0.00     0.158 HD
ATOM     19  H11 UNL     1       5.977 -11.354  14.200  1.00  0.00     0.158 HD
ENDBRANCH  14  17
ENDBRANCH   9  10
ENDBRANCH   8   9
ENDBRANCH   1   8
BRANCH   5  20
HETATM   20  O2  UNL     1       0.311  -2.038  14.980  1.00  0.00    -0.390 OA
ATOM     21  H2  UNL     1      -0.612  -1.878  15.139  1.00  0.00     0.210 HD
ENDBRANCH   5  20
BRANCH   6  22
HETATM   22  O3  UNL     1       0.311  -1.235  17.397  1.00  0.00    -0.299 OA
BRANCH  22  23
HETATM   23  C8  UNL     1      -0.776  -0.696  18.071  1.00  0.00     0.229 C
HETATM   24  S2  UNL     1      -1.781  -1.745  18.833  1.00  0.00    -0.032 SA
BRANCH  23  25
HETATM   25  N5  UNL     1      -1.044   0.694  18.124  1.00  0.00    -0.255 N
ATOM     26  H5  UNL     1      -2.015   0.996  18.049  1.00  0.00     0.187 HD
BRANCH  25  27
HETATM   27  N6  UNL     1      -0.071   1.668  18.273  1.00  0.00    -0.027 NA
BRANCH  27  28
HETATM   28  N7  UNL     1      -0.431   2.615  19.206  1.00  0.00    -0.329 N
ATOM     29  H72 UNL     1      -0.679   3.574  18.962  1.00  0.00     0.174 HD
ATOM     30  H71 UNL     1      -0.416   2.239  20.155  1.00  0.00     0.174 HD
ENDBRANCH  27  28
ENDBRANCH  25  27
ENDBRANCH  23  25
ENDBRANCH  22  23
ENDBRANCH   6  22
TORSDOF 10
ENDMDL