MODEL 5
REMARK VINA RESULT: -7.328271906      4.005      6.599
REMARK  9 active torsions:
REMARK  status: ('A' for Active; 'I' for Inactive)
REMARK    1  A    between atoms: N1_1  and  C1_4
REMARK    2  A    between atoms: C2_7  and  N3_8
REMARK    3  A    between atoms: N4_11  and  C3_12
REMARK    4  A    between atoms: C5_14  and  O1_15
REMARK    5  A    between atoms: C5_14  and  C6_17
REMARK    6  A    between atoms: C7_20  and  C8_21
REMARK    7  A    between atoms: C8_21  and  O5_23
REMARK    8  A    between atoms: O5_23  and  N5_24
REMARK    9  A    between atoms: N7_31  and  O7_32
ROOT
HETATM    1  C3  UNL     1       2.364  -9.650  15.951  1.00  0.00     0.203 C
HETATM    2  C4  UNL     1       2.807  -9.518  17.371  1.00  0.00     0.086 C
HETATM    3  C5  UNL     1       2.945  -7.979  17.537  1.00  0.00     0.167 C
HETATM    4  C7  UNL     1       3.047  -7.442  16.142  1.00  0.00     0.204 C
HETATM    5  C12 UNL     1       3.319  -8.657  15.315  1.00  0.00     0.169 C
HETATM    6  O6  UNL     1       4.079  -8.770  14.420  1.00  0.00    -0.295 OA
ENDROOT
BRANCH   1   7
HETATM    7  N4  UNL     1       2.409 -10.931  15.339  1.00  0.00    -0.070 N
HETATM    8  C2  UNL     1       3.305 -11.901  15.522  1.00  0.00     0.710 A
HETATM    9  N2  UNL     1       2.888 -12.931  14.686  1.00  0.00    -0.018 N
HETATM   10  C1  UNL     1       1.786 -12.531  14.061  1.00  0.00     0.733 A
ATOM     11  H2  UNL     1       3.348 -13.835  14.572  1.00  0.00     0.203 HD
HETATM   12  N7  UNL     1       1.462 -11.300  14.442  1.00  0.00     0.034 N
BRANCH   8  13
HETATM   13  N3  UNL     1       4.347 -12.026  16.257  1.00  0.00    -0.233 N
ATOM     14  H32 UNL     1       4.569 -12.578  17.085  1.00  0.00     0.174 HD
ATOM     15  H31 UNL     1       5.202 -11.510  16.051  1.00  0.00     0.174 HD
ENDBRANCH   8  13
BRANCH  10  16
HETATM   16  N1  UNL     1       1.156 -13.288  13.205  1.00  0.00    -0.231 N
ATOM     17  H12 UNL     1       1.563 -13.964  12.559  1.00  0.00     0.174 HD
ATOM     18  H11 UNL     1       0.142 -13.267  13.102  1.00  0.00     0.174 HD
ENDBRANCH  10  16
BRANCH  12  19
HETATM   19  O7  UNL     1       0.371 -10.599  13.999  1.00  0.00    -0.254 OA
ATOM     20  H7  UNL     1       0.406  -9.784  13.511  1.00  0.00     0.247 HD
ENDBRANCH  12  19
ENDBRANCH   1   7
BRANCH   3  21
HETATM   21  O1  UNL     1       1.845  -7.474  18.198  1.00  0.00    -0.377 OA
ATOM     22  H1  UNL     1       1.204  -7.161  17.571  1.00  0.00     0.211 HD
ENDBRANCH   3  21
BRANCH   3  23
HETATM   23  C6  UNL     1       4.142  -7.742  18.377  1.00  0.00     0.210 C
HETATM   24  O2  UNL     1       4.097  -6.856  19.280  1.00  0.00    -0.646 OA
HETATM   25  O3  UNL     1       5.338  -8.433  18.247  1.00  0.00    -0.646 OA
ENDBRANCH   3  23
BRANCH   4  26
HETATM   26  C8  UNL     1       3.937  -6.321  15.927  1.00  0.00     0.292 C
HETATM   27  O4  UNL     1       5.108  -6.480  15.557  1.00  0.00    -0.263 OA
BRANCH  26  28
HETATM   28  O5  UNL     1       3.542  -4.985  16.124  1.00  0.00    -0.207 OA
BRANCH  28  29
HETATM   29  N5  UNL     1       2.271  -4.680  16.551  1.00  0.00    -0.100 NA
HETATM   30  C9  UNL     1       1.687  -3.610  15.815  1.00  0.00     0.143 C
HETATM   31  C10 UNL     1       1.079  -2.641  16.795  1.00  0.00     0.035 C
HETATM   32  C11 UNL     1       1.204  -3.379  18.101  1.00  0.00     0.132 C
HETATM   33  N6  UNL     1       2.187  -4.414  17.896  1.00  0.00    -0.139 NA
ENDBRANCH  28  29
ENDBRANCH  26  28
ENDBRANCH   4  26
TORSDOF 9
ENDMDL