MODEL 5
REMARK VINA RESULT: -7.434375781      1.381      1.566
REMARK  9 active torsions:
REMARK  status: ('A' for Active; 'I' for Inactive)
REMARK    1  A    between atoms: N1_1  and  N2_4
REMARK    2  A    between atoms: N2_4  and  C1_6
REMARK    3  A    between atoms: C2_11  and  O1_12
REMARK    4  A    between atoms: C3_14  and  N5_15
REMARK    5  A    between atoms: N5_15  and  C4_17
REMARK    6  A    between atoms: C5_20  and  O2_21
REMARK    7  A    between atoms: C6_23  and  C7_24
REMARK    8  A    between atoms: N7_25  and  C8_27
REMARK    9  A    between atoms: C8_27  and  C9_28
ROOT
HETATM    1  C4  UNL     1       4.138  -6.551  16.974  1.00  0.00     0.178 C
HETATM    2  N6  UNL     1       3.077  -6.058  16.279  1.00  0.00    -0.318 N
ATOM      3  H6  UNL     1       2.756  -6.628  15.497  1.00  0.00     0.169 HD
HETATM    4  C5  UNL     1       2.388  -4.904  16.489  1.00  0.00     0.159 C
HETATM    5  C6  UNL     1       2.524  -4.012  17.536  1.00  0.00     0.098 C
HETATM    6  C11 UNL     1       3.437  -4.055  18.578  1.00  0.00     0.264 C
HETATM    7  O4  UNL     1       3.220  -3.252  19.519  1.00  0.00    -0.267 OA
HETATM    8  N8  UNL     1       4.533  -4.843  18.723  1.00  0.00    -0.286 N
ATOM      9  H8  UNL     1       5.135  -4.664  19.527  1.00  0.00     0.172 HD
HETATM   10  C12 UNL     1       4.897  -5.858  17.881  1.00  0.00     0.292 C
HETATM   11  O5  UNL     1       6.092  -6.221  17.932  1.00  0.00    -0.264 OA
ENDROOT
BRANCH   1  12
HETATM   12  N5  UNL     1       4.432  -7.746  16.757  1.00  0.00    -0.320 N
ATOM     13  H5  UNL     1       4.512  -8.309  17.603  1.00  0.00     0.169 HD
BRANCH  12  14
HETATM   14  C3  UNL     1       4.672  -8.454  15.588  1.00  0.00     0.175 A
HETATM   15  C2  UNL     1       5.776  -8.197  14.804  1.00  0.00     0.201 A
HETATM   16  N4  UNL     1       6.008  -8.879  13.670  1.00  0.00    -0.263 N
HETATM   17  N3  UNL     1       5.145  -9.813  13.317  1.00  0.00    -0.129 N
ATOM     18  H4  UNL     1       6.828  -8.680  13.098  1.00  0.00     0.189 HD
HETATM   19  C1  UNL     1       4.050 -10.113  14.036  1.00  0.00     0.712 A
ATOM     20  H3  UNL     1       5.318 -10.333  12.457  1.00  0.00     0.205 HD
HETATM   21  N9  UNL     1       3.837  -9.421  15.165  1.00  0.00    -0.170 N
ATOM     22  H9  UNL     1       3.010  -9.635  15.723  1.00  0.00     0.186 HD
BRANCH  15  23
HETATM   23  O1  UNL     1       6.715  -7.214  15.144  1.00  0.00    -0.342 OA
ATOM     24  H1  UNL     1       7.110  -7.286  16.005  1.00  0.00     0.219 HD
ENDBRANCH  15  23
BRANCH  19  25
HETATM   25  N2  UNL     1       3.220 -11.049  13.645  1.00  0.00    -0.137 N
ATOM     26  H2  UNL     1       2.254 -11.055  13.973  1.00  0.00     0.205 HD
BRANCH  25  27
HETATM   27  N1  UNL     1       3.679 -12.039  12.772  1.00  0.00    -0.331 N
ATOM     28  H12 UNL     1       3.006 -12.581  12.229  1.00  0.00     0.177 HD
ATOM     29  H11 UNL     1       4.682 -12.203  12.694  1.00  0.00     0.177 HD
ENDBRANCH  25  27
ENDBRANCH  19  25
ENDBRANCH  12  14
ENDBRANCH   1  12
BRANCH   4  30
HETATM   30  O2  UNL     1       1.437  -4.598  15.526  1.00  0.00    -0.345 OA
ATOM     31  H2  UNL     1       0.612  -4.267  15.861  1.00  0.00     0.219 HD
ENDBRANCH   4  30
BRANCH   5  32
HETATM   32  C7  UNL     1       1.610  -2.879  17.575  1.00  0.00     0.104 C
HETATM   33  N7  UNL     1       0.425  -2.962  18.083  1.00  0.00    -0.395 N
ATOM     34  H7  UNL     1       0.122  -3.856  18.469  1.00  0.00     0.159 HD
BRANCH  33  35
HETATM   35  C8  UNL     1      -0.489  -1.846  18.128  1.00  0.00     0.153 C
BRANCH  35  36
HETATM   36  C9  UNL     1       0.172  -0.636  18.763  1.00  0.00     0.163 A
HETATM   37  C10 UNL     1      -0.629   0.612  18.871  1.00  0.00     0.201 A
HETATM   38  O3  UNL     1       0.447   0.424  17.923  1.00  0.00    -0.380 OA
ENDBRANCH  35  36
ENDBRANCH  33  35
ENDBRANCH   5  32
TORSDOF 9
ENDMDL