MODEL 5
REMARK VINA RESULT: -7.249001176      5.340      8.522
REMARK  10 active torsions:
REMARK  status: ('A' for Active; 'I' for Inactive)
REMARK    1  A    between atoms: C3_4  and  O2_5
REMARK    2  A    between atoms: O2_5  and  C4_6
REMARK    3  A    between atoms: C4_6  and  C5_7
REMARK    4  A    between atoms: C5_7  and  O3_8
REMARK    5  A    between atoms: C6_10  and  N1_11
REMARK    6  A    between atoms: C8_17  and  N2_18
REMARK    7  A    between atoms: C9_22  and  C10_23
REMARK    8  A    between atoms: C10_23  and  C11_24
REMARK    9  A    between atoms: C13_28  and  N4_29
REMARK   10  A    between atoms: C14_35  and  O7_36
ROOT
HETATM    1  C5  UNL     1      -0.051  -3.226  19.837  1.00  0.00     0.137 C
HETATM    2  C6  UNL     1       1.411  -3.089  19.893  1.00  0.00     0.248 C
HETATM    3  C7  UNL     1       1.996  -3.680  18.605  1.00  0.00     0.207 C
HETATM    4  O4  UNL     1       1.017  -3.978  17.655  1.00  0.00    -0.354 OA
HETATM    5  C8  UNL     1       0.258  -2.776  17.409  1.00  0.00     0.352 C
HETATM    6  C9  UNL     1      -0.694  -2.731  18.534  1.00  0.00     0.018 C
ENDROOT
BRANCH   1   7
HETATM    7  C4  UNL     1      -0.898  -3.116  21.031  1.00  0.00     0.218 C
BRANCH   7   8
HETATM    8  O2  UNL     1      -1.199  -2.027  21.681  1.00  0.00    -0.336 OA
BRANCH   8   9
HETATM    9  C3  UNL     1      -0.604  -1.355  22.622  1.00  0.00     0.415 C
HETATM   10  O1  UNL     1      -1.428  -0.540  23.431  1.00  0.00    -0.329 OA
HETATM   11  C2  UNL     1      -0.481  -0.173  24.388  1.00  0.00     0.178 C
HETATM   12  C1  UNL     1      -0.881   1.036  25.177  1.00  0.00     0.045 C
HETATM   13  C14 UNL     1       0.723   0.105  23.490  1.00  0.00     0.291 C
HETATM   14  O6  UNL     1       0.328  -0.385  22.222  1.00  0.00    -0.306 OA
BRANCH  13  15
HETATM   15  O7  UNL     1       1.058   1.434  23.447  1.00  0.00    -0.368 OA
ATOM     16  H7  UNL     1       1.980   1.587  23.613  1.00  0.00     0.212 HD
ENDBRANCH  13  15
ENDBRANCH   8   9
ENDBRANCH   7   8
ENDBRANCH   1   7
BRANCH   1  17
HETATM   17  O3  UNL     1      -0.128  -4.701  19.591  1.00  0.00    -0.381 OA
ATOM     18  H3  UNL     1       0.393  -5.021  20.318  1.00  0.00     0.211 HD
ENDBRANCH   1  17
BRANCH   2  19
HETATM   19  N1  UNL     1       2.047  -1.887  20.204  1.00  0.00    -0.070 N
ATOM     20  H13 UNL     1       2.307  -1.442  19.324  1.00  0.00     0.274 HD
ATOM     21  H12 UNL     1       1.337  -1.251  20.569  1.00  0.00     0.274 HD
ATOM     22  H11 UNL     1       2.855  -1.833  20.826  1.00  0.00     0.274 HD
ENDBRANCH   2  19
BRANCH   6  23
HETATM   23  C10 UNL     1      -1.724  -1.743  18.666  1.00  0.00     0.066 C
BRANCH  23  24
HETATM   24  C11 UNL     1      -1.747  -0.452  18.753  1.00  0.00     0.140 C
HETATM   25  N3  UNL     1      -2.254   0.454  19.733  1.00  0.00    -0.367 N
HETATM   26  C12 UNL     1      -1.301   1.584  19.801  1.00  0.00     0.183 C
ATOM     27  H3  UNL     1      -3.107   0.344  20.279  1.00  0.00     0.161 HD
HETATM   28  C13 UNL     1      -0.973   1.714  18.337  1.00  0.00     0.344 C
HETATM   29  O5  UNL     1      -1.215   0.467  17.793  1.00  0.00    -0.301 OA
BRANCH  28  30
HETATM   30  N4  UNL     1      -1.836   2.755  17.805  1.00  0.00    -0.051 N
ATOM     31  H43 UNL     1      -2.617   2.390  17.260  1.00  0.00     0.277 HD
ATOM     32  H42 UNL     1      -2.387   3.226  18.522  1.00  0.00     0.277 HD
ATOM     33  H41 UNL     1      -1.238   3.391  17.275  1.00  0.00     0.277 HD
ENDBRANCH  28  30
ENDBRANCH  23  24
ENDBRANCH   6  23
BRANCH   5  34
HETATM   34  N2  UNL     1       1.207  -1.721  17.269  1.00  0.00    -0.049 N
ATOM     35  H23 UNL     1       2.128  -2.042  16.972  1.00  0.00     0.277 HD
ATOM     36  H22 UNL     1       1.021  -1.113  16.470  1.00  0.00     0.277 HD
ATOM     37  H21 UNL     1       1.220  -1.224  18.159  1.00  0.00     0.277 HD
ENDBRANCH   5  34
TORSDOF 10
ENDMDL