MODEL 5
REMARK VINA RESULT: -6.802674938      8.023     10.638
REMARK  7 active torsions:
REMARK  status: ('A' for Active; 'I' for Inactive)
REMARK    1  A    between atoms: C2_2  and  O1_3
REMARK    2  A    between atoms: C4_6  and  N1_7
REMARK    3  A    between atoms: N2_12  and  C6_13
REMARK    4  A    between atoms: C6_13  and  N3_14
REMARK    5  A    between atoms: C8_23  and  N7_24
REMARK    6  A    between atoms: N8_26  and  N9_28
REMARK    7  A    between atoms: C10_30  and  N10_31
ROOT
HETATM    1  N3  UNL     1       4.256  -9.179  16.040  1.00  0.00    -0.065 N
HETATM    2  N4  UNL     1       5.369  -9.875  15.976  1.00  0.00    -0.110 N
ATOM      3  H4  UNL     1       5.979 -10.112  16.759  1.00  0.00     0.207 HD
HETATM    4  C7  UNL     1       5.560 -10.220  14.683  1.00  0.00     0.706 A
HETATM    5  N5  UNL     1       6.561 -10.911  14.254  1.00  0.00    -0.233 N
ATOM      6  H51 UNL     1       6.705 -11.171  13.279  1.00  0.00     0.174 HD
ATOM      7  H52 UNL     1       7.338 -11.295  14.794  1.00  0.00     0.174 HD
HETATM    8  N6  UNL     1       4.535  -9.714  13.973  1.00  0.00    -0.018 N
ATOM      9  H6  UNL     1       4.410  -9.814  12.966  1.00  0.00     0.203 HD
HETATM   10  C8  UNL     1       3.697  -9.052  14.806  1.00  0.00     0.735 A
ENDROOT
BRANCH  10  11
HETATM   11  N7  UNL     1       2.491  -8.367  14.488  1.00  0.00    -0.115 N
HETATM   12  N8  UNL     1       1.517  -9.073  14.082  1.00  0.00    -0.224 N
ATOM     13  H8  UNL     1       0.643  -8.603  13.847  1.00  0.00     0.209 HD
ATOM     14  H7  UNL     1       2.413  -7.355  14.581  1.00  0.00     0.207 HD
BRANCH  12  15
HETATM   15  N9  UNL     1       1.586 -10.467  13.940  1.00  0.00    -0.246 N
HETATM   16  C9  UNL     1       1.768 -11.248  12.737  1.00  0.00     0.207 C
HETATM   17  C10 UNL     1       2.123 -12.611  13.276  1.00  0.00     0.303 C
HETATM   18  N11 UNL     1       1.774 -12.578  14.679  1.00  0.00    -0.334 N
HETATM   19  C11 UNL     1       1.480 -11.367  15.016  1.00  0.00     0.208 C
ATOM     20  H11 UNL     1       1.763 -13.383  15.304  1.00  0.00     0.164 HD
HETATM   21  N12 UNL     1       1.091 -11.030  16.363  1.00  0.00    -0.062 NA
BRANCH  17  22
HETATM   22  N10 UNL     1       1.348 -13.663  12.637  1.00  0.00    -0.057 N
ATOM     23 3H10 UNL     1       0.959 -13.351  11.748  1.00  0.00     0.276 HD
ATOM     24 2H10 UNL     1       1.950 -14.412  12.294  1.00  0.00     0.276 HD
ATOM     25 1H10 UNL     1       0.621 -14.025  13.254  1.00  0.00     0.276 HD
ENDBRANCH  17  22
ENDBRANCH  12  15
ENDBRANCH  10  11
BRANCH   1  26
HETATM   26  C6  UNL     1       3.643  -8.595  17.213  1.00  0.00     0.228 C
BRANCH  26  27
HETATM   27  N2  UNL     1       3.829  -7.225  17.291  1.00  0.00    -0.350 N
HETATM   28  C5  UNL     1       2.801  -6.378  17.690  1.00  0.00     0.097 C
HETATM   29  C4  UNL     1       3.268  -5.573  18.892  1.00  0.00     0.224 C
HETATM   30  C3  UNL     1       4.477  -4.781  18.584  1.00  0.00     0.077 C
HETATM   31  C2  UNL     1       5.379  -5.316  17.547  1.00  0.00     0.073 C
HETATM   32  C1  UNL     1       5.337  -4.345  16.356  1.00  0.00     0.047 C
HETATM   33  C12 UNL     1       5.106  -6.680  17.039  1.00  0.00     0.166 C
BRANCH  29  34
HETATM   34  N1  UNL     1       3.495  -6.516  19.974  1.00  0.00    -0.070 N
ATOM     35  H13 UNL     1       3.928  -7.375  19.631  1.00  0.00     0.275 HD
ATOM     36  H12 UNL     1       4.239  -6.196  20.593  1.00  0.00     0.275 HD
ATOM     37  H11 UNL     1       2.641  -6.715  20.494  1.00  0.00     0.275 HD
ENDBRANCH  29  34
BRANCH  31  38
HETATM   38  O1  UNL     1       6.723  -5.281  17.976  1.00  0.00    -0.388 OA
ATOM     39  H1  UNL     1       7.205  -5.693  17.269  1.00  0.00     0.210 HD
ENDBRANCH  31  38
ENDBRANCH  26  27
ENDBRANCH   1  26
TORSDOF 7
ENDMDL