MODEL 4
REMARK VINA RESULT: -7.853463684      8.374     12.121
REMARK  6 active torsions:
REMARK  status: ('A' for Active; 'I' for Inactive)
REMARK    1  A    between atoms: C5_11  and  C6_12
REMARK    2  A    between atoms: C6_12  and  N4_13
REMARK       I    between atoms: N4_13  and  C7_15
REMARK       I    between atoms: C7_15  and  N5_17
REMARK    3  A    between atoms: C8_20  and  C9_21
REMARK    4  A    between atoms: C10_31  and  N12_32
REMARK    5  A    between atoms: N12_32  and  N13_34
REMARK    6  A    between atoms: N13_34  and  O2_36
ROOT
HETATM    1  N4  UNL     1      -2.080  -0.067  22.429  1.00  0.00    -0.315 N
ATOM      2  H4  UNL     1      -3.021   0.319  22.514  1.00  0.00     0.170 HD
HETATM    3  C7  UNL     1      -1.202   0.106  23.534  1.00  0.00     0.360 C
HETATM    4  O1  UNL     1      -0.024  -0.352  23.456  1.00  0.00    -0.244 OA
HETATM    5  N5  UNL     1      -1.619   0.771  24.699  1.00  0.00    -0.028 N
HETATM    6  N6  UNL     1      -2.794   1.309  24.963  1.00  0.00    -0.256 N
ATOM      7  H6  UNL     1      -3.581   1.304  24.314  1.00  0.00     0.190 HD
HETATM    8  C8  UNL     1      -2.835   1.861  26.178  1.00  0.00     0.183 A
HETATM    9  N11 UNL     1      -1.623   1.665  26.715  1.00  0.00    -0.168 N
ATOM     10  H11 UNL     1      -1.320   1.966  27.641  1.00  0.00     0.186 HD
HETATM   11  C10 UNL     1      -0.878   0.998  25.814  1.00  0.00     0.725 A
ENDROOT
BRANCH  11  12
HETATM   12  N12 UNL     1       0.341   0.644  26.003  1.00  0.00    -0.110 N
ATOM     13  H12 UNL     1       0.541  -0.313  26.291  1.00  0.00     0.207 HD
BRANCH  12  14
HETATM   14  N13 UNL     1       1.395   1.530  25.827  1.00  0.00    -0.196 N
ATOM     15  H13 UNL     1       2.296   1.374  26.279  1.00  0.00     0.216 HD
BRANCH  14  16
HETATM   16  O2  UNL     1       1.204   2.532  25.092  1.00  0.00    -0.274 OA
ATOM     17  H2  UNL     1       1.801   2.671  24.366  1.00  0.00     0.246 HD
ENDBRANCH  14  16
ENDBRANCH  12  14
ENDBRANCH  11  12
BRANCH   1  18
HETATM   18  C6  UNL     1      -1.761  -0.727  21.230  1.00  0.00     0.125 C
BRANCH  18  19
HETATM   19  C5  UNL     1      -1.342   0.038  20.064  1.00  0.00     0.089 A
HETATM   20  C2  UNL     1      -0.154  -0.314  19.391  1.00  0.00     0.051 A
HETATM   21  C1  UNL     1       0.771  -1.440  19.682  1.00  0.00     0.071 C
HETATM   22  N1  UNL     1       0.021   0.565  18.402  1.00  0.00    -0.194 N
HETATM   23  C3  UNL     1      -1.001   1.430  18.444  1.00  0.00     0.678 A
ATOM     24  H1  UNL     1       0.792   0.575  17.736  1.00  0.00     0.184 HD
HETATM   25  N2  UNL     1      -1.147   2.415  17.624  1.00  0.00    -0.234 N
HETATM   26  N3  UNL     1      -1.837   1.107  19.465  1.00  0.00    -0.185 N
ATOM     27  H22 UNL     1      -0.518   2.658  16.858  1.00  0.00     0.174 HD
ATOM     28  H21 UNL     1      -1.924   3.074  17.656  1.00  0.00     0.174 HD
HETATM   29  C4  UNL     1      -3.018   1.926  19.758  1.00  0.00     0.175 C
ENDBRANCH  18  19
ENDBRANCH   1  18
BRANCH   8  30
HETATM   30  C9  UNL     1      -3.968   2.531  26.779  1.00  0.00     0.181 A
HETATM   31  N7  UNL     1      -4.378   3.787  26.437  1.00  0.00    -0.268 N
HETATM   32  N8  UNL     1      -5.426   4.084  27.171  1.00  0.00    -0.225 N
ATOM     33  H7  UNL     1      -3.948   4.389  25.735  1.00  0.00     0.190 HD
HETATM   34  N9  UNL     1      -5.684   3.044  27.970  1.00  0.00    -0.005 NA
ATOM     35  H8  UNL     1      -5.951   4.958  27.138  1.00  0.00     0.205 HD
HETATM   36  N10 UNL     1      -4.798   2.089  27.736  1.00  0.00    -0.264 N
ATOM     37  H10 UNL     1      -4.754   1.182  28.200  1.00  0.00     0.186 HD
ENDBRANCH   8  30
TORSDOF 6
ENDMDL