MODEL 4
REMARK VINA RESULT: -7.019166508      1.967      4.109
REMARK  6 active torsions:
REMARK  status: ('A' for Active; 'I' for Inactive)
REMARK    1  A    between atoms: C5_15  and  O1_16
REMARK    2  A    between atoms: O1_16  and  C6_17
REMARK    3  A    between atoms: C6_17  and  C7_18
REMARK    4  A    between atoms: C7_18  and  N5_19
REMARK    5  A    between atoms: C12_27  and  N7_28
REMARK    6  A    between atoms: N10_36  and  O3_37
ROOT
HETATM    1  N1  UNL     1      -1.242  -3.015  19.834  1.00  0.00    -0.383 N
ATOM      2  H11 UNL     1      -1.145  -3.956  20.216  1.00  0.00     0.157 HD
ATOM      3  H12 UNL     1      -1.699  -2.644  19.001  1.00  0.00     0.157 HD
HETATM    4  C1  UNL     1      -0.667  -2.132  20.559  1.00  0.00     0.148 C
HETATM    5  C2  UNL     1      -0.807  -0.793  20.015  1.00  0.00     0.106 A
HETATM    6  C3  UNL     1      -0.621   0.461  20.599  1.00  0.00     0.138 A
HETATM    7  N2  UNL     1      -0.817   1.550  19.829  1.00  0.00    -0.176 N
ATOM      8  H2  UNL     1      -0.689   2.479  20.232  1.00  0.00     0.186 HD
HETATM    9  C4  UNL     1      -1.183   1.434  18.532  1.00  0.00     0.679 A
HETATM   10  N3  UNL     1      -1.368   2.514  17.807  1.00  0.00    -0.234 N
ATOM     11  H31 UNL     1      -1.643   2.425  16.830  1.00  0.00     0.174 HD
ATOM     12  H32 UNL     1      -1.231   3.430  18.234  1.00  0.00     0.174 HD
HETATM   13  N4  UNL     1      -1.361   0.230  17.972  1.00  0.00    -0.170 N
ATOM     14  H4  UNL     1      -1.638   0.163  16.992  1.00  0.00     0.186 HD
HETATM   15  C5  UNL     1      -1.176  -0.904  18.703  1.00  0.00     0.175 A
HETATM   16  N6  UNL     1      -0.255   0.904  21.900  1.00  0.00    -0.332 N
ATOM     17  H6  UNL     1       0.137   1.846  21.899  1.00  0.00     0.165 HD
HETATM   18  C12 UNL     1      -0.310   0.325  23.221  1.00  0.00     0.390 C
HETATM   19  N8  UNL     1       0.459  -0.883  23.381  1.00  0.00    -0.319 N
ATOM     20  H8  UNL     1       1.088  -0.780  24.178  1.00  0.00     0.166 HD
HETATM   21  C13 UNL     1       0.621  -2.046  22.859  1.00  0.00     0.219 C
HETATM   22  N9  UNL     1       1.592  -2.860  23.496  1.00  0.00    -0.061 NA
HETATM   23  N10 UNL     1      -0.019  -2.659  21.740  1.00  0.00    -0.177 N
ENDROOT
BRANCH  15  24
HETATM   24  O1  UNL     1      -1.349  -2.181  18.166  1.00  0.00    -0.329 OA
BRANCH  24  25
HETATM   25  C6  UNL     1      -0.631  -2.399  16.936  1.00  0.00     0.222 C
BRANCH  25  26
HETATM   26  C7  UNL     1       0.822  -2.013  17.031  1.00  0.00     0.095 C
BRANCH  26  27
HETATM   27  N5  UNL     1       1.606  -3.177  17.134  1.00  0.00    -0.348 N
HETATM   28  C8  UNL     1       2.084  -3.791  15.970  1.00  0.00     0.094 C
HETATM   29  C9  UNL     1       3.152  -4.833  16.199  1.00  0.00     0.213 C
HETATM   30  O2  UNL     1       3.962  -4.367  17.241  1.00  0.00    -0.381 OA
HETATM   31  C10 UNL     1       3.241  -4.492  18.407  1.00  0.00     0.213 C
HETATM   32  C11 UNL     1       1.988  -3.654  18.393  1.00  0.00     0.094 C
ENDBRANCH  26  27
ENDBRANCH  25  26
ENDBRANCH  24  25
ENDBRANCH  15  24
BRANCH  23  33
HETATM   33  O3  UNL     1      -0.003  -3.993  21.817  1.00  0.00    -0.279 OA
ATOM     34  H3  UNL     1      -0.847  -4.390  21.998  1.00  0.00     0.245 HD
ENDBRANCH  23  33
BRANCH  18  35
HETATM   35  N7  UNL     1      -1.704  -0.028  23.528  1.00  0.00    -0.041 N
ATOM     36  H73 UNL     1      -2.072  -0.743  22.901  1.00  0.00     0.279 HD
ATOM     37  H72 UNL     1      -1.790  -0.549  24.402  1.00  0.00     0.279 HD
ATOM     38  H71 UNL     1      -2.269   0.821  23.524  1.00  0.00     0.279 HD
ENDBRANCH  18  35
TORSDOF 6
ENDMDL