MODEL 4
REMARK VINA RESULT: -7.342210036      1.044      1.526
REMARK  9 active torsions:
REMARK  status: ('A' for Active; 'I' for Inactive)
REMARK    1  A    between atoms: N1_1  and  C1_5
REMARK    2  A    between atoms: C5_12  and  N3_13
REMARK    3  A    between atoms: N3_13  and  C6_15
REMARK    4  A    between atoms: C6_15  and  C7_16
REMARK    5  A    between atoms: C7_16  and  N4_17
REMARK    6  A    between atoms: N5_20  and  N6_21
REMARK    7  A    between atoms: N6_21  and  O2_22
REMARK    8  A    between atoms: N7_24  and  O3_26
REMARK    9  A    between atoms: N9_33  and  O4_34
ROOT
HETATM    1  C1  UNL     1       2.770 -13.054  13.051  1.00  0.00     0.425 C
HETATM    2  O1  UNL     1       2.657 -12.883  14.430  1.00  0.00    -0.344 OA
HETATM    3  C2  UNL     1       2.147 -11.601  14.624  1.00  0.00     0.203 C
HETATM    4  C3  UNL     1       2.859 -10.810  13.560  1.00  0.00     0.097 C
HETATM    5  C4  UNL     1       4.235 -10.401  14.032  1.00  0.00     0.169 C
HETATM    6  N2  UNL     1       4.142  -9.343  15.009  1.00  0.00    -0.225 N
ATOM      7  H2  UNL     1       4.957  -9.168  15.597  1.00  0.00     0.177 HD
HETATM    8  C5  UNL     1       3.115  -8.613  15.190  1.00  0.00     0.669 C
HETATM    9  N8  UNL     1       1.947  -8.800  14.413  1.00  0.00    -0.225 N
ATOM     10  H8  UNL     1       1.043  -8.423  14.700  1.00  0.00     0.177 HD
HETATM   11  C12 UNL     1       2.108  -9.556  13.182  1.00  0.00     0.169 C
HETATM   12  N9  UNL     1       2.934 -11.752  12.464  1.00  0.00    -0.131 NA
ENDROOT
BRANCH   8  13
HETATM   13  N3  UNL     1       3.145  -7.607  16.180  1.00  0.00    -0.225 N
ATOM     14  H3  UNL     1       2.762  -7.833  17.098  1.00  0.00     0.177 HD
BRANCH  13  15
HETATM   15  C6  UNL     1       3.678  -6.283  15.985  1.00  0.00     0.168 C
BRANCH  15  16
HETATM   16  C7  UNL     1       2.577  -5.254  15.978  1.00  0.00     0.292 C
BRANCH  16  17
HETATM   17  N4  UNL     1       3.010  -4.045  16.593  1.00  0.00     0.093 N
HETATM   18  C8  UNL     1       2.818  -4.033  18.026  1.00  0.00     0.294 C
HETATM   19  C9  UNL     1       1.458  -3.542  18.431  1.00  0.00     0.177 C
HETATM   20  N5  UNL     1       0.947  -2.456  17.658  1.00  0.00    -0.282 N
HETATM   21  C10 UNL     1       1.107  -2.555  16.197  1.00  0.00     0.177 C
HETATM   22  C11 UNL     1       2.572  -2.826  15.972  1.00  0.00     0.294 C
BRANCH  20  23
HETATM   23  N6  UNL     1       0.311  -1.319  18.165  1.00  0.00    -0.077 N
HETATM   24  N7  UNL     1       0.749  -0.168  17.834  1.00  0.00    -0.168 N
ATOM     25  H7  UNL     1       1.551  -0.104  17.207  1.00  0.00     0.220 HD
BRANCH  23  26
HETATM   26  O2  UNL     1      -0.765  -1.434  19.006  1.00  0.00    -0.252 OA
ATOM     27  H2  UNL     1      -1.642  -1.223  18.706  1.00  0.00     0.248 HD
ENDBRANCH  23  26
BRANCH  24  28
HETATM   28  O3  UNL     1       0.171   0.989  18.297  1.00  0.00    -0.271 OA
ATOM     29  H3  UNL     1      -0.727   1.220  18.090  1.00  0.00     0.246 HD
ENDBRANCH  24  28
ENDBRANCH  20  23
ENDBRANCH  16  17
ENDBRANCH  15  16
ENDBRANCH  13  15
ENDBRANCH   8  13
BRANCH  12  30
HETATM   30  O4  UNL     1       1.867 -11.548  11.638  1.00  0.00    -0.308 OA
ATOM     31  H4  UNL     1       1.389 -12.369  11.594  1.00  0.00     0.237 HD
ENDBRANCH  12  30
BRANCH   1  32
HETATM   32  N1  UNL     1       1.552 -13.722  12.606  1.00  0.00    -0.037 N
ATOM     33  H13 UNL     1       0.737 -13.491  13.174  1.00  0.00     0.279 HD
ATOM     34  H12 UNL     1       1.198 -13.362  11.720  1.00  0.00     0.279 HD
ATOM     35  H11 UNL     1       1.755 -14.722  12.583  1.00  0.00     0.279 HD
ENDBRANCH   1  32
TORSDOF 9
ENDMDL