MODEL 5
REMARK VINA RESULT: -7.792915080      5.094     10.639
REMARK  8 active torsions:
REMARK  status: ('A' for Active; 'I' for Inactive)
REMARK    1  A    between atoms: C3_5  and  N2_6
REMARK    2  A    between atoms: N2_6  and  C5_8
REMARK    3  A    between atoms: C6_11  and  N4_12
REMARK    4  A    between atoms: C7_17  and  N6_18
REMARK    5  A    between atoms: C8_25  and  N9_26
REMARK    6  A    between atoms: N9_26  and  C9_28
REMARK    7  A    between atoms: C9_28  and  O1_29
REMARK    8  A    between atoms: C9_28  and  C10_31
ROOT
HETATM    1  C1  UNL     1      -2.723   1.853  19.192  1.00  0.00     0.090 C
HETATM    2  C2  UNL     1      -1.592   0.864  19.333  1.00  0.00     0.109 A
HETATM    3  N1  UNL     1      -1.203   0.427  20.539  1.00  0.00    -0.179 N
ATOM      4  H1  UNL     1      -1.690   0.759  21.372  1.00  0.00     0.185 HD
HETATM    5  C3  UNL     1      -0.166  -0.457  20.675  1.00  0.00     0.714 A
HETATM    6  N8  UNL     1       0.459  -0.879  19.559  1.00  0.00    -0.021 N
ATOM      7  H8  UNL     1       1.235  -1.536  19.647  1.00  0.00     0.203 HD
HETATM    8  C8  UNL     1       0.096  -0.465  18.330  1.00  0.00     0.696 A
HETATM    9  N13 UNL     1      -0.925   0.399  18.261  1.00  0.00    -0.180 N
ATOM     10  H13 UNL     1      -1.216   0.725  17.339  1.00  0.00     0.185 HD
ENDROOT
BRANCH   5  11
HETATM   11  N2  UNL     1       0.172  -0.905  21.982  1.00  0.00    -0.017 N
HETATM   12  C4  UNL     1       0.769  -2.236  22.150  1.00  0.00     0.195 C
BRANCH  11  13
HETATM   13  C5  UNL     1      -0.040  -0.168  23.170  1.00  0.00     0.727 A
HETATM   14  N3  UNL     1       0.881   0.602  23.774  1.00  0.00    -0.021 N
HETATM   15  C6  UNL     1       0.601   1.263  24.923  1.00  0.00     0.705 A
ATOM     16  H3  UNL     1       1.809   0.691  23.360  1.00  0.00     0.203 HD
HETATM   17  N5  UNL     1      -0.615   1.167  25.494  1.00  0.00    -0.022 N
HETATM   18  C7  UNL     1      -1.559   0.403  24.912  1.00  0.00     0.705 A
ATOM     19  H5  UNL     1      -0.819   1.669  26.359  1.00  0.00     0.203 HD
HETATM   20  N7  UNL     1      -1.261  -0.238  23.783  1.00  0.00    -0.021 N
ATOM     21  H7  UNL     1      -1.985  -0.814  23.351  1.00  0.00     0.203 HD
BRANCH  15  22
HETATM   22  N4  UNL     1       1.540   1.988  25.463  1.00  0.00    -0.234 N
ATOM     23  H42 UNL     1       2.522   1.734  25.363  1.00  0.00     0.174 HD
ATOM     24  H41 UNL     1       1.267   2.821  25.985  1.00  0.00     0.174 HD
ENDBRANCH  15  22
BRANCH  18  25
HETATM   25  N6  UNL     1      -2.734   0.287  25.435  1.00  0.00    -0.234 N
ATOM     26  H62 UNL     1      -3.498   0.884  25.119  1.00  0.00     0.174 HD
ATOM     27  H61 UNL     1      -2.916  -0.402  26.166  1.00  0.00     0.174 HD
ENDBRANCH  18  25
ENDBRANCH  11  13
ENDBRANCH   5  11
BRANCH   8  28
HETATM   28  N9  UNL     1       0.742  -0.932  17.322  1.00  0.00    -0.192 N
ATOM     29  H9  UNL     1       1.312  -0.285  16.776  1.00  0.00     0.180 HD
BRANCH  28  30
HETATM   30  C9  UNL     1       0.707  -2.318  16.917  1.00  0.00     0.304 C
BRANCH  30  31
HETATM   31  O1  UNL     1       0.298  -2.294  15.561  1.00  0.00    -0.369 OA
ATOM     32  H1  UNL     1       0.731  -1.536  15.187  1.00  0.00     0.212 HD
ENDBRANCH  30  31
BRANCH  30  33
HETATM   33  C10 UNL     1       2.049  -2.945  17.041  1.00  0.00     0.149 A
HETATM   34  N10 UNL     1       3.083  -2.770  16.181  1.00  0.00    -0.284 N
HETATM   35  N11 UNL     1       4.143  -3.459  16.583  1.00  0.00    -0.295 N
ATOM     36  H10 UNL     1       3.050  -2.191  15.343  1.00  0.00     0.188 HD
HETATM   37  C11 UNL     1       3.801  -4.094  17.721  1.00  0.00     0.201 A
ATOM     38  H11 UNL     1       5.049  -3.501  16.116  1.00  0.00     0.187 HD
HETATM   39  N12 UNL     1       2.536  -3.770  17.979  1.00  0.00    -0.331 N
HETATM   40  C12 UNL     1       1.793  -4.249  19.137  1.00  0.00     0.158 C
ENDBRANCH  30  33
ENDBRANCH  28  30
ENDBRANCH   8  28
TORSDOF 8
ENDMDL