MODEL 5
REMARK VINA RESULT: -7.337707666      3.500      8.768
REMARK  6 active torsions:
REMARK  status: ('A' for Active; 'I' for Inactive)
REMARK    1  A    between atoms: C2_3  and  S1_4
REMARK    2  A    between atoms: S1_4  and  C3_5
REMARK    3  A    between atoms: C4_8  and  N3_9
REMARK    4  A    between atoms: N3_9  and  N4_11
REMARK    5  A    between atoms: N4_11  and  C5_12
REMARK    6  A    between atoms: C9_21  and  N7_22
ROOT
HETATM    1  C3  UNL     1       1.986  -3.478  17.296  1.00  0.00     0.182 A
HETATM    2  N2  UNL     1       1.180  -2.419  17.090  1.00  0.00    -0.168 N
ATOM      3  H2  UNL     1       0.894  -2.191  16.138  1.00  0.00     0.186 HD
HETATM    4  C4  UNL     1       0.743  -1.653  18.105  1.00  0.00     0.710 A
HETATM    5  N6  UNL     1       1.152  -1.995  19.350  1.00  0.00    -0.021 N
ATOM      6  H6  UNL     1       0.837  -1.434  20.142  1.00  0.00     0.203 HD
HETATM    7  C9  UNL     1       1.959  -3.051  19.582  1.00  0.00     0.692 A
HETATM    8  N8  UNL     1       2.378  -3.796  18.545  1.00  0.00    -0.169 N
ATOM      9  H8  UNL     1       2.990  -4.598  18.702  1.00  0.00     0.186 HD
ENDROOT
BRANCH   1  10
HETATM   10  S1  UNL     1       2.580  -4.508  15.968  1.00  0.00    -0.016 SA
BRANCH  10  11
HETATM   11  C2  UNL     1       4.049  -5.393  16.449  1.00  0.00     0.161 A
HETATM   12  N1  UNL     1       4.125  -6.702  16.194  1.00  0.00    -0.283 N
HETATM   13  C1  UNL     1       3.021  -7.387  15.534  1.00  0.00     0.163 C
HETATM   14  C11 UNL     1       5.215  -7.419  16.537  1.00  0.00     0.332 A
HETATM   15  N10 UNL     1       6.261  -6.843  17.147  1.00  0.00    -0.260 N
HETATM   16  O2  UNL     1       5.303  -8.660  16.303  1.00  0.00    -0.246 OA
HETATM   17  C10 UNL     1       6.201  -5.525  17.411  1.00  0.00     0.330 A
ATOM     18  H10 UNL     1       7.082  -7.390  17.405  1.00  0.00     0.175 HD
HETATM   19  N9  UNL     1       5.097  -4.818  17.060  1.00  0.00    -0.288 N
HETATM   20  O1  UNL     1       7.179  -4.984  17.982  1.00  0.00    -0.246 OA
ATOM     21  H9  UNL     1       5.062  -3.820  17.266  1.00  0.00     0.172 HD
ENDBRANCH  10  11
ENDBRANCH   1  10
BRANCH   4  22
HETATM   22  N3  UNL     1      -0.110  -0.534  17.885  1.00  0.00    -0.135 N
ATOM     23  H3  UNL     1       0.111   0.149  17.160  1.00  0.00     0.201 HD
BRANCH  22  24
HETATM   24  N4  UNL     1      -1.237  -0.385  18.663  1.00  0.00    -0.119 NA
BRANCH  24  25
HETATM   25  C5  UNL     1      -1.189   0.790  19.511  1.00  0.00     0.127 C
HETATM   26  C6  UNL     1      -2.518   1.134  20.096  1.00  0.00     0.052 C
HETATM   27  C7  UNL     1      -3.100   2.247  19.242  1.00  0.00     0.234 C
HETATM   28  N5  UNL     1      -2.178   2.449  18.168  1.00  0.00    -0.073 N
HETATM   29  C8  UNL     1      -0.889   1.982  18.622  1.00  0.00     0.255 C
ATOM     30  H52 UNL     1      -2.477   2.012  17.296  1.00  0.00     0.277 HD
ATOM     31  H51 UNL     1      -2.159   3.411  17.832  1.00  0.00     0.277 HD
ENDBRANCH  24  25
ENDBRANCH  22  24
ENDBRANCH   4  22
BRANCH   7  32
HETATM   32  N7  UNL     1       2.347  -3.373  20.776  1.00  0.00    -0.234 N
ATOM     33  H72 UNL     1       1.861  -4.125  21.263  1.00  0.00     0.174 HD
ATOM     34  H71 UNL     1       3.120  -2.898  21.240  1.00  0.00     0.174 HD
ENDBRANCH   7  32
TORSDOF 6
ENDMDL