MODEL 4
REMARK VINA RESULT: -8.363546681      1.040      2.383
REMARK  6 active torsions:
REMARK  status: ('A' for Active; 'I' for Inactive)
REMARK    1  A    between atoms: C2_3  and  N2_4
REMARK    2  A    between atoms: N5_14  and  N6_15
REMARK       I    between atoms: N6_15  and  C6_17
REMARK    3  A    between atoms: C6_17  and  C7_19
REMARK    4  A    between atoms: C7_19  and  N7_20
REMARK    5  A    between atoms: N7_20  and  N8_22
REMARK       I    between atoms: N8_22  and  C8_23
REMARK       I    between atoms: C8_23  and  N9_25
REMARK    6  A    between atoms: C9_28  and  N10_29
ROOT
HETATM    1  C1  UNL     1       3.446  -4.740  20.274  1.00  0.00     0.177 C
HETATM    2  N1  UNL     1       2.666  -4.048  19.267  1.00  0.00    -0.170 N
HETATM    3  C2  UNL     1       2.629  -4.190  17.961  1.00  0.00     0.681 A
HETATM    4  N3  UNL     1       1.753  -3.334  17.404  1.00  0.00    -0.180 N
HETATM    5  C3  UNL     1       1.485  -3.242  16.015  1.00  0.00     0.176 C
HETATM    6  C4  UNL     1       1.201  -2.603  18.411  1.00  0.00     0.142 A
HETATM    7  C5  UNL     1       0.271  -1.609  18.424  1.00  0.00     0.170 A
HETATM    8  N4  UNL     1      -0.266  -1.184  17.385  1.00  0.00    -0.382 N
ATOM      9  H41 UNL     1      -0.963  -0.440  17.395  1.00  0.00     0.157 HD
ATOM     10  H42 UNL     1       0.013  -1.606  16.499  1.00  0.00     0.157 HD
HETATM   11  N5  UNL     1      -0.111  -1.032  19.638  1.00  0.00    -0.065 N
HETATM   12  C9  UNL     1       0.482  -1.513  20.735  1.00  0.00     0.700 A
HETATM   13  N11 UNL     1       1.411  -2.506  20.726  1.00  0.00    -0.172 N
ATOM     14  H11 UNL     1       1.823  -2.825  21.602  1.00  0.00     0.186 HD
HETATM   15  C10 UNL     1       1.784  -3.063  19.575  1.00  0.00     0.170 A
ENDROOT
BRANCH  11  16
HETATM   16  N6  UNL     1      -1.050  -0.034  19.600  1.00  0.00    -0.242 N
HETATM   17  C6  UNL     1      -1.030   1.332  19.404  1.00  0.00     0.278 C
HETATM   18  O1  UNL     1      -0.069   2.100  19.190  1.00  0.00    -0.265 OA
ATOM     19  H6  UNL     1      -1.995  -0.387  19.755  1.00  0.00     0.191 HD
BRANCH  17  20
HETATM   20  C7  UNL     1      -2.351   2.047  19.447  1.00  0.00     0.196 C
BRANCH  20  21
HETATM   21  N7  UNL     1      -2.805   2.584  18.371  1.00  0.00    -0.236 N
ATOM     22  H7  UNL     1      -2.212   2.573  17.541  1.00  0.00     0.201 HD
BRANCH  21  23
HETATM   23  N8  UNL     1      -4.018   3.162  18.274  1.00  0.00    -0.261 NA
HETATM   24  C8  UNL     1      -5.196   3.722  18.181  1.00  0.00     0.476 C
HETATM   25  O2  UNL     1      -6.142   3.545  17.317  1.00  0.00    -0.222 OA
HETATM   26  N9  UNL     1      -5.601   4.732  19.176  1.00  0.00    -0.040 N
HETATM   27  O3  UNL     1      -4.805   5.024  20.083  1.00  0.00    -0.527 OA
HETATM   28  O4  UNL     1      -6.822   5.290  19.058  1.00  0.00    -0.527 OA
ENDBRANCH  21  23
ENDBRANCH  20  21
ENDBRANCH  17  20
ENDBRANCH  11  16
BRANCH  12  29
HETATM   29  N10 UNL     1       0.186  -1.036  21.895  1.00  0.00    -0.233 N
ATOM     30 2H10 UNL     1      -0.066  -1.724  22.605  1.00  0.00     0.174 HD
ATOM     31 1H10 UNL     1       0.210  -0.029  22.057  1.00  0.00     0.174 HD
ENDBRANCH  12  29
BRANCH   3  32
HETATM   32  N2  UNL     1       3.353  -5.052  17.303  1.00  0.00    -0.234 N
ATOM     33  H22 UNL     1       3.847  -5.840  17.721  1.00  0.00     0.174 HD
ATOM     34  H21 UNL     1       3.496  -5.021  16.293  1.00  0.00     0.174 HD
ENDBRANCH   3  32
TORSDOF 6
ENDMDL