MODEL 4
REMARK VINA RESULT: -7.688930174      6.042      9.951
REMARK  8 active torsions:
REMARK  status: ('A' for Active; 'I' for Inactive)
REMARK    1  A    between atoms: C2_2  and  N3_8
REMARK    2  A    between atoms: N1_3  and  N2_5
REMARK    3  A    between atoms: N3_8  and  N4_10
REMARK    4  A    between atoms: C3_12  and  C4_13
REMARK    5  A    between atoms: C3_12  and  C7_25
REMARK    6  A    between atoms: C5_16  and  N6_17
REMARK    7  A    between atoms: C8_30  and  C9_31
REMARK    8  A    between atoms: C12_34  and  O1_35
ROOT
HETATM    1  N4  UNL     1       2.116  -2.585  19.608  1.00  0.00    -0.294 N
ATOM      2  H4  UNL     1       1.538  -1.978  20.188  1.00  0.00     0.187 HD
HETATM    3  C3  UNL     1       1.720  -2.810  18.403  1.00  0.00     0.123 C
ENDROOT
BRANCH   3   4
HETATM    4  C4  UNL     1       0.483  -2.164  18.013  1.00  0.00     0.104 A
HETATM    5  N5  UNL     1      -0.431  -2.797  17.258  1.00  0.00    -0.342 N
HETATM    6  C5  UNL     1      -1.555  -1.984  16.998  1.00  0.00     0.388 A
ATOM      7  H5  UNL     1      -0.326  -3.752  16.915  1.00  0.00     0.163 HD
HETATM    8  N7  UNL     1      -1.281  -0.756  17.658  1.00  0.00    -0.333 N
HETATM    9  C6  UNL     1      -0.105  -0.873  18.240  1.00  0.00     0.144 A
ATOM     10  H7  UNL     1      -1.886   0.065  17.679  1.00  0.00     0.164 HD
HETATM   11  N8  UNL     1       0.429   0.214  18.981  1.00  0.00    -0.080 NA
BRANCH   6  12
HETATM   12  N6  UNL     1      -1.630  -1.705  15.555  1.00  0.00    -0.041 N
ATOM     13  H63 UNL     1      -1.101  -2.380  15.003  1.00  0.00     0.279 HD
ATOM     14  H62 UNL     1      -2.556  -1.897  15.172  1.00  0.00     0.279 HD
ATOM     15  H61 UNL     1      -1.331  -0.745  15.381  1.00  0.00     0.279 HD
ENDBRANCH   6  12
ENDBRANCH   3   4
BRANCH   3  16
HETATM   16  C7  UNL     1       2.503  -3.656  17.550  1.00  0.00     0.152 A
HETATM   17  N9  UNL     1       3.498  -3.166  16.730  1.00  0.00    -0.282 N
HETATM   18  N10 UNL     1       4.046  -4.153  16.067  1.00  0.00    -0.282 N
ATOM     19  H9  UNL     1       3.766  -2.184  16.652  1.00  0.00     0.188 HD
HETATM   20  C8  UNL     1       3.462  -5.317  16.401  1.00  0.00     0.148 A
ATOM     21  H10 UNL     1       4.807  -4.054  15.394  1.00  0.00     0.188 HD
HETATM   22  N12 UNL     1       2.540  -4.959  17.297  1.00  0.00    -0.323 N
ATOM     23  H12 UNL     1       1.917  -5.629  17.748  1.00  0.00     0.169 HD
BRANCH  20  24
HETATM   24  C9  UNL     1       3.782  -6.645  15.888  1.00  0.00     0.078 A
HETATM   25  C10 UNL     1       5.078  -7.060  15.669  1.00  0.00     0.036 A
HETATM   26  C11 UNL     1       5.384  -8.316  15.183  1.00  0.00     0.040 A
HETATM   27  C12 UNL     1       4.370  -9.214  14.896  1.00  0.00     0.081 A
HETATM   28  C13 UNL     1       3.081  -8.771  15.126  1.00  0.00     0.124 A
HETATM   29  N11 UNL     1       2.813  -7.534  15.602  1.00  0.00    -0.360 N
ATOM     30  H11 UNL     1       1.840  -7.265  15.750  1.00  0.00     0.165 HD
BRANCH  27  31
HETATM   31  O1  UNL     1       4.631 -10.488  14.406  1.00  0.00    -0.359 OA
ATOM     32  H1  UNL     1       4.502 -11.267  14.935  1.00  0.00     0.217 HD
ENDBRANCH  27  31
ENDBRANCH  20  24
ENDBRANCH   3  16
BRANCH   1  33
HETATM   33  N3  UNL     1       3.253  -3.098  20.167  1.00  0.00    -0.288 N
ATOM     34  H3  UNL     1       4.166  -2.799  19.825  1.00  0.00     0.188 HD
BRANCH  33  35
HETATM   35  C2  UNL     1       3.172  -4.054  21.232  1.00  0.00     0.105 C
HETATM   36  C1  UNL     1       2.108  -5.078  21.344  1.00  0.00     0.092 C
HETATM   37  N1  UNL     1       4.077  -4.013  22.141  1.00  0.00    -0.295 N
ATOM     38  H1  UNL     1       4.808  -3.306  22.061  1.00  0.00     0.187 HD
BRANCH  37  39
HETATM   39  N2  UNL     1       4.115  -4.877  23.226  1.00  0.00    -0.344 N
ATOM     40  H22 UNL     1       3.800  -5.835  23.069  1.00  0.00     0.176 HD
ATOM     41  H21 UNL     1       4.438  -4.603  24.154  1.00  0.00     0.176 HD
ENDBRANCH  37  39
ENDBRANCH  33  35
ENDBRANCH   1  33
TORSDOF 8
ENDMDL