MODEL 3
REMARK VINA RESULT: -6.394483705      4.091      6.454
REMARK  9 active torsions:
REMARK  status: ('A' for Active; 'I' for Inactive)
REMARK    1  A    between atoms: O1_2  and  N1_3
REMARK    2  A    between atoms: C2_5  and  C3_6
REMARK    3  A    between atoms: C2_5  and  C7_19
REMARK    4  A    between atoms: C5_12  and  C6_13
REMARK    5  A    between atoms: C6_13  and  O3_15
REMARK    6  A    between atoms: O3_15  and  N4_16
REMARK    7  A    between atoms: C8_22  and  N6_23
REMARK    8  A    between atoms: C10_30  and  O5_31
REMARK    9  A    between atoms: O5_31  and  N8_32
ROOT
HETATM    1  N1  UNL     1       0.052  -3.573  19.941  1.00  0.00    -0.263 N
ATOM      2  H1  UNL     1      -0.649  -3.312  20.635  1.00  0.00     0.194 HD
HETATM    3  C2  UNL     1       0.703  -2.605  19.278  1.00  0.00     0.113 C
ENDROOT
BRANCH   3   4
HETATM    4  C3  UNL     1       1.703  -3.024  18.292  1.00  0.00     0.088 A
HETATM    5  N2  UNL     1       2.844  -3.530  18.811  1.00  0.00    -0.336 N
HETATM    6  C4  UNL     1       3.714  -4.135  18.069  1.00  0.00     0.160 A
ATOM      7  H2  UNL     1       3.022  -3.434  19.810  1.00  0.00     0.168 HD
HETATM    8  N3  UNL     1       4.972  -4.738  18.417  1.00  0.00    -0.074 NA
HETATM    9  S1  UNL     1       3.014  -4.052  16.532  1.00  0.00    -0.049 SA
HETATM   10  C5  UNL     1       1.560  -3.192  16.952  1.00  0.00     0.114 A
BRANCH  10  11
HETATM   11  C6  UNL     1       0.612  -2.610  15.978  1.00  0.00     0.324 C
HETATM   12  O2  UNL     1       0.881  -2.071  14.903  1.00  0.00    -0.257 OA
BRANCH  11  13
HETATM   13  O3  UNL     1      -0.729  -2.678  16.315  1.00  0.00    -0.202 OA
BRANCH  13  14
HETATM   14  N4  UNL     1      -1.650  -1.833  15.699  1.00  0.00    -0.302 N
ATOM     15  H42 UNL     1      -2.489  -2.237  15.284  1.00  0.00     0.184 HD
ATOM     16  H41 UNL     1      -1.481  -0.827  15.667  1.00  0.00     0.184 HD
ENDBRANCH  13  14
ENDBRANCH  11  13
ENDBRANCH  10  11
ENDBRANCH   3   4
BRANCH   3  17
HETATM   17  C7  UNL     1       0.232  -1.289  19.570  1.00  0.00     0.121 A
HETATM   18  N5  UNL     1      -0.337  -0.438  18.676  1.00  0.00    -0.186 N
HETATM   19  C8  UNL     1      -0.899   0.712  19.070  1.00  0.00     0.679 A
ATOM     20  H5  UNL     1      -0.335  -0.679  17.685  1.00  0.00     0.184 HD
HETATM   21  N7  UNL     1      -0.944   1.099  20.347  1.00  0.00    -0.154 N
HETATM   22  C9  UNL     1      -0.404   0.299  21.255  1.00  0.00     0.298 A
ATOM     23  H7  UNL     1      -1.380   1.981  20.615  1.00  0.00     0.187 HD
HETATM   24  O4  UNL     1      -0.421   0.620  22.482  1.00  0.00    -0.264 OA
HETATM   25  C10 UNL     1       0.184  -0.881  20.920  1.00  0.00     0.196 A
BRANCH  19  26
HETATM   26  N6  UNL     1      -1.419   1.470  18.146  1.00  0.00    -0.234 N
ATOM     27  H62 UNL     1      -1.247   1.259  17.164  1.00  0.00     0.174 HD
ATOM     28  H61 UNL     1      -1.987   2.259  18.455  1.00  0.00     0.174 HD
ENDBRANCH  19  26
BRANCH  25  29
HETATM   29  O5  UNL     1       0.746  -1.706  21.888  1.00  0.00    -0.237 OA
BRANCH  29  30
HETATM   30  N8  UNL     1       0.108  -2.082  23.024  1.00  0.00    -0.305 N
ATOM     31  H82 UNL     1      -0.730  -1.560  23.279  1.00  0.00     0.184 HD
ATOM     32  H81 UNL     1       0.418  -2.846  23.624  1.00  0.00     0.184 HD
ENDBRANCH  29  30
ENDBRANCH  25  29
ENDBRANCH   3  17
BRANCH   1  33
HETATM   33  O1  UNL     1       0.298  -4.879  19.718  1.00  0.00    -0.285 OA
HETATM   34  C1  UNL     1       0.685  -5.823  20.697  1.00  0.00     0.237 C
ENDBRANCH   1  33
TORSDOF 9
ENDMDL