MODEL 4
REMARK VINA RESULT: -7.463617792      1.300      1.513
REMARK  9 active torsions:
REMARK  status: ('A' for Active; 'I' for Inactive)
REMARK    1  A    between atoms: N1_1  and  C1_4
REMARK    2  A    between atoms: C3_11  and  N4_12
REMARK    3  A    between atoms: N4_12  and  N5_14
REMARK    4  A    between atoms: C4_16  and  C5_17
REMARK    5  A    between atoms: C6_19  and  N6_20
REMARK    6  A    between atoms: C7_23  and  N7_24
REMARK    7  A    between atoms: C8_27  and  N8_28
REMARK    8  A    between atoms: N8_28  and  O7_29
REMARK    9  A    between atoms: N8_28  and  O8_31
ROOT
HETATM    1  N5  UNL     1       1.897  -2.812  17.567  1.00  0.00    -0.295 N
ATOM      2  H5  UNL     1       2.344  -2.488  18.425  1.00  0.00     0.186 HD
HETATM    3  C4  UNL     1       0.784  -2.252  17.216  1.00  0.00     0.147 C
ENDROOT
BRANCH   1   4
HETATM    4  N4  UNL     1       2.517  -3.818  16.855  1.00  0.00    -0.132 N
ATOM      5  H4  UNL     1       2.327  -3.864  15.854  1.00  0.00     0.205 HD
BRANCH   4   6
HETATM    6  C3  UNL     1       3.305  -4.693  17.336  1.00  0.00     0.715 A
HETATM    7  N3  UNL     1       4.620  -4.403  17.413  1.00  0.00    -0.139 N
HETATM    8  C2  UNL     1       5.511  -5.283  17.911  1.00  0.00     0.352 A
ATOM      9  H3  UNL     1       4.948  -3.494  17.086  1.00  0.00     0.189 HD
HETATM   10  N2  UNL     1       5.122  -6.493  18.354  1.00  0.00    -0.141 N
HETATM   11  O1  UNL     1       6.750  -5.017  17.987  1.00  0.00    -0.246 OA
HETATM   12  C1  UNL     1       3.813  -6.794  18.283  1.00  0.00     0.694 A
ATOM     13  H2  UNL     1       5.797  -7.158  18.732  1.00  0.00     0.189 HD
HETATM   14  N9  UNL     1       2.925  -5.904  17.781  1.00  0.00    -0.021 N
ATOM     15  H9  UNL     1       1.938  -6.160  17.738  1.00  0.00     0.203 HD
BRANCH  12  16
HETATM   16  N1  UNL     1       3.445  -7.965  18.713  1.00  0.00    -0.234 N
ATOM     17  H12 UNL     1       3.992  -8.485  19.400  1.00  0.00     0.174 HD
ATOM     18  H11 UNL     1       2.580  -8.352  18.336  1.00  0.00     0.174 HD
ENDBRANCH  12  16
ENDBRANCH   4   6
ENDBRANCH   1   4
BRANCH   3  19
HETATM   19  C5  UNL     1       0.294  -1.199  18.118  1.00  0.00     0.123 A
HETATM   20  O2  UNL     1       0.002   0.017  17.817  1.00  0.00    -0.283 OA
HETATM   21  C6  UNL     1      -0.422   0.725  18.863  1.00  0.00     0.251 A
HETATM   22  C7  UNL     1      -0.397  -0.128  19.941  1.00  0.00     0.189 A
HETATM   23  C8  UNL     1       0.064  -1.362  19.459  1.00  0.00     0.138 A
BRANCH  21  24
HETATM   24  N6  UNL     1      -0.785   2.077  18.715  1.00  0.00    -0.088 N
HETATM   25  O3  UNL     1      -0.191   2.927  19.451  1.00  0.00    -0.530 OA
HETATM   26  O4  UNL     1      -1.699   2.609  17.879  1.00  0.00    -0.530 OA
ENDBRANCH  21  24
BRANCH  22  27
HETATM   27  N7  UNL     1      -0.783   0.180  21.255  1.00  0.00    -0.109 N
HETATM   28  O5  UNL     1      -0.056   0.582  22.175  1.00  0.00    -0.532 OA
HETATM   29  O6  UNL     1      -2.118   0.039  21.651  1.00  0.00    -0.532 OA
ENDBRANCH  22  27
BRANCH  23  30
HETATM   30  N8  UNL     1       0.232  -2.483  20.290  1.00  0.00    -0.031 NA
BRANCH  30  31
HETATM   31  O7  UNL     1       1.523  -2.813  20.520  1.00  0.00    -0.284 OA
ATOM     32  H7  UNL     1       1.653  -3.716  20.785  1.00  0.00     0.240 HD
ENDBRANCH  30  31
BRANCH  30  33
HETATM   33  O8  UNL     1      -0.319  -3.594  19.719  1.00  0.00    -0.284 OA
ATOM     34  H8  UNL     1      -1.256  -3.482  19.606  1.00  0.00     0.240 HD
ENDBRANCH  30  33
ENDBRANCH  23  30
ENDBRANCH   3  19
TORSDOF 9
ENDMDL