MODEL 4
REMARK VINA RESULT: -8.035240806      4.319      8.352
REMARK  7 active torsions:
REMARK  status: ('A' for Active; 'I' for Inactive)
REMARK    1  A    between atoms: C2_2  and  C3_3
REMARK    2  A    between atoms: C3_3  and  N1_5
REMARK    3  A    between atoms: C7_10  and  N3_11
REMARK    4  A    between atoms: N3_11  and  C8_13
REMARK    5  A    between atoms: C14_21  and  N5_22
REMARK    6  A    between atoms: N6_25  and  C17_26
REMARK    7  A    between atoms: C20_29  and  N7_30
ROOT
HETATM    1  N1  UNL     1      26.378 -25.731  -0.005  1.00  0.00    -0.322 N
HETATM    2  C5  UNL     1      26.728 -24.429   0.033  1.00  0.00     0.185 A
HETATM    3  N2  UNL     1      26.784 -24.063   1.323  1.00  0.00    -0.346 N
ATOM      4  H2  UNL     1      27.028 -23.127   1.648  1.00  0.00     0.167 HD
HETATM    5  C6  UNL     1      26.480 -25.087   2.124  1.00  0.00     0.123 A
HETATM    6  C7  UNL     1      26.368 -25.274   3.512  1.00  0.00     0.152 A
HETATM    7  N4  UNL     1      26.014 -26.497   3.892  1.00  0.00    -0.174 N
ATOM      8  H4  UNL     1      25.928 -26.648   4.898  1.00  0.00     0.186 HD
HETATM    9  C14 UNL     1      25.760 -27.538   3.126  1.00  0.00     0.683 A
HETATM   10  N8  UNL     1      25.877 -27.329   1.780  1.00  0.00    -0.174 N
ATOM     11  H8  UNL     1      25.693 -28.101   1.139  1.00  0.00     0.186 HD
HETATM   12  C25 UNL     1      26.227 -26.135   1.284  1.00  0.00     0.155 A
ENDROOT
BRANCH   9  13
HETATM   13  N5  UNL     1      25.385 -28.838   3.492  1.00  0.00    -0.214 N
HETATM   14  C15 UNL     1      24.873 -29.784   2.541  1.00  0.00     0.160 C
HETATM   15  C16 UNL     1      24.556 -31.099   3.247  1.00  0.00     0.137 C
HETATM   16  N6  UNL     1      23.686 -30.836   4.339  1.00  0.00    -0.405 N
HETATM   17  C23 UNL     1      24.041 -29.802   5.223  1.00  0.00     0.137 C
HETATM   18  C24 UNL     1      25.468 -29.295   4.888  1.00  0.00     0.160 C
BRANCH  16  19
HETATM   19  C17 UNL     1      22.937 -31.926   4.856  1.00  0.00     0.079 C
HETATM   20  C18 UNL     1      23.824 -32.689   5.791  1.00  0.00     0.027 C
HETATM   21  C19 UNL     1      23.514 -34.181   5.776  1.00  0.00     0.035 C
HETATM   22  C20 UNL     1      22.008 -34.288   5.716  1.00  0.00     0.183 C
HETATM   23  C21 UNL     1      21.582 -33.962   4.306  1.00  0.00     0.035 C
HETATM   24  C22 UNL     1      22.235 -32.716   3.816  1.00  0.00     0.027 C
BRANCH  22  25
HETATM   25  N7  UNL     1      21.526 -35.582   6.148  1.00  0.00    -0.075 N
ATOM     26  H73 UNL     1      22.213 -36.311   5.959  1.00  0.00     0.274 HD
ATOM     27  H72 UNL     1      21.497 -35.642   7.166  1.00  0.00     0.274 HD
ATOM     28  H71 UNL     1      20.620 -35.819   5.741  1.00  0.00     0.274 HD
ENDBRANCH  22  25
ENDBRANCH  16  19
ENDBRANCH   9  13
BRANCH   6  29
HETATM   29  N3  UNL     1      26.644 -24.165   4.311  1.00  0.00    -0.340 N
ATOM     30  H3  UNL     1      27.394 -23.556   3.982  1.00  0.00     0.167 HD
BRANCH  29  31
HETATM   31  C8  UNL     1      26.026 -23.782   5.504  1.00  0.00     0.033 A
HETATM   32  C9  UNL     1      25.760 -24.635   6.566  1.00  0.00     0.029 A
HETATM   33  C10 UNL     1      25.126 -24.135   7.689  1.00  0.00     0.002 A
HETATM   34  C11 UNL     1      24.755 -22.813   7.783  1.00  0.00     0.000 A
HETATM   35  C12 UNL     1      25.017 -21.968   6.737  1.00  0.00     0.002 A
HETATM   36  C13 UNL     1      25.634 -22.424   5.621  1.00  0.00     0.029 A
ENDBRANCH  29  31
ENDBRANCH   6  29
BRANCH   1  37
HETATM   37  C3  UNL     1      26.158 -26.613  -1.126  1.00  0.00     0.088 C
HETATM   38  C4  UNL     1      25.487 -25.820  -2.231  1.00  0.00     0.033 C
BRANCH  37  39
HETATM   39  C2  UNL     1      27.482 -27.183  -1.619  1.00  0.00     0.021 C
HETATM   40  C1  UNL     1      27.679 -28.591  -1.092  1.00  0.00     0.007 C
ENDBRANCH  37  39
ENDBRANCH   1  37
TORSDOF 7
ENDMDL