MODEL 5
REMARK VINA RESULT: -9.700401706      1.505      2.087
REMARK  9 active torsions:
REMARK  status: ('A' for Active; 'I' for Inactive)
REMARK    1  A    between atoms: O1_2  and  C2_3
REMARK    2  A    between atoms: C2_3  and  C3_5
REMARK    3  A    between atoms: C6_8  and  N1_9
REMARK    4  A    between atoms: C7_10  and  O3_11
REMARK    5  A    between atoms: C10_15  and  O4_16
REMARK    6  A    between atoms: C13_21  and  C14_22
REMARK    7  A    between atoms: C14_22  and  C15_23
REMARK    8  A    between atoms: C16_24  and  C17_25
REMARK    9  A    between atoms: C17_25  and  C18_26
ROOT
HETATM    1  N1  UNL     1      24.307 -29.351   1.619  1.00  0.00    -0.269 N
HETATM    2  C7  UNL     1      25.553 -29.095   2.042  1.00  0.00     0.184 A
HETATM    3  C8  UNL     1      25.944 -27.906   1.462  1.00  0.00     0.139 A
HETATM    4  C9  UNL     1      24.921 -27.425   0.668  1.00  0.00     0.099 A
HETATM    5  C10 UNL     1      23.906 -28.364   0.795  1.00  0.00     0.166 A
HETATM    6  C11 UNL     1      25.073 -26.176  -0.064  1.00  0.00     0.169 C
HETATM    7  O5  UNL     1      24.071 -25.681  -0.637  1.00  0.00    -0.292 OA
HETATM    8  C12 UNL     1      26.395 -25.520  -0.118  1.00  0.00     0.117 C
HETATM    9  C13 UNL     1      27.120 -25.792   1.198  1.00  0.00     0.140 C
HETATM   10  O6  UNL     1      27.107 -27.149   1.523  1.00  0.00    -0.340 OA
ENDROOT
BRANCH   9  11
HETATM   11  C14 UNL     1      26.374 -24.969   2.255  1.00  0.00     0.059 C
BRANCH  11  12
HETATM   12  C15 UNL     1      26.631 -25.613   3.545  1.00  0.00    -0.028 C
HETATM   13  C16 UNL     1      26.746 -25.020   4.719  1.00  0.00    -0.030 C
BRANCH  13  14
HETATM   14  C17 UNL     1      26.627 -23.571   4.916  1.00  0.00     0.031 C
BRANCH  14  15
HETATM   15  C18 UNL     1      25.523 -23.290   5.928  1.00  0.00    -0.011 C
HETATM   16  C19 UNL     1      25.730 -24.088   7.192  1.00  0.00     0.007 C
HETATM   17  C20 UNL     1      24.469 -23.946   8.018  1.00  0.00     0.037 C
HETATM   18  C21 UNL     1      24.065 -22.526   8.230  1.00  0.00     0.170 C
HETATM   19  F1  UNL     1      22.763 -22.360   7.842  1.00  0.00    -0.249 F
HETATM   20  C22 UNL     1      24.994 -21.520   7.621  1.00  0.00     0.037 C
HETATM   21  C23 UNL     1      25.364 -21.818   6.198  1.00  0.00     0.007 C
ENDBRANCH  14  15
ENDBRANCH  13  14
ENDBRANCH  11  12
ENDBRANCH   9  11
BRANCH   2  22
HETATM   22  O3  UNL     1      26.288 -29.896   2.904  1.00  0.00    -0.344 OA
ATOM     23  H3  UNL     1      26.841 -30.623   2.643  1.00  0.00     0.219 HD
ENDBRANCH   2  22
BRANCH   5  24
HETATM   24  O4  UNL     1      22.692 -28.218   0.127  1.00  0.00    -0.345 OA
ATOM     25  H4  UNL     1      21.899 -28.734   0.208  1.00  0.00     0.219 HD
ENDBRANCH   5  24
BRANCH   1  26
HETATM   26  C6  UNL     1      23.519 -30.476   1.971  1.00  0.00     0.043 A
HETATM   27  C5  UNL     1      22.370 -30.356   2.726  1.00  0.00     0.031 A
HETATM   28  C4  UNL     1      21.613 -31.476   3.056  1.00  0.00     0.020 A
HETATM   29  C3  UNL     1      22.000 -32.719   2.634  1.00  0.00     0.039 A
HETATM   30  C25 UNL     1      23.145 -32.840   1.881  1.00  0.00     0.020 A
HETATM   31  C24 UNL     1      23.917 -31.740   1.537  1.00  0.00     0.031 A
BRANCH  29  32
HETATM   32  C2  UNL     1      21.224 -33.925   2.965  1.00  0.00     0.292 C
HETATM   33  O2  UNL     1      20.786 -34.656   2.069  1.00  0.00    -0.259 OA
BRANCH  32  34
HETATM   34  O1  UNL     1      20.969 -34.263   4.278  1.00  0.00    -0.323 OA
HETATM   35  C1  UNL     1      22.020 -34.338   5.234  1.00  0.00     0.213 C
ENDBRANCH  32  34
ENDBRANCH  29  32
ENDBRANCH   1  26
TORSDOF 9
ENDMDL