MODEL 5
REMARK VINA RESULT: -8.249593482      3.525      8.044
REMARK  10 active torsions:
REMARK  status: ('A' for Active; 'I' for Inactive)
REMARK    1  A    between atoms: C2_2  and  C3_3
REMARK    2  A    between atoms: C3_3  and  C4_4
REMARK    3  A    between atoms: C4_4  and  C5_5
REMARK    4  A    between atoms: C5_5  and  C6_6
REMARK    5  A    between atoms: C13_14  and  O2_15
REMARK    6  A    between atoms: C14_17  and  C15_18
REMARK    7  A    between atoms: N1_20  and  C17_22
REMARK    8  A    between atoms: N2_24  and  O3_26
REMARK    9  A    between atoms: C19_28  and  C20_29
REMARK   10  A    between atoms: C20_29  and  O5_31
ROOT
HETATM    1  C6  UNL     1      23.580 -30.355   4.260  1.00  0.00     0.015 C
HETATM    2  C7  UNL     1      24.037 -29.388   3.515  1.00  0.00     0.123 A
HETATM    3  O1  UNL     1      24.920 -28.379   3.961  1.00  0.00    -0.305 OA
HETATM    4  C8  UNL     1      25.205 -27.526   2.893  1.00  0.00     0.100 A
HETATM    5  C9  UNL     1      24.564 -27.891   1.754  1.00  0.00     0.052 A
HETATM    6  C10 UNL     1      24.720 -27.206   0.574  1.00  0.00     0.028 A
HETATM    7  C11 UNL     1      25.545 -26.121   0.546  1.00  0.00    -0.027 A
HETATM    8  C12 UNL     1      25.754 -25.325  -0.703  1.00  0.00     0.051 C
HETATM    9  C13 UNL     1      26.253 -25.684   1.705  1.00  0.00     0.081 A
HETATM   10  C14 UNL     1      26.062 -26.398   2.848  1.00  0.00     0.021 A
HETATM   11  C23 UNL     1      23.784 -29.117   2.113  1.00  0.00     0.218 A
HETATM   12  O6  UNL     1      23.077 -29.723   1.301  1.00  0.00    -0.284 OA
ENDROOT
BRANCH  10  13
HETATM   13  C15 UNL     1      26.674 -26.093   4.155  1.00  0.00     0.090 C
HETATM   14  C16 UNL     1      26.370 -24.857   4.898  1.00  0.00     0.013 C
HETATM   15  N1  UNL     1      25.472 -24.114   5.395  1.00  0.00    -0.350 N
HETATM   16  C19 UNL     1      27.887 -24.700   5.078  1.00  0.00     0.151 C
ATOM     17  H1  UNL     1      24.505 -24.422   5.291  1.00  0.00     0.166 HD
HETATM   18  C22 UNL     1      28.056 -25.461   3.816  1.00  0.00     0.115 C
HETATM   19 CL1  UNL     1      29.387 -26.649   3.938  1.00  0.00    -0.123 Cl
BRANCH  15  20
HETATM   20  C17 UNL     1      25.688 -22.907   6.075  1.00  0.00     0.097 C
HETATM   21  C18 UNL     1      26.090 -21.666   5.305  1.00  0.00     0.091 C
HETATM   22  N2  UNL     1      25.558 -22.797   7.322  1.00  0.00    -0.257 N
ATOM     23  H2  UNL     1      25.282 -23.637   7.829  1.00  0.00     0.195 HD
BRANCH  22  24
HETATM   24  O3  UNL     1      25.743 -21.694   8.047  1.00  0.00    -0.288 OA
ATOM     25  H3  UNL     1      25.545 -20.802   7.783  1.00  0.00     0.244 HD
ENDBRANCH  22  24
ENDBRANCH  15  20
BRANCH  16  26
HETATM   26  C20 UNL     1      28.317 -25.396   6.292  1.00  0.00     0.269 C
HETATM   27  O4  UNL     1      27.562 -26.332   6.762  1.00  0.00    -0.264 OA
BRANCH  26  28
HETATM   28  O5  UNL     1      29.456 -25.119   6.966  1.00  0.00    -0.326 OA
HETATM   29  C21 UNL     1      30.283 -26.226   7.410  1.00  0.00     0.213 C
ENDBRANCH  26  28
ENDBRANCH  16  26
ENDBRANCH  10  13
BRANCH   9  30
HETATM   30  O2  UNL     1      27.047 -24.617   1.593  1.00  0.00    -0.359 OA
ATOM     31  H2  UNL     1      26.641 -23.761   1.521  1.00  0.00     0.217 HD
ENDBRANCH   9  30
BRANCH   1  32
HETATM   32  C5  UNL     1      22.696 -31.430   3.876  1.00  0.00     0.030 C
BRANCH  32  33
HETATM   33  C4  UNL     1      23.076 -32.822   4.349  1.00  0.00     0.004 C
BRANCH  33  34
HETATM   34  C3  UNL     1      24.245 -33.275   3.558  1.00  0.00    -0.000 C
BRANCH  34  35
HETATM   35  C2  UNL     1      24.079 -33.253   2.071  1.00  0.00    -0.005 C
HETATM   36  C1  UNL     1      25.205 -32.617   1.355  1.00  0.00     0.005 C
ENDBRANCH  34  35
ENDBRANCH  33  34
ENDBRANCH  32  33
ENDBRANCH   1  32
TORSDOF 10
ENDMDL