MODEL 2
REMARK VINA RESULT: -8.929365446      0.885      1.052
REMARK  8 active torsions:
REMARK  status: ('A' for Active; 'I' for Inactive)
REMARK    1  A    between atoms: C2_2  and  N1_5
REMARK       I    between atoms: N1_5  and  C5_7
REMARK    2  A    between atoms: C5_7  and  C6_9
REMARK    3  A    between atoms: C6_9  and  S1_10
REMARK    4  A    between atoms: S1_10  and  C7_11
REMARK    5  A    between atoms: C9_16  and  S2_17
REMARK    6  A    between atoms: S2_17  and  C10_18
REMARK    7  A    between atoms: C16_24  and  O3_25
REMARK    8  A    between atoms: N3_27  and  C17_28
ROOT
HETATM    1  C7  UNL     1      25.458 -27.881   2.738  1.00  0.00     0.152 A
HETATM    2  N2  UNL     1      25.474 -28.163   4.063  1.00  0.00    -0.302 N
ATOM      3  H2  UNL     1      25.068 -29.042   4.385  1.00  0.00     0.171 HD
HETATM    4  C8  UNL     1      26.009 -27.323   4.971  1.00  0.00     0.268 A
HETATM    5  O2  UNL     1      26.041 -27.553   6.204  1.00  0.00    -0.267 OA
HETATM    6  C9  UNL     1      26.540 -26.155   4.467  1.00  0.00     0.124 A
HETATM    7  C16 UNL     1      26.506 -25.902   3.118  1.00  0.00     0.167 A
HETATM    8  N3  UNL     1      25.961 -26.764   2.200  1.00  0.00    -0.302 N
ENDROOT
BRANCH   1   9
HETATM    9  S1  UNL     1      24.770 -29.103   1.677  1.00  0.00    -0.084 SA
BRANCH   9  10
HETATM   10  C6  UNL     1      24.952 -30.742   2.405  1.00  0.00     0.185 C
BRANCH  10  11
HETATM   11  C5  UNL     1      23.674 -31.252   2.974  1.00  0.00     0.228 C
HETATM   12  N1  UNL     1      23.029 -32.386   2.421  1.00  0.00    -0.352 N
ATOM     13  H1  UNL     1      23.445 -32.860   1.619  1.00  0.00     0.163 HD
HETATM   14  O1  UNL     1      23.165 -30.654   3.968  1.00  0.00    -0.273 OA
BRANCH  12  15
HETATM   15  C2  UNL     1      21.779 -32.888   2.980  1.00  0.00     0.022 C
HETATM   16  C1  UNL     1      21.272 -34.003   2.095  1.00  0.00     0.037 C
HETATM   17  C3  UNL     1      22.066 -33.504   4.356  1.00  0.00     0.037 C
HETATM   18  C4  UNL     1      20.731 -31.826   3.146  1.00  0.00     0.037 C
ENDBRANCH  12  15
ENDBRANCH  10  11
ENDBRANCH   9  10
ENDBRANCH   1   9
BRANCH   8  19
HETATM   19  C17 UNL     1      26.024 -26.408   0.838  1.00  0.00     0.094 C
HETATM   20  C18 UNL     1      24.875 -26.599  -0.054  1.00  0.00     0.026 C
HETATM   21  C19 UNL     1      25.035 -25.626  -1.233  1.00  0.00     0.002 C
HETATM   22  C20 UNL     1      26.209 -26.140  -2.014  1.00  0.00     0.000 C
HETATM   23  C21 UNL     1      26.980 -27.213  -1.338  1.00  0.00     0.002 C
HETATM   24  C22 UNL     1      27.231 -27.046   0.121  1.00  0.00     0.026 C
ENDBRANCH   8  19
BRANCH   7  25
HETATM   25  O3  UNL     1      27.074 -24.687   2.718  1.00  0.00    -0.345 OA
ATOM     26  H3  UNL     1      26.486 -24.087   2.274  1.00  0.00     0.219 HD
ENDBRANCH   7  25
BRANCH   6  27
HETATM   27  S2  UNL     1      27.268 -25.013   5.638  1.00  0.00    -0.081 SA
BRANCH  27  28
HETATM   28  C10 UNL     1      26.021 -23.985   6.382  1.00  0.00     0.005 A
HETATM   29  C11 UNL     1      25.710 -22.728   5.851  1.00  0.00     0.019 A
HETATM   30  C12 UNL     1      24.735 -21.953   6.436  1.00  0.00     0.001 A
HETATM   31  C13 UNL     1      24.057 -22.383   7.534  1.00  0.00     0.000 A
HETATM   32  C14 UNL     1      24.334 -23.618   8.092  1.00  0.00     0.001 A
HETATM   33  C15 UNL     1      25.311 -24.373   7.490  1.00  0.00     0.019 A
ENDBRANCH  27  28
ENDBRANCH   6  27
TORSDOF 8
ENDMDL