MODEL 2
REMARK VINA RESULT: -7.172262327      5.258      8.434
REMARK  7 active torsions:
REMARK  status: ('A' for Active; 'I' for Inactive)
REMARK    1  A    between atoms: N2_5  and  C3_6
REMARK    2  A    between atoms: C3_6  and  C4_7
REMARK    3  A    between atoms: C11_14  and  N3_15
REMARK    4  A    between atoms: C12_16  and  C13_17
REMARK    5  A    between atoms: C16_22  and  C17_23
REMARK    6  A    between atoms: C17_23  and  O1_24
REMARK    7  A    between atoms: C19_28  and  C20_29
ROOT
HETATM    1  C1  UNL     1      30.573 -27.147   3.738  1.00  0.00     0.071 C
HETATM    2  C2  UNL     1      29.227 -26.491   3.956  1.00  0.00     0.038 A
HETATM    3  N1  UNL     1      28.210 -26.535   3.084  1.00  0.00    -0.300 N
ATOM      4  H1  UNL     1      28.250 -27.035   2.196  1.00  0.00     0.187 HD
HETATM    5  N2  UNL     1      27.149 -25.863   3.499  1.00  0.00    -0.275 N
HETATM    6  C11 UNL     1      27.482 -25.347   4.703  1.00  0.00     0.147 A
HETATM    7  C19 UNL     1      28.783 -25.731   5.009  1.00  0.00     0.060 A
ENDROOT
BRANCH   6   8
HETATM    8  N3  UNL     1      26.628 -24.516   5.500  1.00  0.00    -0.258 N
HETATM    9  C12 UNL     1      26.341 -23.203   5.265  1.00  0.00     0.095 A
HETATM   10  N4  UNL     1      25.501 -22.749   6.209  1.00  0.00    -0.343 N
HETATM   11  C16 UNL     1      25.220 -23.736   7.073  1.00  0.00     0.091 A
ATOM     12  H4  UNL     1      25.133 -21.800   6.261  1.00  0.00     0.167 HD
HETATM   13  C18 UNL     1      25.938 -24.826   6.605  1.00  0.00     0.222 A
HETATM   14  F1  UNL     1      25.905 -26.014   7.256  1.00  0.00    -0.183 F
BRANCH   9  15
HETATM   15  C13 UNL     1      26.878 -22.385   4.161  1.00  0.00     0.046 C
HETATM   16  C14 UNL     1      28.395 -22.569   4.053  1.00  0.00     0.017 C
HETATM   17  C15 UNL     1      26.624 -20.914   4.388  1.00  0.00     0.017 C
ENDBRANCH   9  15
BRANCH  11  18
HETATM   18  C17 UNL     1      24.336 -23.653   8.258  1.00  0.00     0.226 C
BRANCH  18  19
HETATM   19  O1  UNL     1      24.932 -22.881   9.242  1.00  0.00    -0.395 OA
ATOM     20  H1  UNL     1      25.168 -23.424   9.984  1.00  0.00     0.209 HD
ENDBRANCH  18  19
ENDBRANCH  11  18
ENDBRANCH   6   8
BRANCH   5  21
HETATM   21  C3  UNL     1      25.883 -25.796   2.758  1.00  0.00     0.155 C
BRANCH  21  22
HETATM   22  C4  UNL     1      25.327 -27.164   2.567  1.00  0.00     0.005 C
HETATM   23  C5  UNL     1      25.076 -27.967   3.800  1.00  0.00     0.007 C
HETATM   24  C6  UNL     1      24.700 -29.382   3.335  1.00  0.00     0.005 C
HETATM   25  C7  UNL     1      23.302 -29.308   2.770  1.00  0.00    -0.019 C
HETATM   26  C8  UNL     1      23.210 -30.286   1.636  1.00  0.00     0.010 C
HETATM   27  C9  UNL     1      22.921 -27.905   2.372  1.00  0.00     0.005 C
HETATM   28  C10 UNL     1      24.043 -27.140   1.751  1.00  0.00     0.007 C
ENDBRANCH  21  22
ENDBRANCH   5  21
BRANCH   7  29
HETATM   29  C20 UNL     1      29.571 -25.464   6.223  1.00  0.00     0.050 A
HETATM   30  C21 UNL     1      30.461 -26.300   6.830  1.00  0.00     0.047 A
HETATM   31  C22 UNL     1      30.926 -25.709   7.965  1.00  0.00     0.026 A
HETATM   32  C23 UNL     1      31.831 -26.111   8.939  1.00  0.00     0.104 A
HETATM   33  C25 UNL     1      30.339 -24.498   8.089  1.00  0.00     0.118 A
HETATM   34  N5  UNL     1      32.085 -25.278   9.965  1.00  0.00    -0.361 N
HETATM   35  C24 UNL     1      31.483 -24.072  10.064  1.00  0.00     0.181 A
ATOM     36  H5  UNL     1      32.749 -25.564  10.684  1.00  0.00     0.166 HD
HETATM   37  N6  UNL     1      30.602 -23.658   9.131  1.00  0.00    -0.338 N
ATOM     38  H6  UNL     1      30.146 -22.749   9.203  1.00  0.00     0.168 HD
HETATM   39  N7  UNL     1      29.524 -24.370   7.024  1.00  0.00    -0.341 N
ATOM     40  H7  UNL     1      28.944 -23.552   6.843  1.00  0.00     0.167 HD
ENDBRANCH   7  29
TORSDOF 7
ENDMDL