MODEL 4
REMARK VINA RESULT: -8.094673466      4.957      8.842
REMARK  8 active torsions:
REMARK  status: ('A' for Active; 'I' for Inactive)
REMARK    1  A    between atoms: C2_3  and  C3_4
REMARK    2  A    between atoms: N2_7  and  C6_8
REMARK    3  A    between atoms: C14_18  and  N4_19
REMARK    4  A    between atoms: N4_19  and  C15_21
REMARK    5  A    between atoms: C15_21  and  S2_23
REMARK    6  A    between atoms: S2_23  and  C16_24
REMARK    7  A    between atoms: C16_24  and  C17_25
REMARK    8  A    between atoms: C17_25  and  C19_28
ROOT
HETATM    1  C17 UNL     1      23.770 -22.025   7.559  1.00  0.00     0.164 C
HETATM    2  C18 UNL     1      23.454 -20.559   7.764  1.00  0.00     0.071 C
HETATM    3  N5  UNL     1      23.193 -19.447   7.919  1.00  0.00    -0.196 NA
ENDROOT
BRANCH   1   4
HETATM    4  C16 UNL     1      25.032 -22.026   6.779  1.00  0.00     0.108 C
BRANCH   4   5
HETATM    5  S2  UNL     1      25.562 -23.565   6.074  1.00  0.00    -0.099 SA
BRANCH   5   6
HETATM    6  C15 UNL     1      26.563 -23.391   4.645  1.00  0.00     0.139 C
HETATM    7  S1  UNL     1      27.247 -21.925   4.251  1.00  0.00    -0.053 SA
BRANCH   6   8
HETATM    8  N4  UNL     1      26.763 -24.431   3.716  1.00  0.00    -0.342 N
ATOM      9  H4  UNL     1      27.262 -24.215   2.853  1.00  0.00     0.167 HD
BRANCH   8  10
HETATM   10  C14 UNL     1      26.317 -25.743   3.906  1.00  0.00     0.035 A
HETATM   11  C13 UNL     1      26.569 -26.549   4.983  1.00  0.00     0.032 A
HETATM   12  C12 UNL     1      26.102 -27.868   5.054  1.00  0.00     0.034 A
HETATM   13  C11 UNL     1      25.365 -28.380   4.013  1.00  0.00     0.060 A
HETATM   14  N3  UNL     1      24.782 -29.585   3.774  1.00  0.00    -0.344 N
HETATM   15  C21 UNL     1      25.083 -27.609   2.906  1.00  0.00     0.064 A
HETATM   16  C2  UNL     1      24.164 -29.558   2.565  1.00  0.00     0.090 A
ATOM     17  H3  UNL     1      24.806 -30.385   4.405  1.00  0.00     0.167 HD
HETATM   18  N1  UNL     1      24.345 -28.364   2.038  1.00  0.00    -0.339 N
HETATM   19  C1  UNL     1      23.890 -27.830   0.776  1.00  0.00     0.158 C
HETATM   20  C20 UNL     1      25.559 -26.327   2.878  1.00  0.00     0.061 A
BRANCH  16  21
HETATM   21  C3  UNL     1      23.412 -30.679   1.930  1.00  0.00     0.083 C
HETATM   22  C4  UNL     1      21.988 -30.680   2.443  1.00  0.00     0.044 C
HETATM   23  C5  UNL     1      22.098 -31.428   3.737  1.00  0.00     0.274 C
HETATM   24  N2  UNL     1      23.239 -32.282   3.657  1.00  0.00     0.097 N
HETATM   25  C10 UNL     1      23.925 -32.019   2.411  1.00  0.00     0.285 C
BRANCH  24  26
HETATM   26  C6  UNL     1      22.997 -33.662   3.922  1.00  0.00     0.149 C
HETATM   27  C7  UNL     1      24.057 -34.460   3.158  1.00  0.00     0.048 C
HETATM   28  C8  UNL     1      23.217 -33.884   5.419  1.00  0.00     0.048 C
HETATM   29  C9  UNL     1      21.655 -34.148   3.487  1.00  0.00     0.048 C
ENDBRANCH  24  26
ENDBRANCH  16  21
ENDBRANCH   8  10
ENDBRANCH   6   8
ENDBRANCH   5   6
ENDBRANCH   4   5
ENDBRANCH   1   4
BRANCH   1  30
HETATM   30  C19 UNL     1      23.862 -22.633   8.878  1.00  0.00     0.092 C
HETATM   31  N6  UNL     1      24.984 -22.789   9.450  1.00  0.00    -0.392 N
ATOM     32  H62 UNL     1      25.827 -22.463   8.976  1.00  0.00     0.156 HD
ATOM     33  H61 UNL     1      25.049 -23.215  10.375  1.00  0.00     0.156 HD
HETATM   34 CL1  UNL     1      22.418 -23.191   9.691  1.00  0.00    -0.068 Cl
ENDBRANCH   1  30
TORSDOF 8
ENDMDL