MODEL 4
REMARK VINA RESULT: -7.892671106      3.716      7.685
REMARK  8 active torsions:
REMARK  status: ('A' for Active; 'I' for Inactive)
REMARK    1  A    between atoms: C2_2  and  C3_4
REMARK    2  A    between atoms: C4_5  and  O2_6
REMARK    3  A    between atoms: C5_8  and  O3_9
REMARK    4  A    between atoms: N1_11  and  C6_12
REMARK    5  A    between atoms: C6_12  and  C7_13
REMARK    6  A    between atoms: C7_13  and  N2_14
REMARK    7  A    between atoms: N3_17  and  C10_18
REMARK    8  A    between atoms: C18_26  and  C19_27
ROOT
HETATM    1  C3  UNL     1      28.551 -25.841   5.237  1.00  0.00     0.075 A
HETATM    2  C4  UNL     1      29.131 -26.442   4.122  1.00  0.00     0.133 A
HETATM    3  C5  UNL     1      28.101 -26.526   3.193  1.00  0.00     0.178 A
HETATM    4  N1  UNL     1      26.966 -26.013   3.691  1.00  0.00    -0.319 N
HETATM    5  C18 UNL     1      27.222 -25.586   4.945  1.00  0.00     0.071 A
ENDROOT
BRANCH   4   6
HETATM    6  C6  UNL     1      25.753 -25.913   2.937  1.00  0.00     0.175 C
BRANCH   6   7
HETATM    7  C7  UNL     1      25.455 -27.003   1.975  1.00  0.00     0.078 C
BRANCH   7   8
HETATM    8  N2  UNL     1      24.553 -28.011   2.282  1.00  0.00    -0.388 N
HETATM    9  C8  UNL     1      24.608 -28.718   3.499  1.00  0.00     0.152 C
HETATM   10  C9  UNL     1      24.598 -30.222   3.137  1.00  0.00     0.292 C
HETATM   11  N3  UNL     1      23.572 -30.471   2.178  1.00  0.00     0.096 N
HETATM   12  C16 UNL     1      22.629 -29.383   2.048  1.00  0.00     0.292 C
HETATM   13  C17 UNL     1      23.397 -28.181   1.479  1.00  0.00     0.152 C
BRANCH  11  14
HETATM   14  C10 UNL     1      22.925 -31.750   2.340  1.00  0.00     0.223 C
HETATM   15  C11 UNL     1      23.837 -32.691   3.075  1.00  0.00     0.036 C
HETATM   16  C12 UNL     1      23.082 -33.756   3.833  1.00  0.00     0.002 C
HETATM   17  C13 UNL     1      21.727 -34.014   3.226  1.00  0.00     0.000 C
HETATM   18  C14 UNL     1      20.883 -32.786   3.363  1.00  0.00     0.002 C
HETATM   19  C15 UNL     1      21.629 -31.504   3.084  1.00  0.00     0.036 C
ENDBRANCH  11  14
ENDBRANCH   7   8
ENDBRANCH   6   7
ENDBRANCH   4   6
BRANCH   3  20
HETATM   20  O3  UNL     1      28.263 -27.081   1.913  1.00  0.00    -0.344 OA
ATOM     21  H3  UNL     1      28.419 -26.559   1.135  1.00  0.00     0.219 HD
ENDBRANCH   3  20
BRANCH   5  22
HETATM   22  C19 UNL     1      26.278 -24.804   5.792  1.00  0.00     0.034 A
HETATM   23  C20 UNL     1      25.746 -25.113   7.016  1.00  0.00     0.023 A
HETATM   24  C21 UNL     1      24.960 -24.205   7.609  1.00  0.00     0.033 A
HETATM   25  C22 UNL     1      24.738 -23.027   6.959  1.00  0.00     0.075 A
HETATM   26 CL1  UNL     1      23.746 -21.661   7.507  1.00  0.00    -0.076 Cl
HETATM   27  S1  UNL     1      25.635 -23.219   5.538  1.00  0.00    -0.076 SA
ENDBRANCH   5  22
BRANCH   2  28
HETATM   28  O2  UNL     1      30.385 -26.898   3.836  1.00  0.00    -0.356 OA
ATOM     29  H2  UNL     1      30.831 -27.142   3.034  1.00  0.00     0.218 HD
ENDBRANCH   2  28
BRANCH   1  30
HETATM   30  C2  UNL     1      29.275 -25.598   6.477  1.00  0.00     0.160 C
HETATM   31  C1  UNL     1      30.272 -26.545   7.028  1.00  0.00     0.097 C
HETATM   32  O1  UNL     1      29.095 -24.565   7.160  1.00  0.00    -0.293 OA
ENDBRANCH   1  30
TORSDOF 8
ENDMDL