MODEL 3
REMARK VINA RESULT: -7.985831774      0.820      1.664
REMARK  8 active torsions:
REMARK  status: ('A' for Active; 'I' for Inactive)
REMARK    1  A    between atoms: C2_2  and  C3_3
REMARK    2  A    between atoms: C3_3  and  C4_4
REMARK    3  A    between atoms: C4_4  and  C5_5
REMARK    4  A    between atoms: C5_5  and  C6_6
REMARK    5  A    between atoms: C6_6  and  O1_7
REMARK    6  A    between atoms: O1_7  and  C7_8
REMARK    7  A    between atoms: C7_8  and  C8_10
REMARK    8  A    between atoms: N1_13  and  C11_14
ROOT
HETATM    1  C8  UNL     1      24.448 -29.234   3.493  1.00  0.00     0.103 C
HETATM    2  C9  UNL     1      24.878 -28.698   2.391  1.00  0.00     0.033 C
HETATM    3  C10 UNL     1      24.085 -29.122   1.166  1.00  0.00     0.070 C
HETATM    4  N1  UNL     1      25.796 -27.595   2.223  1.00  0.00    -0.324 N
HETATM    5  C14 UNL     1      26.381 -26.864   3.346  1.00  0.00     0.079 A
HETATM    6  C15 UNL     1      26.102 -27.313   4.631  1.00  0.00     0.076 A
HETATM    7  S1  UNL     1      26.613 -26.121   5.711  1.00  0.00    -0.061 SA
HETATM    8  C16 UNL     1      27.186 -25.020   4.573  1.00  0.00     0.097 A
HETATM    9  N2  UNL     1      27.665 -23.751   4.756  1.00  0.00    -0.302 N
ATOM     10  H2  UNL     1      27.806 -23.407   5.706  1.00  0.00     0.171 HD
HETATM   11  C17 UNL     1      27.953 -22.952   3.729  1.00  0.00     0.328 A
HETATM   12  O3  UNL     1      28.391 -21.806   3.940  1.00  0.00    -0.247 OA
HETATM   13  N3  UNL     1      27.744 -23.462   2.540  1.00  0.00    -0.275 N
ATOM     14  H3  UNL     1      27.951 -22.871   1.736  1.00  0.00     0.173 HD
HETATM   15  C18 UNL     1      27.269 -24.725   2.285  1.00  0.00     0.264 A
HETATM   16  O4  UNL     1      27.159 -24.889   1.102  1.00  0.00    -0.267 OA
HETATM   17  C19 UNL     1      26.972 -25.593   3.317  1.00  0.00     0.095 A
HETATM   18  S2  UNL     1      25.392 -28.933   4.967  1.00  0.00    -0.072 SA
ENDROOT
BRANCH   1  19
HETATM   19  C7  UNL     1      23.362 -30.128   3.664  1.00  0.00     0.302 C
HETATM   20  O2  UNL     1      22.344 -30.132   2.935  1.00  0.00    -0.259 OA
BRANCH  19  21
HETATM   21  O1  UNL     1      23.353 -31.104   4.698  1.00  0.00    -0.317 OA
BRANCH  21  22
HETATM   22  C6  UNL     1      24.230 -32.199   4.526  1.00  0.00     0.179 C
BRANCH  22  23
HETATM   23  C5  UNL     1      23.654 -33.464   5.126  1.00  0.00     0.027 C
BRANCH  23  24
HETATM   24  C4  UNL     1      22.815 -34.229   4.161  1.00  0.00     0.002 C
BRANCH  24  25
HETATM   25  C3  UNL     1      21.350 -33.940   4.274  1.00  0.00    -0.000 C
BRANCH  25  26
HETATM   26  C2  UNL     1      20.889 -33.322   2.970  1.00  0.00    -0.005 C
HETATM   27  C1  UNL     1      21.218 -34.181   1.790  1.00  0.00     0.005 C
ENDBRANCH  25  26
ENDBRANCH  24  25
ENDBRANCH  23  24
ENDBRANCH  22  23
ENDBRANCH  21  22
ENDBRANCH  19  21
ENDBRANCH   1  19
BRANCH   4  28
HETATM   28  C11 UNL     1      26.560 -27.659   0.983  1.00  0.00     0.107 C
HETATM   29  C12 UNL     1      26.248 -27.065  -0.272  1.00  0.00     0.056 C
HETATM   30  C13 UNL     1      26.451 -29.230   0.589  1.00  0.00     0.056 C
HETATM   31 CL1  UNL     1      28.374 -27.789   1.292  1.00  0.00    -0.096 Cl
ENDBRANCH   4  28
TORSDOF 8
ENDMDL