MODEL 4
REMARK VINA RESULT: -8.880532200      3.750      7.589
REMARK  8 active torsions:
REMARK  status: ('A' for Active; 'I' for Inactive)
REMARK    1  A    between atoms: C4_4  and  C5_5
REMARK    2  A    between atoms: C5_5  and  N1_6
REMARK    3  A    between atoms: C5_5  and  C6_10
REMARK    4  A    between atoms: C6_10  and  C7_11
REMARK    5  A    between atoms: C8_13  and  N2_14
REMARK       I    between atoms: N2_14  and  C9_16
REMARK    6  A    between atoms: C9_16  and  C10_18
REMARK    7  A    between atoms: C14_27  and  C15_28
REMARK    8  A    between atoms: C16_29  and  C17_30
ROOT
HETATM    1  C7  UNL     1      25.126 -28.926   3.216  1.00  0.00     0.015 A
HETATM    2  S1  UNL     1      25.970 -27.423   3.470  1.00  0.00    -0.056 SA
HETATM    3  C8  UNL     1      25.923 -27.421   5.159  1.00  0.00     0.152 A
HETATM    4  N4  UNL     1      25.283 -28.535   5.460  1.00  0.00    -0.336 N
ATOM      5  H4  UNL     1      25.113 -28.784   6.434  1.00  0.00     0.168 HD
HETATM    6  C14 UNL     1      24.861 -29.330   4.480  1.00  0.00     0.047 A
ENDROOT
BRANCH   1   7
HETATM    7  C6  UNL     1      24.835 -29.513   1.864  1.00  0.00     0.088 C
BRANCH   7   8
HETATM    8  C5  UNL     1      23.711 -28.725   1.202  1.00  0.00     0.247 C
BRANCH   8   9
HETATM    9  C4  UNL     1      24.272 -27.670   0.327  1.00  0.00     0.109 A
HETATM   10  C3  UNL     1      25.566 -27.505  -0.114  1.00  0.00     0.063 A
HETATM   11  C2  UNL     1      25.589 -26.379  -0.899  1.00  0.00     0.031 A
HETATM   12  C1  UNL     1      26.798 -25.834  -1.583  1.00  0.00     0.070 C
HETATM   13  N5  UNL     1      24.341 -25.908  -0.911  1.00  0.00    -0.266 N
HETATM   14  O3  UNL     1      23.581 -26.689  -0.178  1.00  0.00    -0.240 OA
ATOM     15  H5  UNL     1      24.028 -25.074  -1.408  1.00  0.00     0.194 HD
ENDBRANCH   8   9
BRANCH   8  16
HETATM   16  N1  UNL     1      22.826 -28.138   2.180  1.00  0.00    -0.069 N
ATOM     17  H13 UNL     1      22.231 -28.838   2.624  1.00  0.00     0.275 HD
ATOM     18  H12 UNL     1      23.330 -27.821   3.009  1.00  0.00     0.275 HD
ATOM     19  H11 UNL     1      22.282 -27.389   1.753  1.00  0.00     0.275 HD
ENDBRANCH   8  16
ENDBRANCH   7   8
ENDBRANCH   1   7
BRANCH   6  20
HETATM   20  C15 UNL     1      24.129 -30.560   4.824  1.00  0.00     0.027 C
HETATM   21  C16 UNL     1      23.315 -31.255   4.108  1.00  0.00    -0.017 C
BRANCH  21  22
HETATM   22  C17 UNL     1      22.672 -32.520   4.705  1.00  0.00     0.042 C
HETATM   23  C18 UNL     1      23.738 -33.613   4.742  1.00  0.00     0.011 C
HETATM   24  C19 UNL     1      24.362 -33.793   3.406  1.00  0.00     0.001 C
HETATM   25  C20 UNL     1      23.426 -33.886   2.261  1.00  0.00     0.003 C
HETATM   26  C21 UNL     1      22.177 -33.078   2.386  1.00  0.00     0.038 C
HETATM   27  C22 UNL     1      21.604 -33.029   3.760  1.00  0.00     0.177 C
HETATM   28  F1  UNL     1      20.568 -32.111   3.758  1.00  0.00    -0.249 F
ENDBRANCH  21  22
ENDBRANCH   6  20
BRANCH   3  29
HETATM   29  N2  UNL     1      26.408 -26.521   6.008  1.00  0.00    -0.302 N
HETATM   30  C9  UNL     1      26.698 -25.210   5.619  1.00  0.00     0.276 C
HETATM   31  O1  UNL     1      27.566 -25.008   4.726  1.00  0.00    -0.266 OA
ATOM     32  H2  UNL     1      26.574 -26.796   6.976  1.00  0.00     0.171 HD
BRANCH  30  33
HETATM   33  C10 UNL     1      26.004 -24.093   6.240  1.00  0.00     0.125 A
HETATM   34  C11 UNL     1      25.219 -24.142   7.366  1.00  0.00     0.071 A
HETATM   35  C12 UNL     1      24.771 -22.860   7.587  1.00  0.00     0.075 A
HETATM   36  C13 UNL     1      23.882 -22.474   8.720  1.00  0.00     0.079 C
HETATM   37  O2  UNL     1      25.256 -22.085   6.651  1.00  0.00    -0.242 OA
HETATM   38  N3  UNL     1      25.981 -22.808   5.859  1.00  0.00    -0.256 N
ATOM     39  H3  UNL     1      26.475 -22.445   5.044  1.00  0.00     0.195 HD
ENDBRANCH  30  33
ENDBRANCH   3  29
TORSDOF 8
ENDMDL