MODEL 3
REMARK VINA RESULT: -7.827804003      3.401      7.698
REMARK  8 active torsions:
REMARK  status: ('A' for Active; 'I' for Inactive)
REMARK    1  A    between atoms: C2_2  and  C3_3
REMARK    2  A    between atoms: C8_10  and  O1_11
REMARK    3  A    between atoms: N1_13  and  C9_14
REMARK    4  A    between atoms: C9_14  and  C10_15
REMARK    5  A    between atoms: N2_20  and  C15_21
REMARK    6  A    between atoms: C15_21  and  C16_22
REMARK    7  A    between atoms: C21_28  and  O2_29
REMARK    8  A    between atoms: C23_31  and  O3_32
ROOT
HETATM    1  C9  UNL     1      24.163 -28.594   3.165  1.00  0.00     0.110 C
ENDROOT
BRANCH   1   2
HETATM    2  N1  UNL     1      23.801 -29.945   3.522  1.00  0.00    -0.284 N
HETATM    3  C8  UNL     1      22.864 -30.682   2.907  1.00  0.00     0.157 A
HETATM    4  C7  UNL     1      22.772 -31.925   3.524  1.00  0.00     0.029 A
HETATM    5  C3  UNL     1      22.088 -33.233   3.222  1.00  0.00     0.042 C
HETATM    6  C6  UNL     1      23.650 -31.953   4.532  1.00  0.00     0.055 A
HETATM    7  C4  UNL     1      20.771 -33.156   2.616  1.00  0.00     0.032 C
HETATM    8  S1  UNL     1      22.086 -33.950   4.913  1.00  0.00    -0.102 SA
HETATM    9  C5  UNL     1      23.667 -33.157   5.365  1.00  0.00     0.084 C
HETATM   10  S2  UNL     1      24.716 -33.726   6.432  1.00  0.00    -0.071 SA
HETATM   11  C23 UNL     1      24.298 -30.707   4.528  1.00  0.00     0.161 A
BRANCH   3  12
HETATM   12  O1  UNL     1      22.106 -30.247   1.818  1.00  0.00    -0.345 OA
ATOM     13  H1  UNL     1      22.406 -30.181   0.918  1.00  0.00     0.219 HD
ENDBRANCH   3  12
BRANCH   5  14
HETATM   14  C2  UNL     1      23.086 -34.117   2.453  1.00  0.00     0.021 C
HETATM   15  C1  UNL     1      23.622 -33.494   1.223  1.00  0.00     0.007 C
ENDBRANCH   5  14
BRANCH  11  16
HETATM   16  O3  UNL     1      25.282 -30.335   5.433  1.00  0.00    -0.345 OA
ATOM     17  H3  UNL     1      25.952 -29.685   5.259  1.00  0.00     0.219 HD
ENDBRANCH  11  16
ENDBRANCH   1   2
BRANCH   1  18
HETATM   18  C10 UNL     1      25.044 -28.450   2.029  1.00  0.00     0.262 C
HETATM   19  C11 UNL     1      25.735 -29.704   1.607  1.00  0.00     0.041 C
HETATM   20  C12 UNL     1      26.129 -29.381   0.134  1.00  0.00     0.004 C
HETATM   21  C13 UNL     1      27.170 -28.294   0.242  1.00  0.00     0.030 C
HETATM   22  C14 UNL     1      26.745 -27.141   1.129  1.00  0.00     0.273 C
HETATM   23  N2  UNL     1      26.189 -27.532   2.352  1.00  0.00     0.102 N
BRANCH  23  24
HETATM   24  C15 UNL     1      25.697 -26.484   3.165  1.00  0.00     0.318 C
BRANCH  24  25
HETATM   25  C16 UNL     1      26.586 -25.997   4.227  1.00  0.00     0.042 A
HETATM   26  C17 UNL     1      26.545 -26.659   5.472  1.00  0.00     0.127 A
HETATM   27  F1  UNL     1      25.861 -27.813   5.561  1.00  0.00    -0.205 F
HETATM   28  C18 UNL     1      27.207 -26.083   6.531  1.00  0.00     0.043 A
HETATM   29  C19 UNL     1      27.889 -24.905   6.424  1.00  0.00     0.006 A
HETATM   30  C20 UNL     1      27.920 -24.270   5.207  1.00  0.00     0.037 A
HETATM   31  C21 UNL     1      27.275 -24.812   4.109  1.00  0.00     0.079 A
BRANCH  31  32
HETATM   32  O2  UNL     1      27.325 -24.128   2.892  1.00  0.00    -0.355 OA
HETATM   33  C22 UNL     1      28.478 -24.100   2.068  1.00  0.00     0.210 C
ENDBRANCH  31  32
ENDBRANCH  24  25
ENDBRANCH  23  24
ENDBRANCH   1  18
TORSDOF 8
ENDMDL