MODEL 2
REMARK VINA RESULT: -6.038243426      2.788      5.430
REMARK  1 active torsions:
REMARK  status: ('A' for Active; 'I' for Inactive)
REMARK    1  A    between atoms: C7_11  and  N3_12
ROOT
HETATM    1  N3  UNL     1      15.109 -23.771  -6.503  1.00  0.00    -0.237 N
HETATM    2  N4  UNL     1      15.289 -24.834  -7.260  1.00  0.00    -0.127 N
ATOM      3  H4  UNL     1      16.084 -24.978  -7.882  1.00  0.00     0.206 HD
HETATM    4  C8  UNL     1      14.273 -25.704  -7.096  1.00  0.00     0.692 A
HETATM    5  N5  UNL     1      14.180 -26.839  -7.711  1.00  0.00    -0.233 N
ATOM      6  H51 UNL     1      13.411 -27.498  -7.587  1.00  0.00     0.174 HD
ATOM      7  H52 UNL     1      14.816 -27.259  -8.389  1.00  0.00     0.174 HD
HETATM    8  N6  UNL     1      13.442 -25.155  -6.210  1.00  0.00    -0.164 N
ATOM      9  H6  UNL     1      12.571 -25.559  -5.865  1.00  0.00     0.186 HD
HETATM   10  C9  UNL     1      13.963 -23.974  -5.855  1.00  0.00     0.221 A
HETATM   11  C10 UNL     1      13.366 -23.075  -4.917  1.00  0.00     0.139 C
HETATM   12  N7  UNL     1      12.881 -22.362  -4.145  1.00  0.00    -0.188 NA
ENDROOT
BRANCH   1  13
HETATM   13  C7  UNL     1      16.025 -22.649  -6.450  1.00  0.00     0.212 A
HETATM   14  C3  UNL     1      15.416 -21.401  -6.905  1.00  0.00     0.087 A
HETATM   15  C2  UNL     1      15.450 -20.245  -6.194  1.00  0.00     0.140 A
HETATM   16  C4  UNL     1      14.748 -21.343  -8.136  1.00  0.00     0.263 A
HETATM   17  N1  UNL     1      14.876 -19.089  -6.636  1.00  0.00    -0.288 N
HETATM   18  N9  UNL     1      16.113 -20.225  -4.930  1.00  0.00    -0.284 N
HETATM   19  C1  UNL     1      14.962 -17.903  -5.813  1.00  0.00     0.163 C
HETATM   20  C6  UNL     1      14.248 -19.067  -7.811  1.00  0.00     0.332 A
HETATM   21  N2  UNL     1      14.199 -20.198  -8.536  1.00  0.00    -0.270 N
HETATM   22  O2  UNL     1      13.696 -18.033  -8.280  1.00  0.00    -0.246 OA
HETATM   23  C5  UNL     1      13.509 -20.172  -9.826  1.00  0.00     0.164 C
HETATM   24  N8  UNL     1      16.688 -21.402  -4.498  1.00  0.00    -0.293 N
ATOM     25  H9  UNL     1      16.158 -19.375  -4.368  1.00  0.00     0.188 HD
HETATM   26  C11 UNL     1      16.670 -22.502  -5.145  1.00  0.00     0.102 A
ATOM     27  H8  UNL     1      17.161 -21.392  -3.595  1.00  0.00     0.187 HD
HETATM   28  S1  UNL     1      17.483 -23.915  -4.394  1.00  0.00    -0.034 SA
HETATM   29  O1  UNL     1      14.717 -22.414  -8.792  1.00  0.00    -0.267 OA
ENDBRANCH   1  13
TORSDOF 1
ENDMDL