MODEL 4
REMARK VINA RESULT: -5.830994351      1.980      2.533
REMARK  3 active torsions:
REMARK  status: ('A' for Active; 'I' for Inactive)
REMARK    1  A    between atoms: C2_5  and  C3_6
REMARK    2  A    between atoms: N6_19  and  O3_20
REMARK    3  A    between atoms: C10_22  and  N7_23
ROOT
HETATM    1  C3  UNL     1      14.749 -21.727  -7.160  1.00  0.00     0.099 A
HETATM    2  N3  UNL     1      14.560 -21.813  -8.504  1.00  0.00    -0.294 N
ATOM      3  H3  UNL     1      14.792 -22.638  -9.058  1.00  0.00     0.187 HD
HETATM    4  N4  UNL     1      14.049 -20.726  -9.007  1.00  0.00    -0.278 N
HETATM    5  C4  UNL     1      13.729 -20.502 -10.404  1.00  0.00     0.179 C
HETATM    6  C5  UNL     1      13.865 -19.842  -8.019  1.00  0.00     0.172 A
HETATM    7  C6  UNL     1      14.303 -20.464  -6.854  1.00  0.00     0.111 A
HETATM    8  C7  UNL     1      14.208 -19.736  -5.702  1.00  0.00     0.267 A
HETATM    9  O1  UNL     1      14.577 -20.220  -4.621  1.00  0.00    -0.267 OA
HETATM   10  N5  UNL     1      13.711 -18.466  -5.691  1.00  0.00    -0.268 N
HETATM   11  C8  UNL     1      13.655 -17.788  -4.423  1.00  0.00     0.164 C
HETATM   12  C9  UNL     1      13.300 -17.904  -6.836  1.00  0.00     0.357 A
HETATM   13  O2  UNL     1      12.843 -16.726  -6.804  1.00  0.00    -0.244 OA
HETATM   14  N6  UNL     1      13.387 -18.601  -7.964  1.00  0.00    -0.153 N
ENDROOT
BRANCH   1  15
HETATM   15  C2  UNL     1      15.297 -22.760  -6.304  1.00  0.00     0.121 A
HETATM   16  N2  UNL     1      14.606 -23.736  -5.720  1.00  0.00    -0.291 N
HETATM   17  N1  UNL     1      15.097 -24.678  -4.940  1.00  0.00    -0.271 N
ATOM     18  H2  UNL     1      13.600 -23.756  -5.892  1.00  0.00     0.187 HD
HETATM   19  C1  UNL     1      14.217 -25.684  -4.369  1.00  0.00     0.180 C
HETATM   20  C11 UNL     1      16.426 -24.699  -4.678  1.00  0.00     0.194 A
HETATM   21  N8  UNL     1      17.189 -23.771  -5.214  1.00  0.00    -0.316 N
HETATM   22  S1  UNL     1      16.998 -25.885  -3.705  1.00  0.00    -0.039 SA
HETATM   23  C10 UNL     1      16.669 -22.801  -6.019  1.00  0.00     0.132 A
ATOM     24  H8  UNL     1      18.191 -23.777  -5.023  1.00  0.00     0.170 HD
BRANCH  23  25
HETATM   25  N7  UNL     1      17.502 -21.984  -6.461  1.00  0.00    -0.383 N
ATOM     26  H72 UNL     1      17.504 -21.078  -5.992  1.00  0.00     0.157 HD
ATOM     27  H71 UNL     1      18.144 -22.178  -7.229  1.00  0.00     0.157 HD
ENDBRANCH  23  25
ENDBRANCH   1  15
BRANCH  14  28
HETATM   28  O3  UNL     1      12.959 -17.998  -9.119  1.00  0.00    -0.277 OA
ATOM     29  H3  UNL     1      13.066 -18.454  -9.945  1.00  0.00     0.245 HD
ENDBRANCH  14  28
TORSDOF 3
ENDMDL