MODEL 1
REMARK VINA RESULT: -5.870876411      0.000      0.000
REMARK  4 active torsions:
REMARK  status: ('A' for Active; 'I' for Inactive)
REMARK    1  A    between atoms: O1_2  and  C2_3
REMARK       I    between atoms: C2_3  and  N1_5
REMARK    2  A    between atoms: C9_20  and  N5_21
REMARK    3  A    between atoms: N5_21  and  O5_23
REMARK    4  A    between atoms: C10_25  and  N6_26
ROOT
HETATM    1  C2  UNL     1      15.545 -23.217  -8.827  1.00  0.00     0.364 C
HETATM    2  O2  UNL     1      15.524 -24.456  -8.592  1.00  0.00    -0.238 OA
HETATM    3  N1  UNL     1      15.773 -22.685 -10.122  1.00  0.00    -0.295 N
ATOM      4  H1  UNL     1      14.994 -22.341 -10.683  1.00  0.00     0.171 HD
HETATM    5  C3  UNL     1      16.973 -22.643 -10.578  1.00  0.00     0.143 A
HETATM    6  C4  UNL     1      18.193 -23.088  -9.916  1.00  0.00     0.318 A
HETATM    7  O3  UNL     1      18.280 -23.601  -8.755  1.00  0.00    -0.257 OA
HETATM    8  O4  UNL     1      19.267 -22.847 -10.790  1.00  0.00    -0.265 OA
HETATM    9  C5  UNL     1      18.779 -22.274 -11.969  1.00  0.00     0.178 A
HETATM   10  C6  UNL     1      17.414 -22.136 -11.881  1.00  0.00     0.121 A
HETATM   11  N2  UNL     1      16.716 -21.607 -12.895  1.00  0.00    -0.185 N
ATOM     12  H2  UNL     1      15.704 -21.504 -12.833  1.00  0.00     0.184 HD
HETATM   13  C7  UNL     1      17.380 -21.213 -14.001  1.00  0.00     0.695 A
HETATM   14  N3  UNL     1      16.663 -20.679 -15.021  1.00  0.00    -0.175 N
ATOM     15  H3  UNL     1      15.651 -20.588 -14.928  1.00  0.00     0.185 HD
HETATM   16  C8  UNL     1      17.261 -20.269 -16.146  1.00  0.00     0.164 A
HETATM   17  N4  UNL     1      16.471 -19.709 -17.203  1.00  0.00    -0.080 NA
HETATM   18  C9  UNL     1      18.602 -20.391 -16.262  1.00  0.00     0.140 A
HETATM   19  C10 UNL     1      19.395 -20.941 -15.230  1.00  0.00     0.158 A
HETATM   20  N7  UNL     1      18.728 -21.335 -14.120  1.00  0.00    -0.091 N
HETATM   21  C11 UNL     1      19.447 -21.864 -13.114  1.00  0.00     0.304 A
HETATM   22  O6  UNL     1      20.711 -22.008 -13.159  1.00  0.00    -0.264 OA
ENDROOT
BRANCH   1  23
HETATM   23  O1  UNL     1      15.329 -22.377  -7.726  1.00  0.00    -0.309 OA
HETATM   24  C1  UNL     1      14.567 -21.212  -7.854  1.00  0.00     0.215 C
ENDBRANCH   1  23
BRANCH  19  25
HETATM   25  N6  UNL     1      20.612 -20.998 -15.460  1.00  0.00    -0.383 N
ATOM     26  H62 UNL     1      21.087 -21.039 -16.362  1.00  0.00     0.157 HD
ATOM     27  H61 UNL     1      21.217 -21.006 -14.639  1.00  0.00     0.157 HD
ENDBRANCH  19  25
BRANCH  18  28
HETATM   28  N5  UNL     1      19.220 -19.947 -17.471  1.00  0.00    -0.262 N
ATOM     29  H5  UNL     1      19.596 -19.002 -17.537  1.00  0.00     0.194 HD
BRANCH  28  30
HETATM   30  O5  UNL     1      19.296 -20.732 -18.455  1.00  0.00    -0.289 OA
ATOM     31  H5  UNL     1      18.719 -20.607 -19.200  1.00  0.00     0.244 HD
ENDBRANCH  28  30
ENDBRANCH  18  28
TORSDOF 4
ENDMDL