MODEL 4
REMARK VINA RESULT: -5.438391271      3.769      5.783
REMARK  3 active torsions:
REMARK  status: ('A' for Active; 'I' for Inactive)
REMARK    1  A    between atoms: C2_3  and  N2_4
REMARK    2  A    between atoms: C5_14  and  C6_15
REMARK    3  A    between atoms: N6_21  and  N7_22
ROOT
HETATM    1  C1  UNL     1      20.320 -22.151 -13.462  1.00  0.00     0.179 C
HETATM    2  N1  UNL     1      19.057 -22.160 -12.737  1.00  0.00    -0.150 N
HETATM    3  C2  UNL     1      18.002 -21.572 -13.297  1.00  0.00     0.681 A
HETATM    4  N3  UNL     1      16.835 -21.575 -12.639  1.00  0.00    -0.184 N
ATOM      5  H3  UNL     1      16.016 -21.131 -13.052  1.00  0.00     0.184 HD
HETATM    6  C3  UNL     1      16.743 -22.171 -11.414  1.00  0.00     0.149 A
HETATM    7  C4  UNL     1      15.547 -22.176 -10.734  1.00  0.00     0.277 A
HETATM    8  O1  UNL     1      14.557 -21.621 -11.268  1.00  0.00    -0.266 OA
HETATM    9  N4  UNL     1      15.506 -22.779  -9.528  1.00  0.00    -0.304 N
ATOM     10  H4  UNL     1      14.623 -22.786  -9.017  1.00  0.00     0.171 HD
HETATM   11  C5  UNL     1      16.571 -23.367  -8.971  1.00  0.00     0.156 A
HETATM   12  N8  UNL     1      17.763 -23.381  -9.613  1.00  0.00    -0.333 N
ATOM     13  H8  UNL     1      18.581 -23.827  -9.198  1.00  0.00     0.168 HD
HETATM   14  C8  UNL     1      17.829 -22.786 -10.816  1.00  0.00     0.136 A
HETATM   15  C9  UNL     1      19.026 -22.761 -11.538  1.00  0.00     0.290 A
HETATM   16  O2  UNL     1      20.023 -23.305 -11.030  1.00  0.00    -0.265 OA
ENDROOT
BRANCH  11  17
HETATM   17  C6  UNL     1      16.401 -24.000  -7.632  1.00  0.00     0.179 A
HETATM   18  N5  UNL     1      15.772 -25.173  -7.514  1.00  0.00    -0.305 N
HETATM   19  S1  UNL     1      15.818 -25.488  -5.867  1.00  0.00     0.019 SA
ATOM     20  H5  UNL     1      15.361 -25.744  -8.252  1.00  0.00     0.176 HD
HETATM   21  C7  UNL     1      16.648 -24.091  -5.380  1.00  0.00     0.181 A
HETATM   22  S2  UNL     1      17.096 -23.644  -3.849  1.00  0.00    -0.049 SA
HETATM   23  N6  UNL     1      16.852 -23.443  -6.529  1.00  0.00    -0.223 N
BRANCH  23  24
HETATM   24  N7  UNL     1      17.547 -22.184  -6.497  1.00  0.00    -0.335 N
ATOM     25  H72 UNL     1      17.165 -21.402  -7.028  1.00  0.00     0.177 HD
ATOM     26  H71 UNL     1      18.406 -22.024  -5.970  1.00  0.00     0.177 HD
ENDBRANCH  23  24
ENDBRANCH  11  17
BRANCH   3  27
HETATM   27  N2  UNL     1      18.068 -20.996 -14.466  1.00  0.00    -0.234 N
ATOM     28  H22 UNL     1      18.865 -21.195 -15.071  1.00  0.00     0.174 HD
ATOM     29  H21 UNL     1      17.349 -20.351 -14.794  1.00  0.00     0.174 HD
ENDBRANCH   3  27
TORSDOF 3
ENDMDL