MODEL 3
REMARK VINA RESULT: -6.393531857      1.554      3.507
REMARK  6 active torsions:
REMARK  status: ('A' for Active; 'I' for Inactive)
REMARK    1  A    between atoms: N1_2  and  C2_5
REMARK    2  A    between atoms: C2_5  and  O1_7
REMARK    3  A    between atoms: C2_5  and  C4_9
REMARK    4  A    between atoms: C5_10  and  C6_11
REMARK    5  A    between atoms: C8_16  and  N3_17
REMARK    6  A    between atoms: C9_22  and  N5_23
ROOT
HETATM    1  C6  UNL     1      16.946 -22.667 -11.208  1.00  0.00     0.067 A
HETATM    2  S1  UNL     1      15.840 -22.150 -12.385  1.00  0.00    -0.061 SA
HETATM    3  C7  UNL     1      16.969 -21.726 -13.616  1.00  0.00     0.106 A
HETATM    4  N2  UNL     1      16.764 -21.229 -14.851  1.00  0.00    -0.185 N
ATOM      5  H2  UNL     1      15.817 -21.051 -15.184  1.00  0.00     0.185 HD
HETATM    6  C8  UNL     1      17.832 -20.968 -15.648  1.00  0.00     0.678 A
HETATM    7  N4  UNL     1      19.006 -21.221 -15.158  1.00  0.00    -0.172 N
ATOM      8  H4  UNL     1      19.809 -21.026 -15.754  1.00  0.00     0.186 HD
HETATM    9  C9  UNL     1      19.263 -21.725 -13.909  1.00  0.00     0.176 A
HETATM   10  C10 UNL     1      18.197 -22.006 -13.063  1.00  0.00     0.054 A
HETATM   11  C11 UNL     1      18.178 -22.497 -11.807  1.00  0.00    -0.019 A
HETATM   12  C12 UNL     1      19.390 -22.882 -11.001  1.00  0.00     0.051 C
ENDROOT
BRANCH   1  13
HETATM   13  C5  UNL     1      16.637 -23.166  -9.888  1.00  0.00    -0.054 C
HETATM   14  C4  UNL     1      16.359 -23.575  -8.778  1.00  0.00    -0.033 C
BRANCH  14  15
HETATM   15  C2  UNL     1      16.034 -24.045  -7.432  1.00  0.00     0.285 C
HETATM   16  C3  UNL     1      17.015 -23.430  -6.484  1.00  0.00     0.094 C
BRANCH  15  17
HETATM   17  N1  UNL     1      16.002 -25.486  -7.359  1.00  0.00    -0.036 N
HETATM   18  C1  UNL     1      15.626 -25.992  -6.073  1.00  0.00     0.271 C
ATOM     19  H12 UNL     1      16.896 -25.880  -7.652  1.00  0.00     0.281 HD
ATOM     20  H11 UNL     1      15.399 -25.869  -8.087  1.00  0.00     0.281 HD
ENDBRANCH  15  17
BRANCH  15  21
HETATM   21  O1  UNL     1      14.752 -23.599  -7.046  1.00  0.00    -0.356 OA
ATOM     22  H1  UNL     1      14.139 -24.271  -7.324  1.00  0.00     0.213 HD
ENDBRANCH  15  21
ENDBRANCH  14  15
ENDBRANCH   1  13
BRANCH   9  23
HETATM   23  N5  UNL     1      20.644 -21.907 -13.601  1.00  0.00    -0.153 N
HETATM   24  N6  UNL     1      21.392 -22.885 -14.026  1.00  0.00    -0.204 N
HETATM   25  N7  UNL     1      22.611 -22.794 -13.524  1.00  0.00     0.010 NA
ATOM     26  H6  UNL     1      21.079 -23.621 -14.660  1.00  0.00     0.207 HD
HETATM   27  N8  UNL     1      22.612 -21.716 -12.761  1.00  0.00     0.010 NA
HETATM   28  N9  UNL     1      21.389 -21.167 -12.810  1.00  0.00    -0.204 N
ATOM     29  H9  UNL     1      21.090 -20.324 -12.320  1.00  0.00     0.207 HD
ENDBRANCH   9  23
BRANCH   6  30
HETATM   30  N3  UNL     1      17.641 -20.490 -16.842  1.00  0.00    -0.234 N
ATOM     31  H32 UNL     1      18.368 -20.020 -17.382  1.00  0.00     0.174 HD
ATOM     32  H31 UNL     1      16.725 -20.579 -17.281  1.00  0.00     0.174 HD
ENDBRANCH   6  30
TORSDOF 6
ENDMDL