MODEL 5
REMARK VINA RESULT: -5.892285145      2.748      5.739
REMARK  3 active torsions:
REMARK  status: ('A' for Active; 'I' for Inactive)
REMARK    1  A    between atoms: C2_2  and  O1_3
REMARK    2  A    between atoms: O1_3  and  C3_4
REMARK    3  A    between atoms: C3_4  and  C4_6
ROOT
HETATM    1  C4  UNL     1      15.066 -22.678  -6.118  1.00  0.00     0.130 A
HETATM    2  C5  UNL     1      16.037 -22.349  -5.287  1.00  0.00     0.107 A
HETATM    3  C6  UNL     1      17.185 -23.217  -5.086  1.00  0.00     0.104 C
HETATM    4  N1  UNL     1      18.113 -23.896  -4.910  1.00  0.00    -0.191 NA
HETATM    5  C7  UNL     1      16.022 -21.106  -4.522  1.00  0.00     0.101 A
HETATM    6  N2  UNL     1      17.001 -20.811  -3.707  1.00  0.00    -0.395 N
ATOM      7  H21 UNL     1      16.991 -19.942  -3.173  1.00  0.00     0.156 HD
ATOM      8  H22 UNL     1      17.798 -21.435  -3.581  1.00  0.00     0.156 HD
HETATM    9  C8  UNL     1      14.886 -20.216  -4.702  1.00  0.00     0.237 A
HETATM   10  O3  UNL     1      14.841 -19.142  -4.061  1.00  0.00    -0.285 OA
HETATM   11  C9  UNL     1      13.805 -20.558  -5.612  1.00  0.00     0.256 A
HETATM   12  N3  UNL     1      13.952 -21.800  -6.289  1.00  0.00    -0.342 N
ATOM     13  H3  UNL     1      13.216 -22.081  -6.938  1.00  0.00     0.163 HD
HETATM   14  O4  UNL     1      12.506 -20.662  -4.847  1.00  0.00    -0.234 OA
HETATM   15  N4  UNL     1      11.591 -20.742  -5.916  1.00  0.00    -0.249 N
ATOM     16  H4  UNL     1      10.698 -21.234  -5.876  1.00  0.00     0.196 HD
HETATM   17  C10 UNL     1      12.033 -20.107  -6.954  1.00  0.00     0.132 A
HETATM   18  N5  UNL     1      11.928 -19.661  -8.295  1.00  0.00    -0.320 N
ATOM     19  H5  UNL     1      11.158 -19.838  -8.942  1.00  0.00     0.169 HD
HETATM   20  C11 UNL     1      13.097 -18.926  -8.555  1.00  0.00     0.186 A
HETATM   21  C12 UNL     1      13.405 -18.324  -9.837  1.00  0.00     0.136 C
HETATM   22  N6  UNL     1      13.645 -17.850 -10.871  1.00  0.00    -0.188 NA
HETATM   23  N7  UNL     1      13.875 -18.845  -7.521  1.00  0.00    -0.351 N
ATOM     24  H7  UNL     1      14.782 -18.379  -7.512  1.00  0.00     0.162 HD
HETATM   25  C13 UNL     1      13.318 -19.466  -6.455  1.00  0.00     0.220 A
ENDROOT
BRANCH   1  26
HETATM   26  C3  UNL     1      15.098 -23.928  -6.876  1.00  0.00     0.311 C
HETATM   27  O2  UNL     1      14.580 -24.991  -6.389  1.00  0.00    -0.258 OA
BRANCH  26  28
HETATM   28  O1  UNL     1      15.648 -24.101  -8.112  1.00  0.00    -0.317 OA
BRANCH  28  29
HETATM   29  C2  UNL     1      15.964 -23.129  -9.044  1.00  0.00     0.175 C
HETATM   30  C1  UNL     1      17.059 -23.474  -9.996  1.00  0.00     0.034 C
ENDBRANCH  28  29
ENDBRANCH  26  28
ENDBRANCH   1  26
TORSDOF 3
ENDMDL