MODEL 3
REMARK VINA RESULT: -5.884747439      2.507      7.062
REMARK  3 active torsions:
REMARK  status: ('A' for Active; 'I' for Inactive)
REMARK    1  A    between atoms: N2_4  and  N3_6
REMARK    2  A    between atoms: N3_6  and  C3_8
REMARK    3  A    between atoms: N4_9  and  C4_10
ROOT
HETATM    1  C3  UNL     1      14.871 -23.515  -7.587  1.00  0.00     0.770 A
HETATM    2  N4  UNL     1      14.747 -24.160  -6.406  1.00  0.00     0.110 N
HETATM    3  N9  UNL     1      14.132 -23.344  -5.567  1.00  0.00    -0.094 N
ATOM      4  H9  UNL     1      13.900 -23.560  -4.598  1.00  0.00     0.207 HD
HETATM    5  C5  UNL     1      13.860 -22.184  -6.192  1.00  0.00     0.736 A
HETATM    6  N10 UNL     1      13.266 -21.035  -5.831  1.00  0.00    -0.177 N
ATOM      7  H10 UNL     1      12.916 -20.956  -4.877  1.00  0.00     0.185 HD
HETATM    8  C6  UNL     1      13.102 -19.983  -6.649  1.00  0.00     0.116 A
HETATM    9  N11 UNL     1      13.570 -20.115  -7.897  1.00  0.00    -0.170 N
HETATM   10  C7  UNL     1      14.190 -21.267  -8.336  1.00  0.00     0.716 A
HETATM   11  N12 UNL     1      14.609 -21.326  -9.526  1.00  0.00    -0.233 N
ATOM     12 1H12 UNL     1      15.068 -22.177  -9.851  1.00  0.00     0.174 HD
ATOM     13 2H12 UNL     1      14.508 -20.554 -10.186  1.00  0.00     0.174 HD
HETATM   14  N13 UNL     1      14.323 -22.285  -7.466  1.00  0.00     0.204 N
HETATM   15  C8  UNL     1      13.538 -19.177  -8.973  1.00  0.00     0.149 C
HETATM   16  C9  UNL     1      14.170 -17.863  -8.496  1.00  0.00     0.021 C
HETATM   17  C10 UNL     1      13.099 -17.118  -7.768  1.00  0.00     0.002 C
HETATM   18  C11 UNL     1      13.121 -17.515  -6.316  1.00  0.00     0.007 C
HETATM   19  C12 UNL     1      12.427 -18.825  -6.058  1.00  0.00     0.078 C
ENDROOT
BRANCH   2  20
HETATM   20  C4  UNL     1      15.196 -25.474  -6.122  1.00  0.00     0.750 A
HETATM   21  N5  UNL     1      15.056 -26.595  -6.835  1.00  0.00    -0.113 N
HETATM   22  N6  UNL     1      15.633 -27.573  -6.171  1.00  0.00    -0.213 N
ATOM     23  H5  UNL     1      14.584 -26.677  -7.736  1.00  0.00     0.207 HD
HETATM   24  N7  UNL     1      16.141 -27.112  -5.049  1.00  0.00    -0.213 N
ATOM     25  H6  UNL     1      15.680 -28.544  -6.481  1.00  0.00     0.210 HD
HETATM   26  N8  UNL     1      15.874 -25.821  -5.017  1.00  0.00    -0.113 N
ATOM     27  H7  UNL     1      16.644 -27.648  -4.342  1.00  0.00     0.210 HD
ATOM     28  H8  UNL     1      16.141 -25.183  -4.268  1.00  0.00     0.207 HD
ENDBRANCH   2  20
BRANCH   1  29
HETATM   29  N3  UNL     1      15.420 -23.998  -8.640  1.00  0.00    -0.127 N
ATOM     30  H3  UNL     1      14.831 -24.484  -9.316  1.00  0.00     0.205 HD
BRANCH  29  31
HETATM   31  N2  UNL     1      16.780 -23.890  -8.903  1.00  0.00    -0.277 N
HETATM   32  C2  UNL     1      17.280 -23.471 -10.000  1.00  0.00     0.104 C
HETATM   33  C1  UNL     1      18.742 -23.401 -10.159  1.00  0.00     0.086 C
HETATM   34  N1  UNL     1      16.450 -23.078 -11.057  1.00  0.00    -0.087 NA
ATOM     35  H2  UNL     1      17.427 -24.166  -8.164  1.00  0.00     0.188 HD
ENDBRANCH  29  31
ENDBRANCH   1  29
TORSDOF 3
ENDMDL