MODEL 4
REMARK VINA RESULT: -7.389497749      3.771      7.869
REMARK  4 active torsions:
REMARK  status: ('A' for Active; 'I' for Inactive)
REMARK    1  A    between atoms: N1_1  and  C1_4
REMARK    2  A    between atoms: C4_13  and  N5_14
REMARK    3  A    between atoms: C5_17  and  N6_18
REMARK    4  A    between atoms: N6_18  and  N7_20
ROOT
HETATM    1  C1  UNL     1      18.653 -19.216 -17.914  1.00  0.00     0.145 A
HETATM    2  N2  UNL     1      19.639 -19.861 -17.286  1.00  0.00    -0.320 N
ATOM      3  H2  UNL     1      20.569 -19.919 -17.699  1.00  0.00     0.169 HD
HETATM    4  C2  UNL     1      19.386 -20.416 -16.127  1.00  0.00     0.160 A
HETATM    5  N3  UNL     1      20.045 -21.142 -15.166  1.00  0.00    -0.172 N
ATOM      6  H3  UNL     1      21.026 -21.414 -15.217  1.00  0.00     0.186 HD
HETATM    7  C3  UNL     1      19.222 -21.447 -14.149  1.00  0.00     0.709 A
HETATM    8  N4  UNL     1      19.613 -22.168 -13.049  1.00  0.00    -0.171 N
ATOM      9  H4  UNL     1      20.562 -22.540 -13.051  1.00  0.00     0.186 HD
HETATM   10  C4  UNL     1      18.846 -22.430 -11.959  1.00  0.00     0.162 C
HETATM   11  C5  UNL     1      17.474 -22.370 -11.870  1.00  0.00     0.181 C
HETATM   12  N8  UNL     1      16.602 -21.620 -12.599  1.00  0.00    -0.266 N
ATOM     13  H8  UNL     1      15.645 -21.550 -12.254  1.00  0.00     0.190 HD
HETATM   14  N9  UNL     1      16.898 -20.964 -13.734  1.00  0.00    -0.219 N
ATOM     15  H9  UNL     1      16.137 -20.408 -14.123  1.00  0.00     0.209 HD
HETATM   16  N10 UNL     1      18.020 -20.931 -14.421  1.00  0.00    -0.061 N
HETATM   17  C11 UNL     1      18.120 -20.303 -15.626  1.00  0.00     0.165 A
HETATM   18  S1  UNL     1      17.337 -19.396 -16.848  1.00  0.00    -0.030 SA
ENDROOT
BRANCH  11  19
HETATM   19  N6  UNL     1      16.935 -23.127 -10.976  1.00  0.00    -0.281 N
ATOM     20  H6  UNL     1      17.360 -24.034 -10.784  1.00  0.00     0.188 HD
BRANCH  19  21
HETATM   21  N7  UNL     1      15.795 -22.757 -10.260  1.00  0.00    -0.300 N
HETATM   22  C6  UNL     1      15.796 -22.773  -8.978  1.00  0.00     0.071 C
HETATM   23  C7  UNL     1      14.676 -22.412  -8.083  1.00  0.00     0.063 C
HETATM   24  C10 UNL     1      16.912 -23.155  -8.129  1.00  0.00     0.173 C
HETATM   25  C8  UNL     1      14.877 -23.374  -6.918  1.00  0.00     0.014 C
HETATM   26  C9  UNL     1      16.347 -23.634  -6.840  1.00  0.00     0.085 C
HETATM   27  O1  UNL     1      18.135 -23.107  -8.391  1.00  0.00    -0.291 OA
ATOM     28  H7  UNL     1      14.954 -22.472 -10.762  1.00  0.00     0.186 HD
ENDBRANCH  19  21
ENDBRANCH  11  19
BRANCH  10  29
HETATM   29  N5  UNL     1      19.438 -22.776 -10.867  1.00  0.00    -0.382 N
ATOM     30  H52 UNL     1      19.856 -23.706 -10.889  1.00  0.00     0.157 HD
ATOM     31  H51 UNL     1      19.442 -22.115 -10.090  1.00  0.00     0.157 HD
ENDBRANCH  10  29
BRANCH   1  32
HETATM   32  N1  UNL     1      18.721 -18.601 -19.077  1.00  0.00    -0.380 N
ATOM     33  H12 UNL     1      17.977 -18.349 -19.728  1.00  0.00     0.158 HD
ATOM     34  H11 UNL     1      19.561 -18.258 -19.545  1.00  0.00     0.158 HD
ENDBRANCH   1  32
TORSDOF 4
ENDMDL