MODEL 2
REMARK VINA RESULT: -6.913773983      3.608      5.299
REMARK  2 active torsions:
REMARK  status: ('A' for Active; 'I' for Inactive)
REMARK    1  A    between atoms: N2_8  and  O1_9
REMARK    2  A    between atoms: C6_11  and  C7_12
ROOT
HETATM    1  C1  UNL     1      12.379 -19.857  -8.346  1.00  0.00     0.057 C
HETATM    2  C2  UNL     1      13.447 -20.521  -9.134  1.00  0.00     0.036 A
HETATM    3  C3  UNL     1      14.175 -21.535  -8.560  1.00  0.00     0.029 A
HETATM    4  C4  UNL     1      13.908 -21.979  -7.156  1.00  0.00     0.069 C
HETATM    5  N1  UNL     1      15.142 -22.119  -9.309  1.00  0.00    -0.268 N
HETATM    6  C5  UNL     1      16.002 -23.114  -9.035  1.00  0.00     0.212 A
HETATM    7  S1  UNL     1      16.062 -23.896  -7.602  1.00  0.00    -0.038 SA
HETATM    8  N2  UNL     1      16.778 -23.337 -10.125  1.00  0.00    -0.189 N
HETATM    9  C6  UNL     1      16.435 -22.495 -11.113  1.00  0.00     0.162 A
HETATM   10  C10 UNL     1      15.394 -21.732 -10.572  1.00  0.00     0.194 A
HETATM   11  O3  UNL     1      14.684 -20.765 -11.087  1.00  0.00    -0.254 OA
HETATM   12  C11 UNL     1      13.738 -20.157 -10.427  1.00  0.00     0.297 A
HETATM   13  O4  UNL     1      13.057 -19.212 -10.957  1.00  0.00    -0.259 OA
ENDROOT
BRANCH   9  14
HETATM   14  C7  UNL     1      16.996 -22.377 -12.451  1.00  0.00     0.159 C
HETATM   15  N3  UNL     1      16.310 -22.596 -13.556  1.00  0.00    -0.307 N
HETATM   16  C8  UNL     1      17.179 -22.388 -14.692  1.00  0.00     0.265 C
ATOM     17  H3  UNL     1      15.328 -22.868 -13.601  1.00  0.00     0.170 HD
HETATM   18  O2  UNL     1      16.747 -22.200 -15.842  1.00  0.00    -0.269 OA
HETATM   19  C9  UNL     1      18.573 -22.449 -14.181  1.00  0.00     0.309 C
HETATM   20  N4  UNL     1      19.414 -21.371 -14.600  1.00  0.00    -0.091 NA
HETATM   21  N7  UNL     1      18.311 -22.023 -12.785  1.00  0.00    -0.229 N
HETATM   22  N5  UNL     1      19.785 -20.619 -13.494  1.00  0.00    -0.015 NA
HETATM   23  N6  UNL     1      19.491 -21.435 -12.394  1.00  0.00    -0.006 NA
ENDBRANCH   9  14
BRANCH   8  24
HETATM   24  O1  UNL     1      17.762 -24.282 -10.189  1.00  0.00    -0.280 OA
ATOM     25  H1  UNL     1      17.653 -25.188  -9.923  1.00  0.00     0.245 HD
ENDBRANCH   8  24
TORSDOF 2
ENDMDL