MODEL 3
REMARK VINA RESULT: -6.272424646      1.976      3.157
REMARK  7 active torsions:
REMARK  status: ('A' for Active; 'I' for Inactive)
REMARK    1  A    between atoms: O1_2  and  C2_3
REMARK    2  A    between atoms: C2_3  and  C3_5
REMARK    3  A    between atoms: C6_10  and  N2_11
REMARK    4  A    between atoms: N2_11  and  C7_13
REMARK    5  A    between atoms: N4_16  and  O3_17
REMARK    6  A    between atoms: O3_17  and  N5_18
REMARK    7  A    between atoms: C11_25  and  N7_26
ROOT
HETATM    1  C3  UNL     1      14.634 -21.942  -8.272  1.00  0.00     0.134 A
HETATM    2  C4  UNL     1      15.579 -22.859  -8.732  1.00  0.00     0.040 A
HETATM    3  C5  UNL     1      16.184 -23.898  -7.858  1.00  0.00     0.071 C
HETATM    4  N1  UNL     1      15.992 -22.843 -10.007  1.00  0.00    -0.341 N
ATOM      5  H1  UNL     1      16.685 -23.530 -10.306  1.00  0.00     0.167 HD
HETATM    6  C6  UNL     1      15.524 -21.949 -10.916  1.00  0.00     0.151 A
HETATM    7  C11 UNL     1      14.590 -21.041 -10.464  1.00  0.00     0.146 A
HETATM    8  N8  UNL     1      14.159 -21.039  -9.185  1.00  0.00    -0.328 N
HETATM    9  C12 UNL     1      13.178 -20.085  -8.729  1.00  0.00     0.158 C
ENDROOT
BRANCH   6  10
HETATM   10  N2  UNL     1      15.985 -22.036 -12.071  1.00  0.00    -0.326 N
ATOM     11  H2  UNL     1      15.293 -22.423 -12.711  1.00  0.00     0.169 HD
BRANCH  10  12
HETATM   12  C7  UNL     1      17.151 -21.759 -12.724  1.00  0.00     0.127 C
HETATM   13  N3  UNL     1      18.347 -22.049 -12.261  1.00  0.00    -0.246 N
HETATM   14  N4  UNL     1      19.335 -21.641 -13.156  1.00  0.00    -0.072 N
ATOM     15  H3  UNL     1      18.527 -22.509 -11.369  1.00  0.00     0.192 HD
HETATM   16  N6  UNL     1      18.744 -20.534 -13.819  1.00  0.00    -0.075 NA
HETATM   17  C8  UNL     1      17.415 -21.078 -14.029  1.00  0.00     0.107 C
HETATM   18  C9  UNL     1      16.439 -19.951 -14.266  1.00  0.00     0.044 C
HETATM   19  C10 UNL     1      17.468 -22.004 -15.187  1.00  0.00     0.044 C
BRANCH  14  20
HETATM   20  O3  UNL     1      20.532 -22.204 -13.302  1.00  0.00    -0.128 OA
BRANCH  20  21
HETATM   21  N5  UNL     1      21.072 -22.401 -12.087  1.00  0.00    -0.283 N
ATOM     22  H52 UNL     1      21.249 -21.664 -11.403  1.00  0.00     0.186 HD
ATOM     23  H51 UNL     1      21.271 -23.394 -11.970  1.00  0.00     0.186 HD
ENDBRANCH  20  21
ENDBRANCH  14  20
ENDBRANCH  10  12
ENDBRANCH   6  10
BRANCH   7  24
HETATM   24  N7  UNL     1      14.149 -20.205 -11.294  1.00  0.00    -0.382 N
ATOM     25  H72 UNL     1      14.224 -20.376 -12.297  1.00  0.00     0.157 HD
ATOM     26  H71 UNL     1      13.717 -19.360 -10.922  1.00  0.00     0.157 HD
ENDBRANCH   7  24
BRANCH   1  27
HETATM   27  C2  UNL     1      14.200 -21.976  -6.888  1.00  0.00     0.311 C
HETATM   28  O2  UNL     1      13.222 -22.643  -6.449  1.00  0.00    -0.258 OA
BRANCH  27  29
HETATM   29  O1  UNL     1      14.869 -21.238  -5.921  1.00  0.00    -0.321 OA
HETATM   30  C1  UNL     1      16.027 -20.486  -6.190  1.00  0.00     0.213 C
ENDBRANCH  27  29
ENDBRANCH   1  27
TORSDOF 7
ENDMDL