MODEL 4
REMARK VINA RESULT: -6.846957875      1.613      1.974
REMARK  5 active torsions:
REMARK  status: ('A' for Active; 'I' for Inactive)
REMARK    1  A    between atoms: N2_5  and  C3_6
REMARK    2  A    between atoms: N3_11  and  O1_12
REMARK    3  A    between atoms: C8_14  and  N4_15
REMARK    4  A    between atoms: C9_18  and  C10_19
REMARK    5  A    between atoms: C10_19  and  C11_20
ROOT
HETATM    1  C1  UNL     1      32.514 -34.863 -15.247  1.00  0.00     0.045 C
HETATM    2  C2  UNL     1      33.433 -33.931 -15.155  1.00  0.00     0.053 A
HETATM    3  N1  UNL     1      34.461 -33.962 -14.272  1.00  0.00    -0.291 N
ATOM      4  H1  UNL     1      34.614 -34.713 -13.599  1.00  0.00     0.187 HD
HETATM    5  N2  UNL     1      35.240 -32.904 -14.387  1.00  0.00    -0.221 N
HETATM    6  C8  UNL     1      34.728 -32.169 -15.349  1.00  0.00     0.135 A
HETATM    7  C9  UNL     1      33.571 -32.768 -15.882  1.00  0.00     0.039 A
ENDROOT
BRANCH   5   8
HETATM    8  C3  UNL     1      36.381 -32.702 -13.578  1.00  0.00     0.155 A
HETATM    9  C4  UNL     1      36.409 -31.716 -12.617  1.00  0.00     0.053 A
HETATM   10  C5  UNL     1      37.549 -31.578 -11.872  1.00  0.00     0.005 A
HETATM   11  C6  UNL     1      38.665 -32.377 -12.036  1.00  0.00     0.020 A
HETATM   12  C7  UNL     1      38.589 -33.352 -13.010  1.00  0.00     0.125 A
HETATM   13  N3  UNL     1      37.469 -33.493 -13.751  1.00  0.00    -0.217 N
BRANCH  13  14
HETATM   14  O1  UNL     1      37.484 -34.500 -14.707  1.00  0.00    -0.281 OA
ATOM     15  H1  UNL     1      36.969 -34.430 -15.502  1.00  0.00     0.245 HD
ENDBRANCH  13  14
ENDBRANCH   5   8
BRANCH   6  16
HETATM   16  N4  UNL     1      35.180 -31.050 -15.782  1.00  0.00    -0.383 N
ATOM     17  H42 UNL     1      36.174 -30.892 -15.946  1.00  0.00     0.157 HD
ATOM     18  H41 UNL     1      34.635 -30.218 -16.009  1.00  0.00     0.157 HD
ENDBRANCH   6  16
BRANCH   7  19
HETATM   19  C10 UNL     1      32.851 -32.281 -16.838  1.00  0.00     0.049 C
BRANCH  19  20
HETATM   20  C11 UNL     1      32.327 -32.896 -18.036  1.00  0.00     0.057 A
HETATM   21  N5  UNL     1      31.096 -32.755 -18.610  1.00  0.00    -0.364 N
HETATM   22  C12 UNL     1      30.998 -33.457 -19.728  1.00  0.00     0.090 A
ATOM     23  H5  UNL     1      30.346 -32.180 -18.226  1.00  0.00     0.165 HD
HETATM   24  C13 UNL     1      32.188 -34.111 -19.951  1.00  0.00     0.046 A
HETATM   25  C14 UNL     1      33.011 -33.762 -18.901  1.00  0.00     0.074 A
HETATM   26  N6  UNL     1      34.351 -34.184 -18.678  1.00  0.00    -0.100 NA
ENDBRANCH  19  20
ENDBRANCH   7  19
TORSDOF 5
ENDMDL