MODEL 2
REMARK VINA RESULT: -6.668442690      1.456      1.869
REMARK  4 active torsions:
REMARK  status: ('A' for Active; 'I' for Inactive)
REMARK    1  A    between atoms: C3_5  and  C4_6
REMARK    2  A    between atoms: C4_6  and  C5_7
REMARK    3  A    between atoms: C10_18  and  N5_19
REMARK    4  A    between atoms: N5_19  and  C11_21
ROOT
HETATM    1  C1  UNL     1      34.949 -30.550 -19.175  1.00  0.00     0.045 C
HETATM    2  C2  UNL     1      34.732 -30.909 -17.910  1.00  0.00     0.051 A
HETATM    3  N1  UNL     1      35.219 -30.297 -16.819  1.00  0.00    -0.354 N
ATOM      4  H1  UNL     1      35.822 -29.473 -16.837  1.00  0.00     0.166 HD
HETATM    5  C3  UNL     1      34.806 -30.915 -15.702  1.00  0.00     0.044 A
HETATM    6  C8  UNL     1      34.026 -31.961 -16.120  1.00  0.00    -0.006 A
HETATM    7  C9  UNL     1      33.315 -32.974 -15.277  1.00  0.00     0.053 C
HETATM    8  C10 UNL     1      33.955 -31.991 -17.500  1.00  0.00     0.083 A
ENDROOT
BRANCH   5   9
HETATM    9  C4  UNL     1      35.080 -30.602 -14.438  1.00  0.00     0.080 C
BRANCH   9  10
HETATM   10  C5  UNL     1      36.158 -31.273 -13.721  1.00  0.00     0.123 A
HETATM   11  N2  UNL     1      36.774 -32.404 -14.105  1.00  0.00    -0.330 N
HETATM   12  C6  UNL     1      37.725 -32.749 -13.211  1.00  0.00     0.093 A
ATOM     13  H2  UNL     1      36.554 -32.928 -14.953  1.00  0.00     0.168 HD
HETATM   14  C7  UNL     1      38.619 -33.934 -13.285  1.00  0.00     0.090 C
HETATM   15  N3  UNL     1      37.692 -31.807 -12.257  1.00  0.00    -0.288 N
HETATM   16  N4  UNL     1      36.744 -30.915 -12.564  1.00  0.00    -0.284 N
ATOM     17  H3  UNL     1      38.291 -31.777 -11.432  1.00  0.00     0.188 HD
ATOM     18  H4  UNL     1      36.505 -30.093 -12.009  1.00  0.00     0.188 HD
ENDBRANCH   9  10
ENDBRANCH   5   9
BRANCH   8  19
HETATM   19  N5  UNL     1      33.291 -32.857 -18.374  1.00  0.00    -0.188 N
ATOM     20  H5  UNL     1      33.752 -33.744 -18.574  1.00  0.00     0.184 HD
BRANCH  19  21
HETATM   21  C11 UNL     1      32.181 -32.660 -18.945  1.00  0.00     0.698 A
HETATM   22  N6  UNL     1      31.950 -32.213 -20.186  1.00  0.00    -0.185 N
HETATM   23  C12 UNL     1      30.610 -32.146 -20.402  1.00  0.00     0.215 A
ATOM     24  H6  UNL     1      32.669 -31.961 -20.865  1.00  0.00     0.185 HD
HETATM   25  N7  UNL     1      30.019 -32.557 -19.274  1.00  0.00    -0.281 N
HETATM   26  N8  UNL     1      30.973 -32.866 -18.399  1.00  0.00    -0.131 N
ATOM     27  H7  UNL     1      29.014 -32.623 -19.114  1.00  0.00     0.188 HD
ATOM     28  H8  UNL     1      30.809 -33.208 -17.452  1.00  0.00     0.205 HD
ENDBRANCH  19  21
ENDBRANCH   8  19
TORSDOF 4
ENDMDL