MODEL 1
REMARK VINA RESULT: -6.794162503      0.000      0.000
REMARK  5 active torsions:
REMARK  status: ('A' for Active; 'I' for Inactive)
REMARK    1  A    between atoms: C3_4  and  C4_5
REMARK    2  A    between atoms: N2_6  and  N3_8
REMARK    3  A    between atoms: N3_8  and  C5_10
REMARK    4  A    between atoms: C6_13  and  N5_14
REMARK    5  A    between atoms: C7_19  and  N7_20
ROOT
HETATM    1  N3  UNL     1      32.901 -36.518 -17.030  1.00  0.00    -0.131 N
ATOM      2  H3  UNL     1      32.495 -36.393 -17.957  1.00  0.00     0.205 HD
ENDROOT
BRANCH   1   3
HETATM    3  N2  UNL     1      33.619 -35.488 -16.460  1.00  0.00    -0.297 N
HETATM    4  C4  UNL     1      33.099 -34.458 -15.881  1.00  0.00     0.120 C
ATOM      5  H2  UNL     1      34.637 -35.545 -16.497  1.00  0.00     0.186 HD
BRANCH   4   6
HETATM    6  C3  UNL     1      33.992 -33.451 -15.324  1.00  0.00    -0.003 A
HETATM    7  C2  UNL     1      34.326 -32.315 -16.020  1.00  0.00     0.105 A
HETATM    8  N1  UNL     1      35.149 -31.369 -15.527  1.00  0.00    -0.346 N
HETATM    9  C1  UNL     1      35.452 -30.196 -16.328  1.00  0.00     0.157 C
HETATM   10  C12 UNL     1      35.657 -31.561 -14.297  1.00  0.00     0.117 A
HETATM   11  C9  UNL     1      35.380 -32.673 -13.516  1.00  0.00     0.010 A
HETATM   12  N9  UNL     1      36.501 -30.789 -13.556  1.00  0.00    -0.351 N
HETATM   13  C8  UNL     1      34.525 -33.626 -14.065  1.00  0.00     0.029 A
HETATM   14  C10 UNL     1      36.049 -32.573 -12.315  1.00  0.00     0.032 A
HETATM   15  C11 UNL     1      36.742 -31.385 -12.369  1.00  0.00     0.090 A
ATOM     16  H9  UNL     1      36.892 -29.896 -13.854  1.00  0.00     0.166 HD
ENDBRANCH   4   6
ENDBRANCH   1   3
BRANCH   1  17
HETATM   17  C5  UNL     1      32.736 -37.633 -16.411  1.00  0.00     0.725 A
HETATM   18  N4  UNL     1      33.558 -38.655 -16.707  1.00  0.00    -0.020 N
HETATM   19  C6  UNL     1      33.417 -39.839 -16.080  1.00  0.00     0.705 A
ATOM     20  H4  UNL     1      34.291 -38.534 -17.407  1.00  0.00     0.203 HD
HETATM   21  N6  UNL     1      32.447 -39.971 -15.166  1.00  0.00    -0.022 N
HETATM   22  C7  UNL     1      31.617 -38.960 -14.859  1.00  0.00     0.705 A
ATOM     23  H6  UNL     1      32.336 -40.866 -14.689  1.00  0.00     0.203 HD
HETATM   24  N8  UNL     1      31.763 -37.774 -15.491  1.00  0.00    -0.020 N
ATOM     25  H8  UNL     1      31.143 -36.994 -15.273  1.00  0.00     0.203 HD
BRANCH  19  26
HETATM   26  N5  UNL     1      34.216 -40.834 -16.367  1.00  0.00    -0.234 N
ATOM     27  H52 UNL     1      34.861 -40.781 -17.155  1.00  0.00     0.174 HD
ATOM     28  H51 UNL     1      34.203 -41.681 -15.800  1.00  0.00     0.174 HD
ENDBRANCH  19  26
BRANCH  22  29
HETATM   29  N7  UNL     1      30.696 -39.125 -13.972  1.00  0.00    -0.234 N
ATOM     30  H72 UNL     1      30.926 -39.466 -13.038  1.00  0.00     0.174 HD
ATOM     31  H71 UNL     1      29.724 -38.915 -14.199  1.00  0.00     0.174 HD
ENDBRANCH  22  29
ENDBRANCH   1  17
TORSDOF 5
ENDMDL