MODEL 2
REMARK VINA RESULT: -4.829190585      1.511      1.894
REMARK  4 active torsions:
REMARK  status: ('A' for Active; 'I' for Inactive)
REMARK    1  A    between atoms: N1_2  and  C3_4
REMARK    2  A    between atoms: C3_4  and  C4_5
REMARK    3  A    between atoms: C13_20  and  O1_21
REMARK    4  A    between atoms: C14_23  and  N4_24
ROOT
HETATM    1  C4  UNL     1      33.700 -34.173 -19.041  1.00  0.00     0.186 C
HETATM    2  N2  UNL     1      32.292 -34.349 -18.960  1.00  0.00    -0.057 N
ATOM      3  H21 UNL     1      32.015 -35.219 -18.507  1.00  0.00     0.278 HD
ATOM      4  H22 UNL     1      31.853 -34.534 -19.862  1.00  0.00     0.278 HD
HETATM    5  C5  UNL     1      31.783 -33.176 -18.306  1.00  0.00     0.193 C
HETATM    6  C6  UNL     1      31.262 -32.157 -19.249  1.00  0.00     0.066 C
HETATM    7  C7  UNL     1      32.099 -31.875 -20.433  1.00  0.00     0.188 C
HETATM    8  C8  UNL     1      33.244 -30.938 -20.234  1.00  0.00     0.035 C
HETATM    9  C9  UNL     1      34.420 -31.897 -19.991  1.00  0.00     0.038 C
HETATM   10  C10 UNL     1      33.948 -33.253 -20.198  1.00  0.00     0.224 C
HETATM   11  N3  UNL     1      32.740 -33.027 -21.013  1.00  0.00    -0.064 N
ATOM     12  H31 UNL     1      32.929 -32.934 -22.012  1.00  0.00     0.278 HD
ATOM     13  H32 UNL     1      32.133 -33.844 -21.083  1.00  0.00     0.278 HD
HETATM   14  C11 UNL     1      32.877 -32.677 -17.408  1.00  0.00     0.027 C
HETATM   15  C12 UNL     1      32.551 -32.844 -15.923  1.00  0.00     0.041 C
HETATM   16  C13 UNL     1      33.870 -33.444 -15.417  1.00  0.00     0.149 C
HETATM   17  C14 UNL     1      34.073 -34.485 -16.542  1.00  0.00     0.219 C
HETATM   18  C15 UNL     1      34.037 -33.593 -17.708  1.00  0.00     0.065 C
ENDROOT
BRANCH   1  19
HETATM   19  C3  UNL     1      34.507 -35.433 -19.251  1.00  0.00     0.312 C
BRANCH  19  20
HETATM   20  N1  UNL     1      33.786 -36.599 -19.621  1.00  0.00     0.082 N
HETATM   21  C1  UNL     1      34.181 -36.892 -21.021  1.00  0.00     0.309 C
HETATM   22  C2  UNL     1      34.114 -37.806 -18.914  1.00  0.00     0.309 C
ENDBRANCH  19  20
ENDBRANCH   1  19
BRANCH  17  23
HETATM   23  N4  UNL     1      33.054 -35.439 -16.342  1.00  0.00    -0.072 N
ATOM     24  H43 UNL     1      32.950 -35.735 -15.372  1.00  0.00     0.274 HD
ATOM     25  H42 UNL     1      32.111 -35.066 -16.453  1.00  0.00     0.274 HD
ATOM     26  H41 UNL     1      33.277 -36.199 -16.985  1.00  0.00     0.274 HD
ENDBRANCH  17  23
BRANCH  16  27
HETATM   27  O1  UNL     1      33.739 -34.046 -14.197  1.00  0.00    -0.393 OA
ATOM     28  H1  UNL     1      34.573 -34.162 -13.757  1.00  0.00     0.210 HD
ENDBRANCH  16  27
TORSDOF 4
ENDMDL