MODEL 1
REMARK VINA RESULT: -6.273811533      0.000      0.000
REMARK  5 active torsions:
REMARK  status: ('A' for Active; 'I' for Inactive)
REMARK    1  A    between atoms: N1_2  and  C2_4
REMARK    2  A    between atoms: C4_6  and  C5_7
REMARK    3  A    between atoms: C8_10  and  N2_11
REMARK    4  A    between atoms: N2_11  and  C9_13
REMARK    5  A    between atoms: C12_22  and  N6_23
ROOT
HETATM    1  C2  UNL     1      31.843 -32.535 -18.908  1.00  0.00     0.118 A
HETATM    2  C3  UNL     1      32.545 -32.645 -17.760  1.00  0.00     0.081 A
HETATM    3  C4  UNL     1      33.726 -31.909 -17.603  1.00  0.00     0.080 A
HETATM    4  N5  UNL     1      34.102 -31.131 -18.601  1.00  0.00    -0.190 N
ATOM      5  H5  UNL     1      34.962 -30.594 -18.491  1.00  0.00     0.184 HD
HETATM    6  C12 UNL     1      33.409 -31.003 -19.771  1.00  0.00     0.679 A
HETATM    7  N7  UNL     1      32.283 -31.723 -19.885  1.00  0.00    -0.177 N
ATOM      8  H7  UNL     1      31.741 -31.652 -20.746  1.00  0.00     0.185 HD
ENDROOT
BRANCH   3   9
HETATM    9  C5  UNL     1      34.491 -32.019 -16.374  1.00  0.00     0.075 A
HETATM   10  C6  UNL     1      34.310 -33.029 -15.481  1.00  0.00     0.037 A
HETATM   11  C7  UNL     1      35.078 -33.084 -14.309  1.00  0.00     0.052 A
HETATM   12  C8  UNL     1      36.017 -32.128 -14.045  1.00  0.00     0.116 A
HETATM   13  N3  UNL     1      36.157 -31.143 -14.966  1.00  0.00    -0.285 N
HETATM   14  N4  UNL     1      35.436 -31.095 -16.063  1.00  0.00    -0.297 N
ATOM     15  H3  UNL     1      36.848 -30.412 -14.801  1.00  0.00     0.188 HD
ATOM     16  H4  UNL     1      35.594 -30.325 -16.714  1.00  0.00     0.187 HD
BRANCH  12  17
HETATM   17  N2  UNL     1      36.716 -32.172 -12.985  1.00  0.00    -0.371 N
ATOM     18  H2  UNL     1      36.483 -31.496 -12.258  1.00  0.00     0.161 HD
BRANCH  17  19
HETATM   19  C9  UNL     1      37.790 -33.067 -12.702  1.00  0.00     0.075 C
HETATM   20  C10 UNL     1      38.203 -33.728 -14.009  1.00  0.00     0.031 C
HETATM   21  C11 UNL     1      39.001 -32.384 -12.113  1.00  0.00     0.031 C
ENDBRANCH  17  19
ENDBRANCH  12  17
ENDBRANCH   3   9
BRANCH   1  22
HETATM   22  N1  UNL     1      30.759 -33.193 -19.086  1.00  0.00    -0.380 N
HETATM   23  C1  UNL     1      30.321 -33.735 -20.332  1.00  0.00     0.147 C
ATOM     24  H1  UNL     1      30.161 -33.342 -18.272  1.00  0.00     0.160 HD
ENDBRANCH   1  22
BRANCH   6  25
HETATM   25  N6  UNL     1      33.884 -30.217 -20.654  1.00  0.00    -0.230 N
HETATM   26  C13 UNL     1      33.465 -28.873 -20.888  1.00  0.00     0.165 C
ATOM     27  H6  UNL     1      34.630 -30.581 -21.247  1.00  0.00     0.177 HD
ENDBRANCH   6  25
TORSDOF 5
ENDMDL