MODEL 3
REMARK VINA RESULT: -4.442341121      3.394      4.182
REMARK  4 active torsions:
REMARK  status: ('A' for Active; 'I' for Inactive)
REMARK    1  A    between atoms: C2_2  and  C4_4
REMARK    2  A    between atoms: C5_5  and  N1_6
REMARK    3  A    between atoms: N2_8  and  N3_10
REMARK    4  A    between atoms: C6_13  and  O1_14
ROOT
HETATM    1  C4  UNL     1      34.754 -32.256 -15.211  1.00  0.00     0.044 C
HETATM    2  C5  UNL     1      36.002 -33.081 -15.319  1.00  0.00     0.138 C
HETATM    3  C6  UNL     1      35.056 -34.259 -15.582  1.00  0.00     0.168 C
HETATM    4  C7  UNL     1      34.040 -33.274 -16.067  1.00  0.00     0.079 C
HETATM    5  C8  UNL     1      32.671 -33.529 -15.412  1.00  0.00     0.162 C
HETATM    6  N4  UNL     1      31.919 -34.380 -16.272  1.00  0.00    -0.305 N
ATOM      7  H4  UNL     1      31.351 -35.199 -16.055  1.00  0.00     0.173 HD
HETATM    8  S1  UNL     1      32.249 -33.613 -17.807  1.00  0.00     0.299 S
HETATM    9  O2  UNL     1      31.330 -32.485 -18.073  1.00  0.00    -0.188 OA
HETATM   10  O3  UNL     1      32.240 -34.678 -18.834  1.00  0.00    -0.188 OA
HETATM   11  N5  UNL     1      33.865 -33.053 -17.429  1.00  0.00    -0.183 NA
HETATM   12  C9  UNL     1      34.724 -33.712 -18.371  1.00  0.00     0.132 C
ENDROOT
BRANCH   1  13
HETATM   13  C2  UNL     1      34.819 -30.847 -15.631  1.00  0.00    -0.014 C
HETATM   14  C1  UNL     1      35.518 -30.064 -14.493  1.00  0.00     0.010 C
HETATM   15  C3  UNL     1      35.614 -30.511 -16.839  1.00  0.00     0.010 C
ENDBRANCH   1  13
BRANCH   3  16
HETATM   16  O1  UNL     1      35.555 -35.204 -16.410  1.00  0.00    -0.391 OA
ATOM     17  H1  UNL     1      35.044 -36.004 -16.448  1.00  0.00     0.210 HD
ENDBRANCH   3  16
BRANCH   2  18
HETATM   18  N1  UNL     1      36.753 -33.227 -14.074  1.00  0.00    -0.315 N
HETATM   19  N2  UNL     1      37.985 -33.048 -14.016  1.00  0.00    -0.253 N
ATOM     20  H2  UNL     1      38.514 -32.790 -14.850  1.00  0.00     0.207 HD
ATOM     21  H1  UNL     1      36.252 -33.485 -13.224  1.00  0.00     0.182 HD
BRANCH  19  22
HETATM   22  N3  UNL     1      38.628 -33.206 -12.791  1.00  0.00    -0.331 N
ATOM     23  H32 UNL     1      38.698 -32.414 -12.152  1.00  0.00     0.178 HD
ATOM     24  H31 UNL     1      39.018 -34.119 -12.556  1.00  0.00     0.178 HD
ENDBRANCH  19  22
ENDBRANCH   2  18
TORSDOF 4
ENDMDL