MODEL 3
REMARK VINA RESULT: -6.170996709      1.756      2.515
REMARK  4 active torsions:
REMARK  status: ('A' for Active; 'I' for Inactive)
REMARK    1  A    between atoms: N1_1  and  C1_5
REMARK    2  A    between atoms: C3_7  and  O1_8
REMARK    3  A    between atoms: N4_19  and  C9_20
REMARK    4  A    between atoms: C9_20  and  C10_21
ROOT
HETATM    1  C1  UNL     1      33.158 -34.736 -18.753  1.00  0.00     0.218 C
HETATM    2  C2  UNL     1      33.202 -34.020 -20.058  1.00  0.00     0.069 C
HETATM    3  C3  UNL     1      33.508 -32.563 -19.959  1.00  0.00     0.151 C
HETATM    4  C4  UNL     1      33.295 -31.995 -18.587  1.00  0.00     0.221 C
HETATM    5  N2  UNL     1      32.100 -32.637 -18.037  1.00  0.00    -0.060 N
ATOM      6  H21 UNL     1      31.301 -32.691 -18.668  1.00  0.00     0.278 HD
ATOM      7  H22 UNL     1      31.608 -32.106 -17.318  1.00  0.00     0.278 HD
HETATM    8  C5  UNL     1      32.645 -33.911 -17.610  1.00  0.00     0.236 C
HETATM    9  C6  UNL     1      33.840 -33.468 -16.791  1.00  0.00     0.116 C
HETATM   10  C7  UNL     1      34.396 -32.350 -17.619  1.00  0.00     0.056 C
HETATM   11  C8  UNL     1      34.603 -31.266 -16.580  1.00  0.00     0.137 C
HETATM   12  N3  UNL     1      33.830 -31.625 -15.442  1.00  0.00    -0.164 NA
HETATM   13  N4  UNL     1      33.466 -32.938 -15.504  1.00  0.00    -0.223 NA
ENDROOT
BRANCH  13  14
HETATM   14  C9  UNL     1      33.981 -33.808 -14.494  1.00  0.00     0.148 C
BRANCH  14  15
HETATM   15  C10 UNL     1      35.342 -33.485 -14.022  1.00  0.00    -0.044 A
HETATM   16  C11 UNL     1      35.536 -32.714 -12.889  1.00  0.00     0.008 A
HETATM   17  C12 UNL     1      36.809 -32.412 -12.436  1.00  0.00     0.001 A
HETATM   18  C13 UNL     1      37.910 -32.886 -13.124  1.00  0.00     0.000 A
HETATM   19  C14 UNL     1      37.725 -33.654 -14.255  1.00  0.00     0.001 A
HETATM   20  C15 UNL     1      36.453 -33.946 -14.691  1.00  0.00     0.008 A
ENDBRANCH  14  15
ENDBRANCH  13  14
BRANCH   1  21
HETATM   21  N1  UNL     1      32.331 -35.941 -18.827  1.00  0.00    -0.073 N
ATOM     22  H13 UNL     1      32.828 -36.706 -19.283  1.00  0.00     0.274 HD
ATOM     23  H12 UNL     1      32.201 -36.361 -17.907  1.00  0.00     0.274 HD
ATOM     24  H11 UNL     1      31.437 -35.755 -19.281  1.00  0.00     0.274 HD
ENDBRANCH   1  21
BRANCH   3  25
HETATM   25  O1  UNL     1      34.774 -32.254 -20.454  1.00  0.00    -0.393 OA
ATOM     26  H1  UNL     1      35.428 -32.207 -19.767  1.00  0.00     0.210 HD
ENDBRANCH   3  25
TORSDOF 4
ENDMDL