MODEL 3
REMARK VINA RESULT: -5.991084711      2.344      6.301
REMARK  5 active torsions:
REMARK  status: ('A' for Active; 'I' for Inactive)
REMARK    1  A    between atoms: C2_2  and  N1_3
REMARK    2  A    between atoms: N1_3  and  C3_5
REMARK    3  A    between atoms: C4_8  and  N3_9
REMARK       I    between atoms: N3_9  and  C5_11
REMARK    4  A    between atoms: C7_19  and  N8_20
REMARK    5  A    between atoms: N8_20  and  C8_22
ROOT
HETATM    1  N3  UNL     1      32.276 -32.325 -17.741  1.00  0.00    -0.162 N
ATOM      2  H3  UNL     1      31.758 -31.485 -17.480  1.00  0.00     0.187 HD
HETATM    3  C5  UNL     1      32.600 -32.480 -19.093  1.00  0.00     0.215 C
HETATM    4  N4  UNL     1      31.863 -33.384 -19.883  1.00  0.00    -0.062 NA
HETATM    5  N5  UNL     1      33.550 -31.814 -19.612  1.00  0.00    -0.267 N
ATOM      6  H5  UNL     1      33.779 -31.935 -20.599  1.00  0.00     0.180 HD
HETATM    7  C6  UNL     1      34.283 -30.916 -18.831  1.00  0.00     0.184 C
HETATM    8  N6  UNL     1      34.885 -30.158 -18.161  1.00  0.00    -0.172 NA
ENDROOT
BRANCH   1   9
HETATM    9  C4  UNL     1      32.571 -33.137 -16.805  1.00  0.00     0.713 A
HETATM   10  N2  UNL     1      32.164 -34.413 -16.772  1.00  0.00    -0.021 N
HETATM   11  C3  UNL     1      32.507 -35.225 -15.759  1.00  0.00     0.707 A
ATOM     12  H2  UNL     1      31.584 -34.774 -17.530  1.00  0.00     0.203 HD
HETATM   13  N9  UNL     1      33.283 -34.740 -14.744  1.00  0.00    -0.021 N
HETATM   14  C7  UNL     1      33.715 -33.469 -14.734  1.00  0.00     0.707 A
ATOM     15  H9  UNL     1      33.541 -35.359 -13.975  1.00  0.00     0.203 HD
HETATM   16  N7  UNL     1      33.327 -32.700 -15.799  1.00  0.00    -0.021 N
ATOM     17  H7  UNL     1      33.638 -31.729 -15.824  1.00  0.00     0.203 HD
BRANCH  11  18
HETATM   18  N1  UNL     1      32.119 -36.462 -15.716  1.00  0.00    -0.225 N
ATOM     19  H1  UNL     1      32.357 -37.114 -16.463  1.00  0.00     0.177 HD
BRANCH  18  20
HETATM   20  C2  UNL     1      31.338 -36.889 -14.577  1.00  0.00     0.133 C
HETATM   21  C1  UNL     1      30.629 -38.179 -14.844  1.00  0.00     0.027 C
ENDBRANCH  18  20
ENDBRANCH  11  18
BRANCH  14  22
HETATM   22  N8  UNL     1      34.443 -32.958 -13.813  1.00  0.00    -0.217 N
ATOM     23  H8  UNL     1      34.016 -32.877 -12.890  1.00  0.00     0.178 HD
BRANCH  22  24
HETATM   24  C8  UNL     1      35.785 -32.487 -13.930  1.00  0.00     0.036 C
HETATM   25  C9  UNL     1      36.636 -33.575 -14.565  1.00  0.00     0.038 C
HETATM   26  C10 UNL     1      35.857 -31.179 -14.687  1.00  0.00     0.038 C
HETATM   27  C11 UNL     1      36.370 -32.171 -12.539  1.00  0.00     0.038 C
ENDBRANCH  22  24
ENDBRANCH  14  22
ENDBRANCH   1   9
TORSDOF 5
ENDMDL