MODEL 5
REMARK VINA RESULT: -5.267798477      2.204      5.908
REMARK  6 active torsions:
REMARK  status: ('A' for Active; 'I' for Inactive)
REMARK    1  A    between atoms: N1_2  and  C2_4
REMARK    2  A    between atoms: C3_7  and  N3_8
REMARK    3  A    between atoms: N3_8  and  C4_10
REMARK    4  A    between atoms: C4_10  and  C5_11
REMARK    5  A    between atoms: C5_11  and  N4_12
REMARK    6  A    between atoms: C11_25  and  N7_26
ROOT
HETATM    1  C2  UNL     1      33.144 -33.882 -18.485  1.00  0.00     0.133 A
HETATM    2  N2  UNL     1      32.766 -35.162 -18.648  1.00  0.00    -0.176 N
ATOM      3  H2  UNL     1      32.227 -35.416 -19.476  1.00  0.00     0.186 HD
HETATM    4  C3  UNL     1      33.076 -36.118 -17.755  1.00  0.00     0.681 A
HETATM    5  N5  UNL     1      33.787 -35.759 -16.674  1.00  0.00    -0.176 N
ATOM      6  H5  UNL     1      34.030 -36.472 -15.986  1.00  0.00     0.186 HD
HETATM    7  C6  UNL     1      34.194 -34.479 -16.463  1.00  0.00     0.137 A
HETATM    8  N6  UNL     1      34.909 -34.153 -15.362  1.00  0.00    -0.344 N
ATOM      9  H6  UNL     1      35.146 -34.876 -14.682  1.00  0.00     0.167 HD
HETATM   10  C7  UNL     1      35.311 -32.888 -15.152  1.00  0.00     0.015 A
HETATM   11  C8  UNL     1      36.090 -32.592 -13.932  1.00  0.00     0.069 C
HETATM   12  C9  UNL     1      34.989 -31.888 -16.082  1.00  0.00    -0.012 A
HETATM   13  C10 UNL     1      35.434 -30.548 -15.826  1.00  0.00     0.052 C
HETATM   14  C11 UNL     1      34.267 -32.174 -17.209  1.00  0.00     0.053 A
HETATM   15  C13 UNL     1      33.875 -33.501 -17.378  1.00  0.00     0.080 A
ENDROOT
BRANCH   4  16
HETATM   16  N3  UNL     1      32.686 -37.345 -17.959  1.00  0.00    -0.224 N
ATOM     17  H3  UNL     1      32.002 -37.545 -18.689  1.00  0.00     0.177 HD
BRANCH  16  18
HETATM   18  C4  UNL     1      33.213 -38.424 -17.156  1.00  0.00     0.165 C
BRANCH  18  19
HETATM   19  C5  UNL     1      32.024 -39.025 -16.404  1.00  0.00     0.249 C
BRANCH  19  20
HETATM   20  N4  UNL     1      31.984 -38.356 -15.117  1.00  0.00    -0.078 N
ATOM     21  H43 UNL     1      31.047 -38.295 -14.719  1.00  0.00     0.274 HD
ATOM     22  H42 UNL     1      32.403 -38.901 -14.363  1.00  0.00     0.274 HD
ATOM     23  H41 UNL     1      32.427 -37.448 -15.257  1.00  0.00     0.274 HD
ENDBRANCH  19  20
ENDBRANCH  18  19
ENDBRANCH  16  18
ENDBRANCH   4  16
BRANCH   1  24
HETATM   24  N1  UNL     1      32.847 -32.984 -19.332  1.00  0.00    -0.379 N
HETATM   25  C1  UNL     1      31.708 -32.968 -20.197  1.00  0.00     0.147 C
ATOM     26  H1  UNL     1      33.487 -32.193 -19.404  1.00  0.00     0.160 HD
ENDBRANCH   1  24
BRANCH  14  27
HETATM   27  N7  UNL     1      33.964 -31.343 -18.044  1.00  0.00    -0.393 N
HETATM   28  C12 UNL     1      34.409 -30.494 -19.026  1.00  0.00     0.146 C
ATOM     29  H7  UNL     1      32.952 -31.227 -17.992  1.00  0.00     0.159 HD
ENDBRANCH  14  27
TORSDOF 6
ENDMDL