MODEL 4
REMARK VINA RESULT: -3.454286014      2.534      4.293
REMARK  6 active torsions:
REMARK  status: ('A' for Active; 'I' for Inactive)
REMARK    1  A    between atoms: C2_2  and  O1_3
REMARK    2  A    between atoms: C3_5  and  O2_6
REMARK    3  A    between atoms: C4_8  and  O3_9
REMARK    4  A    between atoms: C5_11  and  C6_12
REMARK    5  A    between atoms: C6_12  and  N1_13
REMARK    6  A    between atoms: C12_20  and  C13_21
ROOT
HETATM    1  C1  UNL     1      33.635 -32.501 -16.909  1.00  0.00     0.051 C
HETATM    2  C2  UNL     1      32.673 -33.613 -17.140  1.00  0.00     0.116 C
HETATM    3  C3  UNL     1      33.053 -34.898 -16.473  1.00  0.00     0.185 C
HETATM    4  C4  UNL     1      33.599 -35.931 -17.443  1.00  0.00     0.182 C
HETATM    5  C5  UNL     1      34.293 -35.279 -18.591  1.00  0.00     0.247 C
HETATM    6  N2  UNL     1      33.417 -34.437 -19.359  1.00  0.00    -0.055 N
HETATM    7  C10 UNL     1      34.266 -33.395 -19.955  1.00  0.00     0.273 C
HETATM    8  C11 UNL     1      32.825 -35.114 -20.500  1.00  0.00     0.273 C
HETATM    9  C12 UNL     1      32.352 -33.877 -18.580  1.00  0.00     0.264 C
ENDROOT
BRANCH   5  10
HETATM   10  C6  UNL     1      35.090 -36.197 -19.433  1.00  0.00     0.272 C
BRANCH  10  11
HETATM   11  N1  UNL     1      35.937 -37.139 -18.781  1.00  0.00    -0.076 N
HETATM   12  C7  UNL     1      35.492 -38.512 -18.832  1.00  0.00     0.271 C
HETATM   13  C8  UNL     1      36.307 -36.775 -17.437  1.00  0.00     0.271 C
HETATM   14  C9  UNL     1      37.219 -37.152 -19.536  1.00  0.00     0.271 C
ENDBRANCH  10  11
ENDBRANCH   5  10
BRANCH   4  15
HETATM   15  O3  UNL     1      32.544 -36.760 -17.806  1.00  0.00    -0.391 OA
ATOM     16  H3  UNL     1      32.827 -37.656 -17.668  1.00  0.00     0.210 HD
ENDBRANCH   4  15
BRANCH   3  17
HETATM   17  O2  UNL     1      34.043 -34.594 -15.520  1.00  0.00    -0.390 OA
ATOM     18  H2  UNL     1      34.883 -34.793 -15.916  1.00  0.00     0.210 HD
ENDBRANCH   3  17
BRANCH   9  19
HETATM   19  C13 UNL     1      31.736 -32.690 -19.243  1.00  0.00     0.089 C
HETATM   20  N3  UNL     1      30.474 -32.527 -19.229  1.00  0.00    -0.409 N
ATOM     21  H32 UNL     1      29.894 -33.220 -18.757  1.00  0.00     0.155 HD
ATOM     22  H31 UNL     1      30.053 -31.715 -19.681  1.00  0.00     0.155 HD
ENDBRANCH   9  19
BRANCH   2  23
HETATM   23  O1  UNL     1      31.447 -33.219 -16.546  1.00  0.00    -0.385 OA
ATOM     24  H1  UNL     1      30.868 -32.969 -17.257  1.00  0.00     0.210 HD
ENDBRANCH   2  23
TORSDOF 6
ENDMDL