MODEL 5
REMARK VINA RESULT: -4.017821480      1.436      4.637
REMARK  2 active torsions:
REMARK  status: ('A' for Active; 'I' for Inactive)
REMARK    1  A    between atoms: N1_2  and  C2_4
REMARK    2  A    between atoms: C10_14  and  C11_15
ROOT
HETATM    1  C2  UNL     1       2.259 116.200  -8.906  1.00  0.00     0.148 C
HETATM    2  C3  UNL     1       3.543 116.099  -9.743  1.00  0.00     0.255 C
HETATM    3  C4  UNL     1       3.946 114.705 -10.083  1.00  0.00     0.038 C
HETATM    4  C5  UNL     1       4.230 113.795  -8.951  1.00  0.00     0.009 C
HETATM    5  C6  UNL     1       5.647 113.831  -8.453  1.00  0.00     0.009 C
HETATM    6  C7  UNL     1       6.096 115.252  -8.448  1.00  0.00     0.043 C
HETATM    7  C8  UNL     1       6.560 115.782  -9.757  1.00  0.00     0.120 C
HETATM    8  N2  UNL     1       6.298 114.851 -10.800  1.00  0.00    -0.420 N
ATOM      9  H2  UNL     1       7.045 114.316 -11.243  1.00  0.00     0.153 HD
HETATM   10  C9  UNL     1       4.935 114.705 -11.196  1.00  0.00     0.120 C
HETATM   11  C10 UNL     1       5.034 116.144  -7.809  1.00  0.00     0.293 C
HETATM   12  N5  UNL     1       4.209 116.776  -8.740  1.00  0.00     0.118 N
HETATM   13  C12 UNL     1       2.979 117.396  -8.349  1.00  0.00     0.176 C
HETATM   14  C13 UNL     1       2.758 117.638  -6.883  1.00  0.00     0.051 C
HETATM   15  C14 UNL     1       2.759 118.678  -9.135  1.00  0.00     0.051 C
ENDROOT
BRANCH  11  16
HETATM   16  C11 UNL     1       5.813 117.152  -7.078  1.00  0.00     0.121 C
HETATM   17  N3  UNL     1       6.134 117.001  -5.859  1.00  0.00    -0.389 N
ATOM     18  H32 UNL     1       5.895 116.139  -5.368  1.00  0.00     0.157 HD
ATOM     19  H31 UNL     1       6.674 117.700  -5.351  1.00  0.00     0.157 HD
HETATM   20  N4  UNL     1       6.150 118.367  -7.770  1.00  0.00    -0.086 NA
ENDBRANCH  11  16
BRANCH   1  21
HETATM   21  N1  UNL     1       1.152 116.353  -9.749  1.00  0.00    -0.417 N
HETATM   22  C1  UNL     1       0.091 115.446  -9.752  1.00  0.00     0.140 C
ATOM     23  H1  UNL     1       1.119 117.153 -10.381  1.00  0.00     0.153 HD
ENDBRANCH   1  21
TORSDOF 2
ENDMDL