MODEL 1
REMARK VINA RESULT: -7.896210463      0.000      0.000
REMARK  3 active torsions:
REMARK  status: ('A' for Active; 'I' for Inactive)
REMARK    1  A    between atoms: N3_4  and  N4_6
REMARK       I    between atoms: C2_8  and  N6_10
REMARK    2  A    between atoms: N6_10  and  C3_12
REMARK    3  A    between atoms: C6_15  and  C7_16
ROOT
HETATM    1  C3  UNL     1       5.500 116.649  -6.769  1.00  0.00     0.122 A
HETATM    2  C4  UNL     1       4.225 117.073  -7.006  1.00  0.00     0.052 A
HETATM    3  C5  UNL     1       3.632 117.932  -6.082  1.00  0.00     0.035 A
HETATM    4  C6  UNL     1       4.271 118.368  -4.953  1.00  0.00     0.058 A
HETATM    5  N7  UNL     1       5.548 117.902  -4.783  1.00  0.00    -0.298 N
ATOM      6  H7  UNL     1       6.079 118.189  -3.961  1.00  0.00     0.187 HD
HETATM    7  N8  UNL     1       6.103 117.090  -5.657  1.00  0.00    -0.285 N
ATOM      8  H8  UNL     1       7.057 116.777  -5.476  1.00  0.00     0.188 HD
ENDROOT
BRANCH   1   9
HETATM    9  N6  UNL     1       6.156 115.862  -7.534  1.00  0.00    -0.314 N
HETATM   10  C2  UNL     1       6.045 115.809  -8.935  1.00  0.00     0.208 C
HETATM   11  N4  UNL     1       5.687 114.698  -9.485  1.00  0.00    -0.271 N
HETATM   12  N5  UNL     1       6.299 116.903  -9.805  1.00  0.00    -0.062 NA
ATOM     13  H4  UNL     1       5.606 114.659 -10.501  1.00  0.00     0.189 HD
ATOM     14  H6  UNL     1       6.815 115.219  -7.093  1.00  0.00     0.170 HD
BRANCH  11  15
HETATM   15  N3  UNL     1       5.407 113.548  -8.748  1.00  0.00    -0.274 N
HETATM   16  C1  UNL     1       6.256 112.555  -8.684  1.00  0.00     0.215 C
HETATM   17  N1  UNL     1       5.945 111.398  -7.926  1.00  0.00    -0.065 NA
HETATM   18  N2  UNL     1       7.490 112.666  -9.387  1.00  0.00    -0.065 NA
ATOM     19  H3  UNL     1       4.520 113.479  -8.248  1.00  0.00     0.189 HD
ENDBRANCH  11  15
ENDBRANCH   1   9
BRANCH   4  20
HETATM   20  C7  UNL     1       3.684 119.264  -3.969  1.00  0.00    -0.008 A
HETATM   21  C8  UNL     1       4.450 120.227  -3.376  1.00  0.00     0.014 A
HETATM   22  C9  UNL     1       3.857 121.070  -2.435  1.00  0.00     0.001 A
HETATM   23  C10 UNL     1       2.548 120.949  -2.107  1.00  0.00     0.000 A
HETATM   24  C11 UNL     1       1.784 119.975  -2.710  1.00  0.00     0.001 A
HETATM   25  C12 UNL     1       2.331 119.135  -3.632  1.00  0.00     0.014 A
ENDBRANCH   4  20
TORSDOF 3
ENDMDL