MODEL 4
REMARK VINA RESULT: -5.689701499      1.737      2.205
REMARK  3 active torsions:
REMARK  status: ('A' for Active; 'I' for Inactive)
REMARK    1  A    between atoms: C3_3  and  S1_4
REMARK    2  A    between atoms: S1_4  and  C4_6
REMARK    3  A    between atoms: N2_12  and  N3_14
ROOT
HETATM    1  C1  UNL     1       0.050 114.029  -8.429  1.00  0.00     0.013 C
HETATM    2  C2  UNL     1       0.660 114.981  -8.884  1.00  0.00    -0.104 C
HETATM    3  C3  UNL     1       1.375 116.132  -9.447  1.00  0.00     0.207 C
ENDROOT
BRANCH   3   4
HETATM    4  S1  UNL     1       3.035 116.035  -9.006  1.00  0.00     0.061 S
HETATM    5  O1  UNL     1       3.491 114.423  -8.874  1.00  0.00    -0.252 OA
BRANCH   4   6
HETATM    6  C4  UNL     1       3.612 116.908  -7.684  1.00  0.00     0.040 A
HETATM    7  C5  UNL     1       2.680 117.490  -6.839  1.00  0.00     0.053 A
HETATM    8  C6  UNL     1       3.023 118.224  -5.730  1.00  0.00     0.062 A
HETATM    9  N1  UNL     1       2.079 118.779  -4.926  1.00  0.00    -0.335 N
HETATM   10  C9  UNL     1       4.368 118.378  -5.462  1.00  0.00     0.062 A
HETATM   11  C7  UNL     1       2.422 119.497  -3.842  1.00  0.00     0.189 A
ATOM     12  H1  UNL     1       1.093 118.650  -5.150  1.00  0.00     0.168 HD
HETATM   13  N2  UNL     1       1.486 119.999  -3.118  1.00  0.00    -0.287 N
HETATM   14  C8  UNL     1       3.766 119.645  -3.581  1.00  0.00     0.291 A
ATOM     15  H2  UNL     1       0.527 119.819  -3.415  1.00  0.00     0.188 HD
HETATM   16  O2  UNL     1       4.086 120.320  -2.563  1.00  0.00    -0.264 OA
HETATM   17  N4  UNL     1       4.722 119.094  -4.380  1.00  0.00    -0.318 N
ATOM     18  H4  UNL     1       5.709 119.224  -4.157  1.00  0.00     0.169 HD
HETATM   19  C10 UNL     1       5.306 117.800  -6.300  1.00  0.00     0.040 A
HETATM   20  C11 UNL     1       4.950 117.064  -7.411  1.00  0.00    -0.041 A
HETATM   21  C12 UNL     1       5.907 116.436  -8.324  1.00  0.00     0.049 C
BRANCH  13  22
HETATM   22  N3  UNL     1       1.651 120.752  -1.988  1.00  0.00    -0.343 N
ATOM     23  H32 UNL     1       1.491 120.265  -1.106  1.00  0.00     0.176 HD
ATOM     24  H31 UNL     1       1.914 121.737  -1.950  1.00  0.00     0.176 HD
ENDBRANCH  13  22
ENDBRANCH   4   6
ENDBRANCH   3   4
TORSDOF 3
ENDMDL