MODEL 4
REMARK VINA RESULT: -6.400418243      1.708      3.560
REMARK  5 active torsions:
REMARK  status: ('A' for Active; 'I' for Inactive)
REMARK    1  A    between atoms: C3_3  and  N1_4
REMARK    2  A    between atoms: N1_4  and  C4_6
REMARK    3  A    between atoms: C5_9  and  N3_10
REMARK    4  A    between atoms: C6_15  and  N5_16
REMARK    5  A    between atoms: N5_16  and  C7_18
ROOT
HETATM    1  C1  UNL     1       7.475 123.819  -7.716  1.00  0.00     0.014 C
HETATM    2  C2  UNL     1       7.481 122.682  -8.111  1.00  0.00    -0.097 C
HETATM    3  C3  UNL     1       7.476 121.287  -8.608  1.00  0.00     0.231 C
ENDROOT
BRANCH   3   4
HETATM    4  N1  UNL     1       8.708 120.691  -8.199  1.00  0.00    -0.215 N
ATOM      5  H1  UNL     1       9.484 120.684  -8.860  1.00  0.00     0.178 HD
BRANCH   4   6
HETATM    6  C4  UNL     1       8.889 120.162  -7.035  1.00  0.00     0.708 A
HETATM    7  N2  UNL     1      10.002 120.355  -6.314  1.00  0.00    -0.022 N
HETATM    8  C5  UNL     1      10.147 119.794  -5.125  1.00  0.00     0.705 A
ATOM      9  H2  UNL     1      10.747 120.943  -6.687  1.00  0.00     0.203 HD
HETATM   10  N4  UNL     1       9.157 119.006  -4.614  1.00  0.00    -0.021 N
HETATM   11  C6  UNL     1       8.029 118.792  -5.313  1.00  0.00     0.711 A
ATOM     12  H4  UNL     1       9.275 118.576  -3.697  1.00  0.00     0.203 HD
HETATM   13  N7  UNL     1       7.922 119.380  -6.515  1.00  0.00    -0.021 N
ATOM     14  H7  UNL     1       7.072 119.228  -7.058  1.00  0.00     0.203 HD
BRANCH   8  15
HETATM   15  N3  UNL     1      11.241 120.017  -4.476  1.00  0.00    -0.234 N
ATOM     16  H32 UNL     1      12.091 120.328  -4.947  1.00  0.00     0.174 HD
ATOM     17  H31 UNL     1      11.240 119.873  -3.466  1.00  0.00     0.174 HD
ENDBRANCH   8  15
BRANCH  11  18
HETATM   18  N5  UNL     1       7.120 118.055  -4.819  1.00  0.00    -0.191 N
ATOM     19  H5  UNL     1       7.406 117.138  -4.476  1.00  0.00     0.184 HD
BRANCH  18  20
HETATM   20  C7  UNL     1       5.763 118.381  -4.702  1.00  0.00     0.053 A
HETATM   21  C8  UNL     1       4.786 117.637  -5.335  1.00  0.00     0.047 A
HETATM   22  C9  UNL     1       3.446 117.930  -5.241  1.00  0.00     0.091 A
HETATM   23  N6  UNL     1       3.072 118.984  -4.503  1.00  0.00    -0.359 N
HETATM   24  C10 UNL     1       3.964 119.760  -3.854  1.00  0.00     0.087 A
ATOM     25  H6  UNL     1       2.078 119.206  -4.430  1.00  0.00     0.166 HD
HETATM   26  C11 UNL     1       3.493 120.875  -3.079  1.00  0.00    -0.060 C
HETATM   27  C13 UNL     1       5.326 119.458  -3.952  1.00  0.00     0.069 A
HETATM   28  C12 UNL     1       3.102 121.812  -2.427  1.00  0.00     0.019 C
ENDBRANCH  18  20
ENDBRANCH  11  18
ENDBRANCH   4   6
ENDBRANCH   3   4
TORSDOF 5
ENDMDL