MODEL 5
REMARK VINA RESULT: -5.763351315      2.672      3.961
REMARK  6 active torsions:
REMARK  status: ('A' for Active; 'I' for Inactive)
REMARK    1  A    between atoms: O1_2  and  C2_3
REMARK    2  A    between atoms: C2_3  and  C3_4
REMARK    3  A    between atoms: C4_7  and  C5_8
REMARK    4  A    between atoms: C5_8  and  C6_9
REMARK    5  A    between atoms: C13_20  and  N4_21
REMARK    6  A    between atoms: N4_21  and  N5_23
ROOT
HETATM    1  C3  UNL     1       6.702 115.921  -9.147  1.00  0.00     0.129 A
HETATM    2  N1  UNL     1       6.323 115.704  -7.879  1.00  0.00    -0.338 N
ATOM      3  H1  UNL     1       6.625 114.938  -7.277  1.00  0.00     0.167 HD
HETATM    4  C4  UNL     1       5.462 116.697  -7.549  1.00  0.00     0.080 A
HETATM    5  C13 UNL     1       5.325 117.513  -8.630  1.00  0.00     0.148 A
HETATM    6  N6  UNL     1       6.110 117.018  -9.637  1.00  0.00    -0.324 N
ATOM      7  H6  UNL     1       6.222 117.407 -10.573  1.00  0.00     0.169 HD
ENDROOT
BRANCH   4   8
HETATM    8  C5  UNL     1       4.889 116.799  -6.366  1.00  0.00     0.048 C
BRANCH   8   9
HETATM    9  C6  UNL     1       5.224 117.890  -5.452  1.00  0.00     0.011 A
HETATM   10  C7  UNL     1       6.464 118.389  -5.130  1.00  0.00     0.102 A
HETATM   11  N2  UNL     1       6.333 119.396  -4.248  1.00  0.00    -0.363 N
HETATM   12  C8  UNL     1       5.032 119.581  -3.972  1.00  0.00     0.059 A
ATOM     13  H2  UNL     1       7.102 119.934  -3.849  1.00  0.00     0.165 HD
HETATM   14  C9  UNL     1       4.335 120.449  -3.160  1.00  0.00     0.033 A
HETATM   15  C12 UNL     1       4.328 118.641  -4.723  1.00  0.00     0.070 A
HETATM   16  C10 UNL     1       2.969 120.352  -3.123  1.00  0.00     0.019 A
HETATM   17  C11 UNL     1       2.265 119.420  -3.868  1.00  0.00     0.088 A
HETATM   18  N3  UNL     1       2.990 118.587  -4.652  1.00  0.00    -0.363 N
ATOM     19  H3  UNL     1       2.498 117.889  -5.212  1.00  0.00     0.165 HD
ENDBRANCH   8   9
ENDBRANCH   4   8
BRANCH   5  20
HETATM   20  N4  UNL     1       4.640 118.570  -8.827  1.00  0.00    -0.290 N
ATOM     21  H4  UNL     1       5.157 119.447  -8.894  1.00  0.00     0.188 HD
BRANCH  20  22
HETATM   22  N5  UNL     1       3.278 118.647  -8.960  1.00  0.00    -0.344 N
ATOM     23  H52 UNL     1       2.907 118.357  -9.865  1.00  0.00     0.176 HD
ATOM     24  H51 UNL     1       2.616 118.961  -8.251  1.00  0.00     0.176 HD
ENDBRANCH  20  22
ENDBRANCH   5  20
BRANCH   1  25
HETATM   25  C2  UNL     1       7.537 115.164  -9.822  1.00  0.00     0.182 C
BRANCH  25  26
HETATM   26  O1  UNL     1       8.052 114.025  -9.240  1.00  0.00    -0.364 OA
HETATM   27  C1  UNL     1       9.422 113.659  -9.432  1.00  0.00     0.209 C
ENDBRANCH  25  26
ENDBRANCH   1  25
TORSDOF 6
ENDMDL