MODEL 4
REMARK VINA RESULT: -5.328149113      2.117      4.874
REMARK  3 active torsions:
REMARK  status: ('A' for Active; 'I' for Inactive)
REMARK    1  A    between atoms: O1_2  and  C2_3
REMARK       I    between atoms: N2_7  and  C4_9
REMARK    2  A    between atoms: C7_16  and  N5_17
REMARK    3  A    between atoms: N5_17  and  C8_19
ROOT
HETATM    1  C2  UNL     1       3.190 117.894  -6.069  1.00  0.00     0.172 A
HETATM    2  N1  UNL     1       3.483 117.035  -7.061  1.00  0.00    -0.321 N
ATOM      3  H1  UNL     1       2.724 116.632  -7.610  1.00  0.00     0.169 HD
HETATM    4  C3  UNL     1       4.754 116.692  -7.350  1.00  0.00     0.110 A
HETATM    5  N2  UNL     1       4.934 115.861  -8.319  1.00  0.00    -0.317 N
ATOM      6  H2  UNL     1       4.112 115.511  -8.811  1.00  0.00     0.170 HD
HETATM    7  C4  UNL     1       6.203 115.407  -8.741  1.00  0.00     0.187 C
HETATM    8  N3  UNL     1       6.586 114.248  -8.345  1.00  0.00    -0.373 N
ATOM      9  H31 UNL     1       7.502 113.920  -8.649  1.00  0.00     0.158 HD
ATOM     10  H32 UNL     1       5.993 113.672  -7.746  1.00  0.00     0.158 HD
HETATM   11  N4  UNL     1       7.025 116.206  -9.571  1.00  0.00    -0.064 NA
HETATM   12  C5  UNL     1       5.786 117.225  -6.624  1.00  0.00     0.066 A
HETATM   13  C6  UNL     1       5.539 118.105  -5.602  1.00  0.00     0.042 A
HETATM   14  C7  UNL     1       6.551 118.658  -4.853  1.00  0.00     0.115 A
HETATM   15  N6  UNL     1       6.203 119.509  -3.874  1.00  0.00    -0.338 N
ATOM     16  H6  UNL     1       6.932 119.935  -3.300  1.00  0.00     0.168 HD
HETATM   17  C11 UNL     1       4.896 119.816  -3.631  1.00  0.00     0.182 A
HETATM   18  N7  UNL     1       3.903 119.296  -4.340  1.00  0.00    -0.348 N
ATOM     19  H7  UNL     1       2.932 119.539  -4.142  1.00  0.00     0.167 HD
HETATM   20  C12 UNL     1       4.219 118.430  -5.337  1.00  0.00     0.099 A
ENDROOT
BRANCH   1  21
HETATM   21  O1  UNL     1       1.850 118.224  -5.801  1.00  0.00    -0.339 OA
HETATM   22  C1  UNL     1       1.404 118.629  -4.536  1.00  0.00     0.211 C
ENDBRANCH   1  21
BRANCH  14  23
HETATM   23  N5  UNL     1       7.772 118.341  -5.116  1.00  0.00    -0.372 N
ATOM     24  H5  UNL     1       7.958 117.421  -5.513  1.00  0.00     0.161 HD
BRANCH  23  25
HETATM   25  C8  UNL     1       8.891 119.227  -4.878  1.00  0.00     0.075 C
HETATM   26  C9  UNL     1       9.532 119.710  -6.152  1.00  0.00     0.031 C
HETATM   27  C10 UNL     1       9.934 118.578  -3.988  1.00  0.00     0.031 C
ENDBRANCH  23  25
ENDBRANCH  14  23
TORSDOF 3
ENDMDL