MODEL 4
REMARK VINA RESULT: -7.334746081      1.462      1.974
REMARK  4 active torsions:
REMARK  status: ('A' for Active; 'I' for Inactive)
REMARK    1  A    between atoms: N2_5  and  C3_6
REMARK    2  A    between atoms: C6_14  and  N5_15
REMARK    3  A    between atoms: C7_18  and  C8_19
REMARK    4  A    between atoms: C8_19  and  C9_20
ROOT
HETATM    1  C1  UNL     1       6.968 118.743  -4.563  1.00  0.00     0.045 C
HETATM    2  C2  UNL     1       5.704 119.030  -4.374  1.00  0.00     0.053 A
HETATM    3  N1  UNL     1       5.285 120.109  -3.647  1.00  0.00    -0.291 N
ATOM      4  H1  UNL     1       5.902 120.781  -3.192  1.00  0.00     0.187 HD
HETATM    5  N2  UNL     1       3.986 120.155  -3.622  1.00  0.00    -0.221 N
HETATM    6  C6  UNL     1       3.498 119.132  -4.314  1.00  0.00     0.135 A
HETATM    7  C7  UNL     1       4.574 118.381  -4.816  1.00  0.00     0.039 A
ENDROOT
BRANCH   5   8
HETATM    8  C3  UNL     1       3.213 121.154  -2.950  1.00  0.00     0.149 A
HETATM    9  C4  UNL     1       2.432 120.954  -1.830  1.00  0.00     0.127 A
HETATM   10  C5  UNL     1       1.884 122.184  -1.545  1.00  0.00     0.263 A
HETATM   11  O1  UNL     1       1.100 122.431  -0.585  1.00  0.00    -0.267 OA
HETATM   12  N3  UNL     1       2.315 123.090  -2.455  1.00  0.00    -0.265 N
HETATM   13  N4  UNL     1       3.115 122.452  -3.293  1.00  0.00    -0.281 N
ATOM     14  H3  UNL     1       2.070 124.079  -2.487  1.00  0.00     0.190 HD
ATOM     15  H4  UNL     1       3.589 122.883  -4.086  1.00  0.00     0.188 HD
ENDBRANCH   5   8
BRANCH   6  16
HETATM   16  N5  UNL     1       2.264 118.841  -4.515  1.00  0.00    -0.383 N
ATOM     17  H52 UNL     1       1.648 118.447  -3.804  1.00  0.00     0.157 HD
ATOM     18  H51 UNL     1       1.731 118.955  -5.377  1.00  0.00     0.157 HD
ENDBRANCH   6  16
BRANCH   7  19
HETATM   19  C8  UNL     1       4.444 117.301  -5.545  1.00  0.00     0.054 C
BRANCH  19  20
HETATM   20  C9  UNL     1       3.957 117.121  -6.877  1.00  0.00     0.076 A
HETATM   21  C10 UNL     1       4.649 116.510  -7.932  1.00  0.00     0.040 A
HETATM   22  C11 UNL     1       3.787 116.574  -9.003  1.00  0.00     0.035 A
HETATM   23  C12 UNL     1       2.639 117.204  -8.570  1.00  0.00     0.050 A
HETATM   24  C13 UNL     1       1.479 117.445  -9.483  1.00  0.00     0.076 C
HETATM   25  O2  UNL     1       2.778 117.508  -7.318  1.00  0.00    -0.316 OA
ENDBRANCH  19  20
ENDBRANCH   7  19
TORSDOF 4
ENDMDL