MODEL 2
REMARK VINA RESULT: -7.762722839      0.089      1.078
REMARK  3 active torsions:
REMARK  status: ('A' for Active; 'I' for Inactive)
REMARK    1  A    between atoms: N2_5  and  C3_6
REMARK    2  A    between atoms: C6_19  and  C7_20
REMARK    3  A    between atoms: C7_20  and  C8_21
ROOT
HETATM    1  C1  UNL     1       7.065 118.919  -4.698  1.00  0.00     0.045 C
HETATM    2  C2  UNL     1       5.764 119.089  -4.402  1.00  0.00     0.055 A
HETATM    3  N1  UNL     1       5.215 120.102  -3.707  1.00  0.00    -0.277 N
ATOM      4  H1  UNL     1       5.746 120.880  -3.315  1.00  0.00     0.188 HD
HETATM    5  N2  UNL     1       3.906 119.967  -3.594  1.00  0.00    -0.045 N
HETATM    6  C5  UNL     1       3.591 118.827  -4.238  1.00  0.00     0.295 A
HETATM    7  O1  UNL     1       2.433 118.354  -4.351  1.00  0.00    -0.265 OA
HETATM    8  C6  UNL     1       4.725 118.246  -4.757  1.00  0.00     0.062 A
ENDROOT
BRANCH   5   9
HETATM    9  C3  UNL     1       3.008 120.864  -2.917  1.00  0.00     0.736 A
HETATM   10  N3  UNL     1       1.998 120.592  -2.104  1.00  0.00    -0.115 N
HETATM   11  N4  UNL     1       1.448 121.748  -1.715  1.00  0.00    -0.117 N
ATOM     12  H3  UNL     1       1.693 119.660  -1.822  1.00  0.00     0.206 HD
HETATM   13  C4  UNL     1       2.113 122.762  -2.285  1.00  0.00     0.705 A
ATOM     14  H4  UNL     1       0.652 121.842  -1.086  1.00  0.00     0.206 HD
HETATM   15  N5  UNL     1       1.854 124.038  -2.133  1.00  0.00    -0.233 N
HETATM   16  N6  UNL     1       3.079 122.210  -3.030  1.00  0.00    -0.018 N
ATOM     17  H52 UNL     1       1.118 124.458  -1.566  1.00  0.00     0.174 HD
ATOM     18  H51 UNL     1       2.360 124.810  -2.567  1.00  0.00     0.174 HD
ATOM     19  H6  UNL     1       3.759 122.723  -3.592  1.00  0.00     0.203 HD
ENDBRANCH   5   9
BRANCH   8  20
HETATM   20  C7  UNL     1       4.842 117.127  -5.452  1.00  0.00     0.030 C
BRANCH  20  21
HETATM   21  C8  UNL     1       4.729 117.094  -6.901  1.00  0.00    -0.035 A
HETATM   22  C9  UNL     1       5.613 116.325  -7.625  1.00  0.00     0.011 A
HETATM   23  C10 UNL     1       5.475 116.315  -9.019  1.00  0.00     0.001 A
HETATM   24  C11 UNL     1       4.486 117.056  -9.625  1.00  0.00     0.000 A
HETATM   25  C12 UNL     1       3.611 117.819  -8.896  1.00  0.00     0.001 A
HETATM   26  C13 UNL     1       3.736 117.838  -7.502  1.00  0.00     0.011 A
ENDBRANCH  20  21
ENDBRANCH   8  20
TORSDOF 3
ENDMDL