MODEL 3
REMARK VINA RESULT: -7.311478530      1.503      3.102
REMARK  3 active torsions:
REMARK  status: ('A' for Active; 'I' for Inactive)
REMARK    1  A    between atoms: N2_8  and  N3_10
REMARK    2  A    between atoms: N5_16  and  C6_18
REMARK    3  A    between atoms: C6_18  and  C7_19
ROOT
HETATM    1  C1  UNL     1       9.449 121.837  -8.575  1.00  0.00     0.064 C
HETATM    2  C2  UNL     1       9.449 121.115  -7.475  1.00  0.00     0.114 C
HETATM    3  N1  UNL     1      10.729 120.927  -6.840  1.00  0.00    -0.307 N
ATOM      4  H1  UNL     1      11.471 121.548  -7.163  1.00  0.00     0.170 HD
HETATM    5  C3  UNL     1      11.114 119.988  -5.812  1.00  0.00     0.293 C
HETATM    6  O1  UNL     1      12.326 119.981  -5.542  1.00  0.00    -0.264 OA
HETATM    7  C4  UNL     1      10.305 119.054  -5.055  1.00  0.00     0.203 C
HETATM    8  N2  UNL     1      10.835 118.167  -4.357  1.00  0.00    -0.287 N
ATOM      9  H2  UNL     1      10.139 117.589  -3.888  1.00  0.00     0.188 HD
HETATM   10  N4  UNL     1       8.841 119.054  -5.043  1.00  0.00    -0.170 N
ATOM     11  H4  UNL     1       8.400 118.632  -4.226  1.00  0.00     0.186 HD
HETATM   12  C5  UNL     1       7.964 119.569  -6.024  1.00  0.00     0.681 C
HETATM   13  N5  UNL     1       6.804 119.164  -6.068  1.00  0.00    -0.222 N
ATOM     14  H5  UNL     1       6.241 119.580  -6.810  1.00  0.00     0.178 HD
HETATM   15  N6  UNL     1       8.216 120.591  -7.015  1.00  0.00    -0.177 N
ATOM     16  H6  UNL     1       7.384 120.995  -7.445  1.00  0.00     0.185 HD
ENDROOT
BRANCH  13  17
HETATM   17  C6  UNL     1       6.110 118.218  -5.265  1.00  0.00     0.177 C
BRANCH  17  18
HETATM   18  C7  UNL     1       5.006 118.891  -4.538  1.00  0.00    -0.034 A
HETATM   19  C8  UNL     1       5.209 119.841  -3.606  1.00  0.00     0.009 A
HETATM   20  C9  UNL     1       4.131 120.524  -3.008  1.00  0.00     0.001 A
HETATM   21  C10 UNL     1       2.867 120.181  -3.407  1.00  0.00     0.001 A
HETATM   22  C11 UNL     1       2.659 119.188  -4.374  1.00  0.00     0.007 A
HETATM   23  C12 UNL     1       3.714 118.538  -4.945  1.00  0.00    -0.054 A
HETATM   24  C13 UNL     1       3.607 117.452  -5.948  1.00  0.00     0.049 C
ENDBRANCH  17  18
ENDBRANCH  13  17
BRANCH   8  25
HETATM   25  N3  UNL     1      12.087 117.777  -4.064  1.00  0.00    -0.343 N
ATOM     26  H32 UNL     1      12.072 117.008  -3.395  1.00  0.00     0.176 HD
ATOM     27  H31 UNL     1      13.030 118.053  -4.338  1.00  0.00     0.176 HD
ENDBRANCH   8  25
TORSDOF 3
ENDMDL