MODEL 1
REMARK VINA RESULT: -7.361860218      0.000      0.000
REMARK  5 active torsions:
REMARK  status: ('A' for Active; 'I' for Inactive)
REMARK    1  A    between atoms: N1_1  and  C1_4
REMARK    2  A    between atoms: C2_10  and  C3_11
REMARK    3  A    between atoms: C3_11  and  C4_12
REMARK    4  A    between atoms: C6_17  and  C7_18
REMARK    5  A    between atoms: C7_18  and  C8_19
ROOT
HETATM    1  C4  UNL     1     -42.849  14.500   3.267  1.00  0.00     0.110 A
HETATM    2  N4  UNL     1     -43.600  15.473   2.673  1.00  0.00    -0.308 N
ATOM      3  H4  UNL     1     -43.674  16.438   2.998  1.00  0.00     0.170 HD
HETATM    4  C5  UNL     1     -44.225  14.971   1.596  1.00  0.00     0.273 A
HETATM    5  O2  UNL     1     -44.999  15.570   0.803  1.00  0.00    -0.266 OA
HETATM    6  C6  UNL     1     -43.831  13.631   1.540  1.00  0.00     0.103 A
HETATM    7  N5  UNL     1     -42.998  13.368   2.562  1.00  0.00    -0.338 N
ATOM      8  H5  UNL     1     -42.559  12.470   2.765  1.00  0.00     0.167 HD
ENDROOT
BRANCH   1   9
HETATM    9  C3  UNL     1     -42.108  14.655   4.349  1.00  0.00     0.084 C
BRANCH   9  10
HETATM   10  C2  UNL     1     -41.462  15.911   4.689  1.00  0.00     0.105 A
HETATM   11  C1  UNL     1     -42.039  17.017   5.277  1.00  0.00     0.150 A
HETATM   12  N2  UNL     1     -41.097  17.967   5.421  1.00  0.00    -0.224 N
HETATM   13  O1  UNL     1     -39.980  17.480   4.946  1.00  0.00    -0.155 OA
ATOM     14  H2  UNL     1     -41.229  18.894   5.825  1.00  0.00     0.198 HD
HETATM   15  N3  UNL     1     -40.159  16.272   4.507  1.00  0.00    -0.238 N
ATOM     16  H3  UNL     1     -39.438  15.684   4.090  1.00  0.00     0.197 HD
BRANCH  11  17
HETATM   17  N1  UNL     1     -43.287  17.084   5.618  1.00  0.00    -0.382 N
ATOM     18  H12 UNL     1     -43.866  16.268   5.813  1.00  0.00     0.157 HD
ATOM     19  H11 UNL     1     -43.855  17.922   5.736  1.00  0.00     0.157 HD
ENDBRANCH  11  17
ENDBRANCH   9  10
ENDBRANCH   1   9
BRANCH   6  20
HETATM   20  C7  UNL     1     -44.237  12.789   0.613  1.00  0.00     0.046 C
BRANCH  20  21
HETATM   21  C8  UNL     1     -43.602  12.712  -0.688  1.00  0.00    -0.034 A
HETATM   22  C9  UNL     1     -42.409  12.015  -0.830  1.00  0.00     0.011 A
HETATM   23  C10 UNL     1     -41.776  11.924  -2.063  1.00  0.00     0.001 A
HETATM   24  C11 UNL     1     -42.325  12.528  -3.168  1.00  0.00     0.000 A
HETATM   25  C12 UNL     1     -43.518  13.234  -3.059  1.00  0.00     0.001 A
HETATM   26  C13 UNL     1     -44.128  13.309  -1.815  1.00  0.00     0.011 A
ENDBRANCH  20  21
ENDBRANCH   6  20
TORSDOF 5
ENDMDL