MODEL 1
REMARK VINA RESULT: -7.061959845      0.000      0.000
REMARK  4 active torsions:
REMARK  status: ('A' for Active; 'I' for Inactive)
REMARK    1  A    between atoms: N2_5  and  C3_6
REMARK    2  A    between atoms: C10_14  and  C11_15
REMARK    3  A    between atoms: C11_15  and  C12_16
REMARK    4  A    between atoms: C14_22  and  N5_23
ROOT
HETATM    1  C1  UNL     1     -42.036  10.830   2.098  1.00  0.00     0.045 C
HETATM    2  C2  UNL     1     -42.515  12.048   2.248  1.00  0.00     0.055 A
HETATM    3  N1  UNL     1     -42.096  12.941   3.184  1.00  0.00    -0.291 N
ATOM      4  H1  UNL     1     -41.362  12.739   3.862  1.00  0.00     0.187 HD
HETATM    5  N2  UNL     1     -42.728  14.082   3.127  1.00  0.00    -0.220 N
HETATM    6  C9  UNL     1     -43.586  13.967   2.145  1.00  0.00     0.279 A
HETATM    7  O1  UNL     1     -44.381  14.834   1.763  1.00  0.00    -0.265 OA
HETATM    8  C10 UNL     1     -43.504  12.686   1.535  1.00  0.00     0.062 A
ENDROOT
BRANCH   8   9
HETATM    9  C11 UNL     1     -44.248  12.308   0.530  1.00  0.00     0.036 C
BRANCH   9  10
HETATM   10  C12 UNL     1     -44.009  12.491  -0.859  1.00  0.00     0.027 A
HETATM   11  C13 UNL     1     -44.086  13.697  -1.573  1.00  0.00     0.122 A
HETATM   12  N3  UNL     1     -43.835  13.425  -2.855  1.00  0.00    -0.309 N
HETATM   13  N4  UNL     1     -43.603  12.147  -3.027  1.00  0.00    -0.285 N
ATOM     14  H3  UNL     1     -43.824  14.121  -3.602  1.00  0.00     0.186 HD
HETATM   15  C14 UNL     1     -43.698  11.536  -1.838  1.00  0.00     0.125 A
ATOM     16  H4  UNL     1     -43.387  11.694  -3.915  1.00  0.00     0.188 HD
BRANCH  15  17
HETATM   17  N5  UNL     1     -43.539  10.295  -1.586  1.00  0.00    -0.384 N
ATOM     18  H52 UNL     1     -44.094   9.712  -0.959  1.00  0.00     0.157 HD
ATOM     19  H51 UNL     1     -42.805   9.725  -2.006  1.00  0.00     0.157 HD
ENDBRANCH  15  17
ENDBRANCH   9  10
ENDBRANCH   8   9
BRANCH   5  20
HETATM   20  C3  UNL     1     -42.466  15.176   4.004  1.00  0.00     0.060 A
HETATM   21  C4  UNL     1     -43.463  15.803   4.720  1.00  0.00     0.031 A
HETATM   22  C5  UNL     1     -43.229  16.854   5.566  1.00  0.00     0.002 A
HETATM   23  C6  UNL     1     -41.926  17.302   5.700  1.00  0.00     0.000 A
HETATM   24  C7  UNL     1     -40.891  16.712   5.008  1.00  0.00     0.002 A
HETATM   25  C8  UNL     1     -41.180  15.656   4.169  1.00  0.00     0.031 A
ENDBRANCH   5  20
TORSDOF 4
ENDMDL