MODEL 2
REMARK VINA RESULT: -7.358930046      0.189      1.024
REMARK  4 active torsions:
REMARK  status: ('A' for Active; 'I' for Inactive)
REMARK    1  A    between atoms: C4_5  and  C5_6
REMARK    2  A    between atoms: C5_6  and  C6_7
REMARK    3  A    between atoms: C8_11  and  N3_12
REMARK    4  A    between atoms: C9_17  and  N5_18
ROOT
HETATM    1  C6  UNL     1     -43.487  12.131   1.279  1.00  0.00     0.083 A
HETATM    2  N2  UNL     1     -44.020  13.354   1.484  1.00  0.00    -0.349 N
ATOM      3  H2  UNL     1     -44.764  13.689   0.872  1.00  0.00     0.166 HD
HETATM    4  C7  UNL     1     -43.575  14.140   2.493  1.00  0.00     0.122 A
HETATM    5  C8  UNL     1     -44.122  15.397   2.712  1.00  0.00     0.145 A
HETATM    6  N4  UNL     1     -43.655  16.158   3.735  1.00  0.00    -0.175 N
ATOM      7  H4  UNL     1     -44.062  17.080   3.889  1.00  0.00     0.186 HD
HETATM    8  C9  UNL     1     -42.682  15.738   4.543  1.00  0.00     0.679 A
HETATM    9  N6  UNL     1     -42.159  14.522   4.324  1.00  0.00    -0.174 N
ATOM     10  H6  UNL     1     -41.414  14.193   4.938  1.00  0.00     0.186 HD
HETATM   11  C10 UNL     1     -42.579  13.713   3.324  1.00  0.00     0.154 A
HETATM   12  N7  UNL     1     -42.032  12.501   3.139  1.00  0.00    -0.305 N
ATOM     13  H7  UNL     1     -41.287  12.170   3.751  1.00  0.00     0.170 HD
HETATM   14  C11 UNL     1     -42.492  11.716   2.116  1.00  0.00     0.270 A
HETATM   15  O1  UNL     1     -41.953  10.581   1.972  1.00  0.00    -0.266 OA
ENDROOT
BRANCH   1  16
HETATM   16  C5  UNL     1     -44.015  11.307   0.195  1.00  0.00     0.101 C
BRANCH  16  17
HETATM   17  C4  UNL     1     -43.705  11.790  -1.152  1.00  0.00    -0.050 A
HETATM   18  C3  UNL     1     -44.745  11.796  -2.089  1.00  0.00     0.024 A
HETATM   19  C2  UNL     1     -44.553  12.236  -3.388  1.00  0.00     0.090 A
HETATM   20  N1  UNL     1     -43.353  12.674  -3.792  1.00  0.00    -0.371 N
HETATM   21  C1  UNL     1     -43.170  13.136  -5.165  1.00  0.00     0.154 C
HETATM   22  C13 UNL     1     -42.347  12.672  -2.896  1.00  0.00     0.090 A
HETATM   23  C12 UNL     1     -42.486  12.244  -1.588  1.00  0.00     0.024 A
ENDBRANCH  16  17
ENDBRANCH   1  16
BRANCH   5  24
HETATM   24  N3  UNL     1     -45.053  15.840   1.970  1.00  0.00    -0.383 N
ATOM     25  H32 UNL     1     -45.423  15.256   1.221  1.00  0.00     0.157 HD
ATOM     26  H31 UNL     1     -45.435  16.775   2.114  1.00  0.00     0.157 HD
ENDBRANCH   5  24
BRANCH   8  27
HETATM   27  N5  UNL     1     -42.245  16.481   5.521  1.00  0.00    -0.234 N
ATOM     28  H52 UNL     1     -42.644  16.394   6.456  1.00  0.00     0.174 HD
ATOM     29  H51 UNL     1     -41.500  17.162   5.377  1.00  0.00     0.174 HD
ENDBRANCH   8  27
TORSDOF 4
ENDMDL