MODEL 5
REMARK VINA RESULT: -6.008734137      1.226      1.474
REMARK  4 active torsions:
REMARK  status: ('A' for Active; 'I' for Inactive)
REMARK    1  A    between atoms: N1_2  and  N2_3
REMARK       I    between atoms: N2_3  and  C2_5
REMARK       I    between atoms: C2_5  and  N5_10
REMARK    2  A    between atoms: N5_10  and  C4_12
REMARK    3  A    between atoms: C7_19  and  N8_20
REMARK    4  A    between atoms: N8_20  and  C8_22
ROOT
HETATM    1  N2  UNL     1     -45.082  11.884  -3.019  1.00  0.00    -0.136 N
ATOM      2  H2  UNL     1     -44.407  11.367  -3.583  1.00  0.00     0.201 HD
HETATM    3  C2  UNL     1     -44.637  12.425  -1.792  1.00  0.00     0.704 C
HETATM    4  N3  UNL     1     -44.647  13.693  -1.534  1.00  0.00    -0.125 N
ATOM      5  H3  UNL     1     -44.311  14.018  -0.628  1.00  0.00     0.197 HD
HETATM    6  C3  UNL     1     -45.112  14.634  -2.475  1.00  0.00     0.196 C
HETATM    7  N4  UNL     1     -45.480  15.409  -3.252  1.00  0.00    -0.171 NA
HETATM    8  N5  UNL     1     -44.148  11.562  -0.773  1.00  0.00    -0.171 N
ATOM      9  H5  UNL     1     -44.813  11.062  -0.185  1.00  0.00     0.186 HD
ENDROOT
BRANCH   1  10
HETATM   10  N1  UNL     1     -46.377  12.008  -3.509  1.00  0.00    -0.131 NA
HETATM   11  C1  UNL     1     -47.118  10.776  -3.479  1.00  0.00     0.159 C
ENDBRANCH   1  10
BRANCH   8  12
HETATM   12  C4  UNL     1     -42.884  11.395  -0.574  1.00  0.00     0.165 A
HETATM   13  N6  UNL     1     -42.067  11.142  -1.606  1.00  0.00    -0.347 N
HETATM   14  C5  UNL     1     -40.735  10.964  -1.413  1.00  0.00     0.107 A
ATOM     15  H6  UNL     1     -42.452  11.081  -2.549  1.00  0.00     0.167 HD
HETATM   16  C6  UNL     1     -40.264  11.055  -0.115  1.00  0.00     0.107 A
HETATM   17  N7  UNL     1     -41.077  11.309   0.924  1.00  0.00    -0.348 N
HETATM   18  C7  UNL     1     -42.389  11.481   0.711  1.00  0.00     0.151 A
ATOM     19  H7  UNL     1     -40.699  11.370   1.868  1.00  0.00     0.167 HD
BRANCH  18  20
HETATM   20  N8  UNL     1     -43.185  11.726   1.695  1.00  0.00    -0.339 N
ATOM     21  H8  UNL     1     -43.854  11.024   2.012  1.00  0.00     0.167 HD
BRANCH  20  22
HETATM   22  C8  UNL     1     -43.111  12.988   2.326  1.00  0.00     0.036 A
HETATM   23  C9  UNL     1     -43.992  13.974   1.929  1.00  0.00     0.046 A
HETATM   24  C10 UNL     1     -43.954  15.229   2.524  1.00  0.00     0.090 A
HETATM   25  N9  UNL     1     -43.077  15.511   3.476  1.00  0.00    -0.375 N
HETATM   26  C11 UNL     1     -42.207  14.570   3.882  1.00  0.00     0.090 A
ATOM     27  H9  UNL     1     -43.063  16.439   3.901  1.00  0.00     0.164 HD
HETATM   28  C12 UNL     1     -42.216  13.313   3.316  1.00  0.00     0.046 A
ENDBRANCH  20  22
ENDBRANCH  18  20
ENDBRANCH   8  12
TORSDOF 4
ENDMDL