MODEL 2
REMARK VINA RESULT: -6.355150648      4.559      7.510
REMARK  4 active torsions:
REMARK  status: ('A' for Active; 'I' for Inactive)
REMARK    1  A    between atoms: N1_2  and  C2_4
REMARK    2  A    between atoms: C6_8  and  C7_9
REMARK    3  A    between atoms: C7_9  and  N2_10
REMARK    4  A    between atoms: N2_10  and  C8_12
ROOT
HETATM    1  C8  UNL     1     -42.459  13.901   3.487  1.00  0.00     0.133 A
HETATM    2  N3  UNL     1     -42.261  14.351   4.733  1.00  0.00    -0.337 N
ATOM      3  H3  UNL     1     -41.619  13.867   5.360  1.00  0.00     0.168 HD
HETATM    4  C9  UNL     1     -42.927  15.464   5.152  1.00  0.00     0.183 A
HETATM    5  N4  UNL     1     -43.769  16.100   4.330  1.00  0.00    -0.336 N
ATOM      6  H4  UNL     1     -44.257  16.931   4.665  1.00  0.00     0.168 HD
HETATM    7  C10 UNL     1     -43.990  15.672   3.075  1.00  0.00     0.141 A
HETATM    8  N5  UNL     1     -44.762  16.109   2.066  1.00  0.00    -0.292 N
ATOM      9  H5  UNL     1     -45.371  16.927   2.101  1.00  0.00     0.172 HD
HETATM   10  C11 UNL     1     -44.607  15.297   1.000  1.00  0.00     0.326 A
HETATM   11  O1  UNL     1     -45.177  15.404  -0.122  1.00  0.00    -0.247 OA
HETATM   12  N6  UNL     1     -43.723  14.342   1.360  1.00  0.00    -0.302 N
ATOM     13  H6  UNL     1     -43.405  13.581   0.758  1.00  0.00     0.171 HD
HETATM   14  C12 UNL     1     -43.324  14.541   2.621  1.00  0.00     0.125 A
ENDROOT
BRANCH   1  15
HETATM   15  N2  UNL     1     -41.833  12.856   3.095  1.00  0.00    -0.369 N
ATOM     16  H2  UNL     1     -40.813  12.851   3.067  1.00  0.00     0.161 HD
BRANCH  15  17
HETATM   17  C7  UNL     1     -42.568  11.695   2.698  1.00  0.00     0.178 C
BRANCH  17  18
HETATM   18  C6  UNL     1     -42.528  11.475   1.221  1.00  0.00     0.028 A
HETATM   19  C5  UNL     1     -41.374  11.701   0.505  1.00  0.00     0.027 A
HETATM   20  C4  UNL     1     -41.307  11.505  -0.861  1.00  0.00     0.006 A
HETATM   21  C3  UNL     1     -42.474  11.067  -1.472  1.00  0.00     0.048 A
HETATM   22  C2  UNL     1     -43.629  10.839  -0.767  1.00  0.00     0.100 A
HETATM   23  N7  UNL     1     -43.634  11.046   0.555  1.00  0.00    -0.345 N
ATOM     24  H7  UNL     1     -44.492  10.878   1.079  1.00  0.00     0.167 HD
BRANCH  22  25
HETATM   25  N1  UNL     1     -44.666  10.438  -1.385  1.00  0.00    -0.381 N
HETATM   26  C1  UNL     1     -44.704  10.045  -2.771  1.00  0.00     0.147 C
ATOM     27  H1  UNL     1     -45.538  10.392  -0.859  1.00  0.00     0.160 HD
ENDBRANCH  22  25
ENDBRANCH  17  18
ENDBRANCH  15  17
ENDBRANCH   1  15
TORSDOF 4
ENDMDL