MODEL 2
REMARK VINA RESULT: -6.180853093      0.030      1.055
REMARK  5 active torsions:
REMARK  status: ('A' for Active; 'I' for Inactive)
REMARK    1  A    between atoms: N2_4  and  N3_5
REMARK    2  A    between atoms: C4_9  and  N4_10
REMARK    3  A    between atoms: N4_10  and  C5_11
REMARK    4  A    between atoms: C5_11  and  C6_12
REMARK    5  A    between atoms: C12_20  and  N6_21
ROOT
HETATM    1  C1  UNL     1     -42.124  14.428   4.486  1.00  0.00     0.158 C
HETATM    2  N1  UNL     1     -42.805  14.176   3.215  1.00  0.00    -0.330 N
HETATM    3  C2  UNL     1     -43.612  14.993   2.533  1.00  0.00     0.210 A
HETATM    4  N2  UNL     1     -44.027  14.358   1.403  1.00  0.00    -0.250 N
HETATM    5  C3  UNL     1     -43.491  13.117   1.344  1.00  0.00     0.160 A
HETATM    6  C4  UNL     1     -43.596  12.081   0.415  1.00  0.00     0.225 A
HETATM    7  N5  UNL     1     -42.864  10.958   0.751  1.00  0.00    -0.162 N
ATOM      8  H5  UNL     1     -42.885  10.154   0.124  1.00  0.00     0.187 HD
HETATM    9  C12 UNL     1     -42.129  10.883   1.866  1.00  0.00     0.680 A
HETATM   10  N7  UNL     1     -42.061  11.902   2.725  1.00  0.00    -0.174 N
ATOM     11  H7  UNL     1     -41.492  11.817   3.567  1.00  0.00     0.186 HD
HETATM   12  C13 UNL     1     -42.730  13.030   2.490  1.00  0.00     0.157 A
ENDROOT
BRANCH   6  13
HETATM   13  N4  UNL     1     -44.250  12.116  -0.603  1.00  0.00    -0.396 NA
BRANCH  13  14
HETATM   14  C5  UNL     1     -44.647  11.952  -1.866  1.00  0.00     0.196 C
BRANCH  14  15
HETATM   15  C6  UNL     1     -44.762  10.522  -2.357  1.00  0.00    -0.007 A
HETATM   16  C7  UNL     1     -45.978   9.882  -2.350  1.00  0.00     0.014 A
HETATM   17  C8  UNL     1     -46.091   8.561  -2.801  1.00  0.00     0.001 A
HETATM   18  C9  UNL     1     -44.995   7.867  -3.263  1.00  0.00     0.000 A
HETATM   19  C10 UNL     1     -43.778   8.515  -3.267  1.00  0.00     0.001 A
HETATM   20  C11 UNL     1     -43.667   9.839  -2.814  1.00  0.00     0.014 A
ENDBRANCH  14  15
ENDBRANCH  13  14
ENDBRANCH   6  13
BRANCH   4  21
HETATM   21  N3  UNL     1     -44.874  14.941   0.485  1.00  0.00    -0.337 N
ATOM     22  H32 UNL     1     -45.881  14.804   0.405  1.00  0.00     0.177 HD
ATOM     23  H31 UNL     1     -44.550  15.592  -0.230  1.00  0.00     0.177 HD
ENDBRANCH   4  21
BRANCH   9  24
HETATM   24  N6  UNL     1     -41.450   9.827   2.168  1.00  0.00    -0.234 N
ATOM     25  H62 UNL     1     -40.799   9.485   1.461  1.00  0.00     0.174 HD
ATOM     26  H61 UNL     1     -41.556   9.355   3.066  1.00  0.00     0.174 HD
ENDBRANCH   9  24
TORSDOF 5
ENDMDL