MODEL 5
REMARK VINA RESULT: -3.808006014      4.288      7.052
REMARK  2 active torsions:
REMARK  status: ('A' for Active; 'I' for Inactive)
REMARK    1  A    between atoms: C2_2  and  N1_3
REMARK    2  A    between atoms: C13_22  and  C14_23
ROOT
HETATM    1  N1  UNL     1     -44.221  12.413  -3.088  1.00  0.00     0.099 N
HETATM    2  C3  UNL     1     -45.054  13.585  -3.254  1.00  0.00     0.300 C
HETATM    3  C4  UNL     1     -46.327  13.359  -3.981  1.00  0.00     0.262 C
HETATM    4  N2  UNL     1     -47.383  14.262  -3.506  1.00  0.00    -0.072 N
ATOM      5  H21 UNL     1     -46.999  15.152  -3.186  1.00  0.00     0.277 HD
ATOM      6  H22 UNL     1     -47.784  13.939  -2.626  1.00  0.00     0.277 HD
HETATM    7  C5  UNL     1     -48.398  14.454  -4.511  1.00  0.00     0.259 C
HETATM    8  C6  UNL     1     -49.615  13.557  -4.259  1.00  0.00     0.259 C
HETATM    9  N3  UNL     1     -49.437  12.262  -4.839  1.00  0.00    -0.072 N
ATOM     10  H31 UNL     1     -48.445  12.035  -4.906  1.00  0.00     0.277 HD
ATOM     11  H32 UNL     1     -49.679  12.279  -5.830  1.00  0.00     0.277 HD
HETATM   12  C7  UNL     1     -50.150  11.209  -4.164  1.00  0.00     0.251 C
HETATM   13  C8  UNL     1     -49.533  10.855  -2.819  1.00  0.00     0.146 C
HETATM   14  N4  UNL     1     -49.630   9.484  -2.499  1.00  0.00    -0.401 N
ATOM     15  H4  UNL     1     -50.405   9.143  -1.930  1.00  0.00     0.158 HD
HETATM   16  C9  UNL     1     -48.654   8.595  -2.968  1.00  0.00     0.055 C
HETATM   17  C10 UNL     1     -47.393   9.155  -3.515  1.00  0.00     0.044 C
HETATM   18  C11 UNL     1     -46.351   9.430  -2.427  1.00  0.00     0.007 C
HETATM   19  C12 UNL     1     -45.205  10.154  -3.105  1.00  0.00     0.041 C
HETATM   20  C13 UNL     1     -44.819  11.397  -2.287  1.00  0.00     0.260 C
ENDROOT
BRANCH  20  21
HETATM   21  C14 UNL     1     -43.880  10.890  -1.248  1.00  0.00     0.088 C
HETATM   22  N5  UNL     1     -44.161  10.800  -0.022  1.00  0.00    -0.409 N
ATOM     23  H52 UNL     1     -45.095  11.098   0.259  1.00  0.00     0.155 HD
ATOM     24  H51 UNL     1     -43.518  10.452   0.689  1.00  0.00     0.155 HD
ENDBRANCH  20  21
BRANCH   1  25
HETATM   25  C2  UNL     1     -42.987  12.874  -2.479  1.00  0.00     0.269 C
HETATM   26  C1  UNL     1     -42.559  14.215  -3.100  1.00  0.00     0.037 C
ENDBRANCH   1  25
TORSDOF 2
ENDMDL