MODEL 4
REMARK VINA RESULT: -6.056441503      2.700      4.531
REMARK  4 active torsions:
REMARK  status: ('A' for Active; 'I' for Inactive)
REMARK    1  A    between atoms: O1_1  and  C1_3
REMARK    2  A    between atoms: C5_10  and  C6_11
REMARK    3  A    between atoms: C6_11  and  C7_12
REMARK    4  A    between atoms: C13_18  and  O2_19
ROOT
HETATM    1  C1  UNL     1     -44.867  11.493  -3.163  1.00  0.00     0.149 C
HETATM    2  C2  UNL     1     -43.880  12.306  -3.917  1.00  0.00     0.048 C
HETATM    3  C3  UNL     1     -43.874  13.761  -3.594  1.00  0.00     0.110 C
HETATM    4  C4  UNL     1     -43.675  14.077  -2.150  1.00  0.00     0.332 C
HETATM    5  N1  UNL     1     -43.136  12.997  -1.372  1.00  0.00    -0.041 N
ATOM      6  H11 UNL     1     -42.540  13.340  -0.619  1.00  0.00     0.280 HD
ATOM      7  H12 UNL     1     -42.438  12.471  -1.898  1.00  0.00     0.280 HD
HETATM    8  C5  UNL     1     -44.186  12.135  -0.869  1.00  0.00     0.224 C
HETATM    9  C13 UNL     1     -44.301  10.974  -1.838  1.00  0.00     0.177 C
HETATM   10  O3  UNL     1     -45.041  14.309  -1.991  1.00  0.00    -0.319 OA
HETATM   11  C14 UNL     1     -45.139  14.449  -3.338  1.00  0.00     0.260 A
HETATM   12  C15 UNL     1     -45.634  15.568  -4.064  1.00  0.00     0.305 A
HETATM   13  N2  UNL     1     -46.327  14.295  -4.083  1.00  0.00    -0.036 N
ATOM     14  H21 UNL     1     -47.276  13.984  -3.876  1.00  0.00     0.281 HD
ATOM     15  H22 UNL     1     -46.646  13.656  -4.811  1.00  0.00     0.281 HD
ENDROOT
BRANCH   8  16
HETATM   16  C6  UNL     1     -43.806  11.558   0.495  1.00  0.00     0.074 C
BRANCH  16  17
HETATM   17  C7  UNL     1     -43.533  12.645   1.465  1.00  0.00    -0.056 A
HETATM   18  C8  UNL     1     -44.238  13.811   1.492  1.00  0.00     0.007 A
HETATM   19  C9  UNL     1     -43.922  14.783   2.432  1.00  0.00     0.001 A
HETATM   20  C10 UNL     1     -42.906  14.585   3.337  1.00  0.00     0.000 A
HETATM   21  C11 UNL     1     -42.190  13.416   3.320  1.00  0.00     0.001 A
HETATM   22  C12 UNL     1     -42.520  12.464   2.379  1.00  0.00     0.007 A
ENDBRANCH  16  17
ENDBRANCH   8  16
BRANCH   9  23
HETATM   23  O2  UNL     1     -45.167  10.043  -1.301  1.00  0.00    -0.391 OA
ATOM     24  H2  UNL     1     -45.400  10.301  -0.417  1.00  0.00     0.210 HD
ENDBRANCH   9  23
BRANCH   1  25
HETATM   25  O1  UNL     1     -45.154  10.343  -3.923  1.00  0.00    -0.393 OA
ATOM     26  H1  UNL     1     -45.750  10.595  -4.620  1.00  0.00     0.210 HD
ENDBRANCH   1  25
TORSDOF 4
ENDMDL