MODEL 2
REMARK VINA RESULT: -7.262737621      4.170      7.542
REMARK  4 active torsions:
REMARK  status: ('A' for Active; 'I' for Inactive)
REMARK    1  A    between atoms: C2_3  and  C3_4
REMARK    2  A    between atoms: C3_4  and  C4_5
REMARK    3  A    between atoms: C6_10  and  C7_11
REMARK    4  A    between atoms: C7_11  and  N3_12
ROOT
HETATM    1  C4  UNL     1     -44.175  11.359  -1.728  1.00  0.00     0.109 A
HETATM    2  N2  UNL     1     -45.005  10.334  -1.975  1.00  0.00    -0.308 N
ATOM      3  H2  UNL     1     -45.977  10.290  -1.669  1.00  0.00     0.170 HD
HETATM    4  C5  UNL     1     -44.380   9.367  -2.686  1.00  0.00     0.275 A
HETATM    5  O1  UNL     1     -44.902   8.274  -3.073  1.00  0.00    -0.266 OA
HETATM    6  C6  UNL     1     -43.108   9.821  -2.883  1.00  0.00     0.119 A
HETATM    7  N5  UNL     1     -43.008  11.024  -2.297  1.00  0.00    -0.337 N
ATOM      8  H5  UNL     1     -42.167  11.600  -2.285  1.00  0.00     0.167 HD
ENDROOT
BRANCH   1   9
HETATM    9  C3  UNL     1     -44.480  12.469  -1.053  1.00  0.00     0.062 C
BRANCH   9  10
HETATM   10  C2  UNL     1     -43.887  12.760   0.244  1.00  0.00    -0.007 A
HETATM   11  C1  UNL     1     -44.079  13.954   0.902  1.00  0.00     0.067 A
HETATM   12  N1  UNL     1     -44.894  14.933   0.271  1.00  0.00    -0.101 NA
HETATM   13  C15 UNL     1     -43.511  14.222   2.136  1.00  0.00    -0.001 A
HETATM   14  C10 UNL     1     -42.717  13.257   2.739  1.00  0.00    -0.024 A
HETATM   15  C14 UNL     1     -43.693  15.409   2.805  1.00  0.00     0.014 A
HETATM   16  C9  UNL     1     -42.512  12.053   2.098  1.00  0.00     0.013 A
HETATM   17  C11 UNL     1     -42.129  13.472   3.968  1.00  0.00     0.012 A
HETATM   18  C8  UNL     1     -43.096  11.803   0.849  1.00  0.00     0.014 A
HETATM   19  C12 UNL     1     -42.308  14.645   4.630  1.00  0.00     0.001 A
HETATM   20  C13 UNL     1     -43.107  15.629   4.031  1.00  0.00     0.001 A
ENDBRANCH   9  10
ENDBRANCH   1   9
BRANCH   6  21
HETATM   21  C7  UNL     1     -42.175   9.158  -3.541  1.00  0.00     0.141 C
BRANCH  21  22
HETATM   22  N3  UNL     1     -41.566   7.994  -3.017  1.00  0.00    -0.316 N
HETATM   23  N4  UNL     1     -42.093   6.854  -3.094  1.00  0.00    -0.345 N
ATOM     24  H42 UNL     1     -43.000   6.784  -3.557  1.00  0.00     0.176 HD
ATOM     25  H41 UNL     1     -41.653   6.014  -2.716  1.00  0.00     0.176 HD
ATOM     26  H3  UNL     1     -40.660   8.082  -2.558  1.00  0.00     0.185 HD
ENDBRANCH  21  22
ENDBRANCH   6  21
TORSDOF 4
ENDMDL