MODEL 3
REMARK VINA RESULT: -6.380334309      1.124      2.307
REMARK  3 active torsions:
REMARK  status: ('A' for Active; 'I' for Inactive)
REMARK    1  A    between atoms: C3_5  and  C4_6
REMARK    2  A    between atoms: C10_23  and  C11_24
REMARK    3  A    between atoms: C11_24  and  N7_25
ROOT
HETATM    1  C4  UNL     1     -42.178  11.518   1.837  1.00  0.00     0.077 A
HETATM    2  C5  UNL     1     -43.266  11.572   1.001  1.00  0.00     0.036 A
HETATM    3  C6  UNL     1     -44.136  12.663   1.012  1.00  0.00     0.036 A
HETATM    4  C7  UNL     1     -43.836  13.681   1.912  1.00  0.00     0.078 A
HETATM    5  N2  UNL     1     -44.428  14.859   2.202  1.00  0.00    -0.297 N
ATOM      6  H2  UNL     1     -45.275  15.212   1.755  1.00  0.00     0.187 HD
HETATM    7  N3  UNL     1     -43.754  15.490   3.149  1.00  0.00    -0.283 N
ATOM      8  H3  UNL     1     -44.005  16.399   3.537  1.00  0.00     0.188 HD
HETATM    9  C8  UNL     1     -42.698  14.766   3.526  1.00  0.00     0.143 A
HETATM   10  N4  UNL     1     -41.855  15.113   4.425  1.00  0.00    -0.383 N
ATOM     11  H41 UNL     1     -41.048  14.559   4.713  1.00  0.00     0.157 HD
ATOM     12  H42 UNL     1     -41.834  15.960   4.992  1.00  0.00     0.157 HD
HETATM   13  C9  UNL     1     -42.728  13.621   2.759  1.00  0.00     0.106 A
HETATM   14  N5  UNL     1     -41.955  12.541   2.678  1.00  0.00    -0.348 N
ATOM     15  H5  UNL     1     -41.144  12.487   3.293  1.00  0.00     0.166 HD
ENDROOT
BRANCH   1  16
HETATM   16  C3  UNL     1     -41.275  10.350   1.802  1.00  0.00     0.133 A
HETATM   17  N1  UNL     1     -41.278   9.363   2.697  1.00  0.00    -0.339 N
HETATM   18  C2  UNL     1     -40.319   8.416   2.394  1.00  0.00     0.052 A
ATOM     19  H1  UNL     1     -41.906   9.314   3.500  1.00  0.00     0.167 HD
HETATM   20  C1  UNL     1     -40.109   7.336   3.117  1.00  0.00     0.045 C
HETATM   21  C10 UNL     1     -39.713   8.868   1.253  1.00  0.00     0.075 A
HETATM   22  N6  UNL     1     -40.334  10.059   0.926  1.00  0.00    -0.338 N
ATOM     23  H6  UNL     1     -40.096  10.635   0.119  1.00  0.00     0.167 HD
BRANCH  21  24
HETATM   24  C11 UNL     1     -38.738   8.336   0.555  1.00  0.00     0.116 C
BRANCH  24  25
HETATM   25  N7  UNL     1     -38.714   7.229  -0.285  1.00  0.00    -0.397 N
HETATM   26  C12 UNL     1     -39.226   7.202  -1.649  1.00  0.00     0.148 C
HETATM   27  C13 UNL     1     -38.090   5.990   0.202  1.00  0.00     0.148 C
ENDBRANCH  24  25
ENDBRANCH  21  24
ENDBRANCH   1  16
TORSDOF 3
ENDMDL