MODEL 2
REMARK VINA RESULT: -6.010067702      1.133      1.737
REMARK  7 active torsions:
REMARK  status: ('A' for Active; 'I' for Inactive)
REMARK    1  A    between atoms: N1_2  and  C2_4
REMARK    2  A    between atoms: C2_4  and  N2_6
REMARK    3  A    between atoms: N2_6  and  N3_8
REMARK    4  A    between atoms: N3_8  and  C3_10
REMARK    5  A    between atoms: C5_16  and  N6_17
REMARK    6  A    between atoms: N6_17  and  C6_19
REMARK    7  A    between atoms: C6_19  and  C7_20
ROOT
HETATM    1  C3  UNL     1      40.207 -24.129  -3.971  1.00  0.00     0.712 A
HETATM    2  N4  UNL     1      40.553 -24.920  -2.943  1.00  0.00    -0.185 N
ATOM      3  H4  UNL     1      41.363 -24.682  -2.371  1.00  0.00     0.185 HD
HETATM    4  C4  UNL     1      39.843 -26.014  -2.665  1.00  0.00     0.215 A
HETATM    5  N5  UNL     1      38.779 -26.308  -3.435  1.00  0.00    -0.187 N
ATOM      6  H5  UNL     1      38.238 -27.146  -3.222  1.00  0.00     0.185 HD
HETATM    7  C5  UNL     1      38.399 -25.542  -4.474  1.00  0.00     0.693 A
HETATM    8  N7  UNL     1      39.143 -24.446  -4.718  1.00  0.00    -0.021 N
ATOM      9  H7  UNL     1      38.888 -23.840  -5.496  1.00  0.00     0.203 HD
ENDROOT
BRANCH   1  10
HETATM   10  N3  UNL     1      40.886 -23.087  -4.230  1.00  0.00    -0.129 N
ATOM     11  H3  UNL     1      41.880 -23.171  -4.440  1.00  0.00     0.205 HD
BRANCH  10  12
HETATM   12  N2  UNL     1      40.274 -21.813  -4.231  1.00  0.00    -0.262 N
ATOM     13  H2  UNL     1      40.673 -21.048  -4.776  1.00  0.00     0.190 HD
BRANCH  12  14
HETATM   14  C2  UNL     1      39.098 -21.610  -3.463  1.00  0.00     0.186 C
HETATM   15  S1  UNL     1      37.708 -21.242  -4.230  1.00  0.00    -0.040 SA
BRANCH  14  16
HETATM   16  N1  UNL     1      39.112 -21.719  -2.054  1.00  0.00    -0.370 N
HETATM   17  C1  UNL     1      38.099 -22.509  -1.398  1.00  0.00     0.148 C
ATOM     18  H1  UNL     1      39.831 -21.243  -1.507  1.00  0.00     0.161 HD
ENDBRANCH  14  16
ENDBRANCH  12  14
ENDBRANCH  10  12
ENDBRANCH   1  10
BRANCH   7  19
HETATM   19  N6  UNL     1      37.362 -25.834  -5.218  1.00  0.00    -0.225 N
ATOM     20  H6  UNL     1      37.243 -25.431  -6.147  1.00  0.00     0.177 HD
BRANCH  19  21
HETATM   21  C6  UNL     1      36.403 -26.741  -4.670  1.00  0.00     0.146 C
BRANCH  21  22
HETATM   22  C7  UNL     1      36.187 -27.970  -5.497  1.00  0.00    -0.035 C
HETATM   23  C8  UNL     1      34.754 -28.310  -5.730  1.00  0.00     0.016 C
HETATM   24  C9  UNL     1      36.899 -29.168  -4.888  1.00  0.00     0.016 C
HETATM   25  C10 UNL     1      36.839 -27.719  -6.856  1.00  0.00     0.016 C
ENDBRANCH  21  22
ENDBRANCH  19  21
ENDBRANCH   7  19
TORSDOF 7
ENDMDL