MODEL 3
REMARK VINA RESULT: -7.350840921      1.929      2.583
REMARK  3 active torsions:
REMARK  status: ('A' for Active; 'I' for Inactive)
REMARK    1  A    between atoms: N1_1  and  C1_4
REMARK    2  A    between atoms: C4_12  and  C5_13
REMARK    3  A    between atoms: C5_13  and  N4_14
ROOT
HETATM    1  C1  UNL     1      39.936 -22.783  -4.246  1.00  0.00     0.679 A
HETATM    2  N2  UNL     1      39.039 -23.100  -5.191  1.00  0.00    -0.154 N
ATOM      3  H2  UNL     1      38.766 -22.420  -5.900  1.00  0.00     0.187 HD
HETATM    4  C2  UNL     1      38.510 -24.330  -5.184  1.00  0.00     0.288 A
HETATM    5  O1  UNL     1      37.669 -24.608  -6.078  1.00  0.00    -0.265 OA
HETATM    6  C3  UNL     1      38.841 -25.285  -4.255  1.00  0.00     0.129 A
HETATM    7  N3  UNL     1      38.325 -26.516  -4.231  1.00  0.00    -0.352 N
ATOM      8  H3  UNL     1      37.640 -26.768  -4.944  1.00  0.00     0.166 HD
HETATM    9  C4  UNL     1      38.661 -27.443  -3.312  1.00  0.00     0.028 A
HETATM   10  C10 UNL     1      39.579 -27.151  -2.329  1.00  0.00     0.029 A
HETATM   11  C11 UNL     1      40.123 -25.881  -2.339  1.00  0.00     0.034 A
HETATM   12  C12 UNL     1      39.765 -24.944  -3.291  1.00  0.00     0.081 A
HETATM   13  N7  UNL     1      40.285 -23.708  -3.313  1.00  0.00    -0.190 N
ATOM     14  H7  UNL     1      40.970 -23.452  -2.601  1.00  0.00     0.184 HD
ENDROOT
BRANCH   9  15
HETATM   15  C5  UNL     1      38.006 -28.766  -3.419  1.00  0.00     0.184 C
BRANCH  15  16
HETATM   16  N4  UNL     1      36.827 -28.783  -4.236  1.00  0.00    -0.356 N
HETATM   17  C6  UNL     1      36.889 -28.837  -5.538  1.00  0.00     0.108 A
HETATM   18  C7  UNL     1      35.662 -28.851  -6.328  1.00  0.00     0.106 A
HETATM   19  N5  UNL     1      34.500 -28.810  -5.756  1.00  0.00    -0.352 N
HETATM   20  C8  UNL     1      34.407 -28.750  -4.319  1.00  0.00     0.131 A
ATOM     21  H5  UNL     1      33.651 -28.822  -6.322  1.00  0.00     0.166 HD
HETATM   22  N6  UNL     1      33.128 -28.706  -3.704  1.00  0.00    -0.081 NA
HETATM   23  C9  UNL     1      35.533 -28.739  -3.648  1.00  0.00     0.136 A
ENDBRANCH  15  16
ENDBRANCH   9  15
BRANCH   1  24
HETATM   24  N1  UNL     1      40.453 -21.602  -4.243  1.00  0.00    -0.234 N
ATOM     25  H12 UNL     1      39.917 -20.790  -3.934  1.00  0.00     0.174 HD
ATOM     26  H11 UNL     1      41.417 -21.482  -4.554  1.00  0.00     0.174 HD
ENDBRANCH   1  24
TORSDOF 3
ENDMDL