MODEL 4
REMARK VINA RESULT: -6.943050960      1.537      2.461
REMARK  6 active torsions:
REMARK  status: ('A' for Active; 'I' for Inactive)
REMARK    1  A    between atoms: O1_1  and  C1_3
REMARK    2  A    between atoms: C1_3  and  C2_4
REMARK    3  A    between atoms: C3_6  and  N1_7
REMARK    4  A    between atoms: C7_11  and  C8_12
REMARK    5  A    between atoms: C13_19  and  O3_20
REMARK    6  A    between atoms: C14_22  and  O4_23
ROOT
HETATM    1  C2  UNL     1      38.838 -23.642  -3.103  1.00  0.00     0.179 C
HETATM    2  O2  UNL     1      37.882 -24.646  -3.232  1.00  0.00    -0.354 OA
HETATM    3  C3  UNL     1      37.421 -24.548  -4.540  1.00  0.00     0.259 C
HETATM    4  C13 UNL     1      38.606 -24.139  -5.391  1.00  0.00     0.198 C
HETATM    5  C14 UNL     1      39.648 -23.819  -4.358  1.00  0.00     0.182 C
ENDROOT
BRANCH   3   6
HETATM    6  N1  UNL     1      36.929 -25.806  -5.045  1.00  0.00    -0.336 N
HETATM    7  C4  UNL     1      37.229 -26.117  -6.319  1.00  0.00     0.093 A
HETATM    8  C5  UNL     1      36.815 -27.293  -6.918  1.00  0.00     0.018 A
HETATM    9  C6  UNL     1      36.064 -28.148  -6.127  1.00  0.00     0.016 A
HETATM   10  C7  UNL     1      35.738 -27.861  -4.818  1.00  0.00     0.006 A
HETATM   11  C12 UNL     1      36.199 -26.663  -4.314  1.00  0.00     0.107 A
BRANCH  10  12
HETATM   12  C8  UNL     1      34.946 -28.776  -4.004  1.00  0.00     0.043 A
HETATM   13  C9  UNL     1      33.615 -29.068  -4.146  1.00  0.00     0.031 A
HETATM   14  C10 UNL     1      33.221 -29.987  -3.177  1.00  0.00     0.019 A
HETATM   15  C11 UNL     1      34.378 -30.234  -2.447  1.00  0.00     0.088 A
HETATM   16  N2  UNL     1      35.388 -29.500  -2.961  1.00  0.00    -0.365 N
ATOM     17  H2  UNL     1      36.346 -29.496  -2.610  1.00  0.00     0.165 HD
ENDBRANCH  10  12
ENDBRANCH   3   6
BRANCH   4  18
HETATM   18  O3  UNL     1      38.342 -23.054  -6.198  1.00  0.00    -0.388 OA
ATOM     19  H3  UNL     1      38.503 -23.226  -7.118  1.00  0.00     0.210 HD
ENDBRANCH   4  18
BRANCH   1  20
HETATM   20  C1  UNL     1      38.198 -22.275  -3.005  1.00  0.00     0.198 C
BRANCH  20  21
HETATM   21  O1  UNL     1      39.174 -21.346  -2.726  1.00  0.00    -0.398 OA
ATOM     22  H1  UNL     1      39.496 -20.984  -3.543  1.00  0.00     0.209 HD
ENDBRANCH  20  21
ENDBRANCH   1  20
BRANCH   5  23
HETATM   23  O4  UNL     1      40.445 -22.750  -4.671  1.00  0.00    -0.390 OA
ATOM     24  H4  UNL     1      40.004 -22.059  -5.150  1.00  0.00     0.210 HD
ENDBRANCH   5  23
TORSDOF 6
ENDMDL