MODEL 2
REMARK VINA RESULT: -6.019941283      1.967      7.097
REMARK  7 active torsions:
REMARK  status: ('A' for Active; 'I' for Inactive)
REMARK    1  A    between atoms: C2_2  and  C4_4
REMARK    2  A    between atoms: C4_4  and  N1_5
REMARK    3  A    between atoms: C4_4  and  C5_9
REMARK    4  A    between atoms: C6_12  and  C7_13
REMARK    5  A    between atoms: C8_14  and  C9_15
REMARK    6  A    between atoms: C13_21  and  O1_22
REMARK    7  A    between atoms: C14_24  and  O2_25
ROOT
HETATM    1  C5  UNL     1      37.825 -26.254  -4.948  1.00  0.00     0.144 C
HETATM    2  N2  UNL     1      37.148 -26.980  -3.908  1.00  0.00    -0.375 N
ATOM      3  H2  UNL     1      37.299 -26.831  -2.910  1.00  0.00     0.160 HD
HETATM    4  C6  UNL     1      36.328 -27.841  -4.397  1.00  0.00     0.092 C
HETATM    5  C13 UNL     1      36.364 -27.782  -5.904  1.00  0.00     0.207 C
HETATM    6  C14 UNL     1      36.856 -26.363  -6.102  1.00  0.00     0.178 C
ENDROOT
BRANCH   1   7
HETATM    7  C4  UNL     1      38.117 -24.828  -4.581  1.00  0.00     0.212 C
BRANCH   7   8
HETATM    8  C2  UNL     1      39.362 -24.678  -3.760  1.00  0.00     0.010 C
HETATM    9  C1  UNL     1      39.105 -23.957  -2.451  1.00  0.00     0.011 C
HETATM   10  C3  UNL     1      40.499 -24.001  -4.476  1.00  0.00     0.011 C
ENDBRANCH   7   8
BRANCH   7  11
HETATM   11  N1  UNL     1      38.344 -24.042  -5.806  1.00  0.00    -0.073 N
ATOM     12  H13 UNL     1      39.229 -23.535  -5.806  1.00  0.00     0.274 HD
ATOM     13  H12 UNL     1      38.529 -24.615  -6.629  1.00  0.00     0.274 HD
ATOM     14  H11 UNL     1      37.528 -23.438  -5.905  1.00  0.00     0.274 HD
ENDBRANCH   7  11
ENDBRANCH   1   7
BRANCH   6  15
HETATM   15  O2  UNL     1      35.777 -25.523  -5.957  1.00  0.00    -0.390 OA
ATOM     16  H2  UNL     1      35.789 -24.810  -6.585  1.00  0.00     0.210 HD
ENDBRANCH   6  15
BRANCH   4  17
HETATM   17  C7  UNL     1      35.503 -28.721  -3.601  1.00  0.00    -0.045 C
HETATM   18  C8  UNL     1      34.814 -29.442  -2.920  1.00  0.00    -0.059 C
BRANCH  18  19
HETATM   19  C9  UNL     1      33.983 -30.276  -2.107  1.00  0.00     0.034 A
HETATM   20  C10 UNL     1      34.211 -30.776  -0.843  1.00  0.00     0.039 A
HETATM   21  C11 UNL     1      33.136 -31.537  -0.439  1.00  0.00     0.089 A
HETATM   22  N3  UNL     1      32.250 -31.514  -1.435  1.00  0.00    -0.374 N
HETATM   23  C12 UNL     1      32.740 -30.758  -2.454  1.00  0.00     0.108 A
ATOM     24  H3  UNL     1      31.347 -31.989  -1.433  1.00  0.00     0.164 HD
ENDBRANCH  18  19
ENDBRANCH   4  17
BRANCH   5  25
HETATM   25  O1  UNL     1      35.133 -28.017  -6.462  1.00  0.00    -0.386 OA
ATOM     26  H1  UNL     1      35.007 -28.933  -6.682  1.00  0.00     0.210 HD
ENDBRANCH   5  25
TORSDOF 7
ENDMDL