MODEL 5
REMARK VINA RESULT: -6.301810751      4.055      5.262
REMARK  3 active torsions:
REMARK  status: ('A' for Active; 'I' for Inactive)
REMARK    1  A    between atoms: C2_2  and  C3_3
REMARK    2  A    between atoms: C3_3  and  C4_4
REMARK    3  A    between atoms: N2_13  and  N3_15
ROOT
HETATM    1  C3  UNL     1      35.414 -28.106  -4.233  1.00  0.00     0.158 C
HETATM    2  N1  UNL     1      35.014 -26.858  -3.582  1.00  0.00    -0.192 N
ATOM      3  H1  UNL     1      34.127 -26.451  -3.878  1.00  0.00     0.180 HD
HETATM    4  C10 UNL     1      35.724 -26.164  -2.595  1.00  0.00     0.705 C
HETATM    5  N2  UNL     1      35.033 -25.586  -1.632  1.00  0.00    -0.138 N
ATOM      6  H2  UNL     1      34.020 -25.696  -1.686  1.00  0.00     0.205 HD
HETATM    7  N4  UNL     1      37.134 -26.116  -2.660  1.00  0.00    -0.098 N
ATOM      8  H4  UNL     1      37.688 -25.545  -2.022  1.00  0.00     0.199 HD
HETATM    9  S1  UNL     1      37.861 -27.096  -3.903  1.00  0.00     0.335 S
HETATM   10  O1  UNL     1      39.185 -27.652  -3.488  1.00  0.00    -0.182 OA
HETATM   11  O2  UNL     1      38.017 -26.366  -5.183  1.00  0.00    -0.182 OA
HETATM   12  N5  UNL     1      36.767 -28.443  -4.063  1.00  0.00    -0.270 N
ATOM     13  H5  UNL     1      37.088 -29.411  -4.035  1.00  0.00     0.176 HD
ENDROOT
BRANCH   1  14
HETATM   14  C2  UNL     1      35.146 -27.995  -5.698  1.00  0.00     0.056 C
HETATM   15  C1  UNL     1      35.812 -28.956  -6.613  1.00  0.00     0.010 C
ENDBRANCH   1  14
BRANCH   1  16
HETATM   16  C4  UNL     1      34.595 -29.143  -3.555  1.00  0.00    -0.009 A
HETATM   17  C5  UNL     1      33.250 -29.398  -3.869  1.00  0.00     0.011 A
HETATM   18  C6  UNL     1      32.526 -30.347  -3.170  1.00  0.00     0.001 A
HETATM   19  C7  UNL     1      33.077 -31.087  -2.140  1.00  0.00     0.000 A
HETATM   20  C8  UNL     1      34.405 -30.842  -1.832  1.00  0.00     0.001 A
HETATM   21  C9  UNL     1      35.104 -29.909  -2.518  1.00  0.00     0.011 A
ENDBRANCH   1  16
BRANCH   5  22
HETATM   22  N3  UNL     1      35.492 -24.861  -0.576  1.00  0.00    -0.331 N
ATOM     23  H32 UNL     1      35.942 -23.982  -0.830  1.00  0.00     0.177 HD
ATOM     24  H31 UNL     1      35.444 -25.085   0.419  1.00  0.00     0.177 HD
ENDBRANCH   5  22
TORSDOF 3
ENDMDL