MODEL 3
REMARK VINA RESULT: -7.392488038      1.028      1.473
REMARK  5 active torsions:
REMARK  status: ('A' for Active; 'I' for Inactive)
REMARK    1  A    between atoms: C3_3  and  N1_4
REMARK    2  A    between atoms: N1_4  and  C4_6
REMARK    3  A    between atoms: C4_6  and  C5_7
REMARK    4  A    between atoms: C12_16  and  N3_17
REMARK    5  A    between atoms: N4_20  and  N5_21
ROOT
HETATM    1  C1  UNL     1      37.148 -25.707  -4.750  1.00  0.00     0.030 C
HETATM    2  C2  UNL     1      38.146 -26.073  -4.002  1.00  0.00     0.029 A
HETATM    3  C3  UNL     1      37.961 -27.283  -3.305  1.00  0.00     0.129 A
HETATM    4  N2  UNL     1      38.952 -27.720  -2.514  1.00  0.00    -0.175 N
ATOM      5  H2  UNL     1      38.836 -28.595  -2.002  1.00  0.00     0.186 HD
HETATM    6  C12 UNL     1      40.095 -27.027  -2.385  1.00  0.00     0.698 A
HETATM    7  N4  UNL     1      40.242 -25.891  -3.053  1.00  0.00    -0.092 N
HETATM    8  C13 UNL     1      39.282 -25.352  -3.895  1.00  0.00     0.097 A
HETATM    9  C14 UNL     1      39.587 -24.246  -4.463  1.00  0.00     0.126 C
HETATM   10  C15 UNL     1      38.917 -23.397  -5.359  1.00  0.00     0.090 C
HETATM   11  N6  UNL     1      38.399 -22.660  -6.105  1.00  0.00    -0.192 NA
ENDROOT
BRANCH   7  12
HETATM   12  N5  UNL     1      41.460 -25.209  -2.878  1.00  0.00    -0.324 N
ATOM     13  H52 UNL     1      42.241 -25.693  -2.436  1.00  0.00     0.178 HD
ATOM     14  H51 UNL     1      41.499 -24.245  -3.212  1.00  0.00     0.178 HD
ENDBRANCH   7  12
BRANCH   3  15
HETATM   15  N1  UNL     1      36.884 -27.932  -3.429  1.00  0.00    -0.371 N
ATOM     16  H1  UNL     1      36.020 -27.397  -3.341  1.00  0.00     0.161 HD
BRANCH  15  17
HETATM   17  C4  UNL     1      36.743 -29.323  -3.678  1.00  0.00     0.160 C
BRANCH  17  18
HETATM   18  C5  UNL     1      35.821 -29.905  -2.663  1.00  0.00    -0.040 A
HETATM   19  C6  UNL     1      34.579 -30.337  -3.108  1.00  0.00     0.009 A
HETATM   20  C7  UNL     1      33.652 -30.892  -2.249  1.00  0.00     0.001 A
HETATM   21  C8  UNL     1      33.989 -31.012  -0.906  1.00  0.00     0.007 A
HETATM   22  C9  UNL     1      35.234 -30.574  -0.484  1.00  0.00    -0.061 A
HETATM   23  C10 UNL     1      35.571 -30.717   0.971  1.00  0.00     0.048 C
HETATM   24  C11 UNL     1      36.150 -30.025  -1.343  1.00  0.00     0.015 A
ENDBRANCH  17  18
ENDBRANCH  15  17
ENDBRANCH   3  15
BRANCH   6  25
HETATM   25  N3  UNL     1      41.021 -27.502  -1.603  1.00  0.00    -0.233 N
ATOM     26  H32 UNL     1      41.065 -28.488  -1.345  1.00  0.00     0.174 HD
ATOM     27  H31 UNL     1      41.725 -26.859  -1.239  1.00  0.00     0.174 HD
ENDBRANCH   6  25
TORSDOF 5
ENDMDL