MODEL 3
REMARK VINA RESULT: -6.617171080      1.601      6.787
REMARK  4 active torsions:
REMARK  status: ('A' for Active; 'I' for Inactive)
REMARK    1  A    between atoms: C3_3  and  N1_4
REMARK    2  A    between atoms: N1_4  and  C4_6
REMARK    3  A    between atoms: C11_20  and  N5_21
REMARK    4  A    between atoms: N5_21  and  C12_23
ROOT
HETATM    1  N1  UNL     1      36.666 -25.073  -4.863  1.00  0.00    -0.371 N
ATOM      2  H1  UNL     1      36.311 -24.287  -5.409  1.00  0.00     0.161 HD
ENDROOT
BRANCH   1   3
HETATM    3  C3  UNL     1      36.264 -26.230  -5.207  1.00  0.00     0.118 A
HETATM    4  C2  UNL     1      36.819 -26.789  -6.364  1.00  0.00     0.066 A
HETATM    5  C1  UNL     1      36.417 -28.046  -6.763  1.00  0.00     0.110 A
HETATM    6  N6  UNL     1      35.500 -28.737  -6.051  1.00  0.00    -0.202 N
HETATM    7  C11 UNL     1      34.953 -28.223  -4.935  1.00  0.00     0.679 A
ATOM      8  H6  UNL     1      35.217 -29.666  -6.365  1.00  0.00     0.183 HD
HETATM    9  N4  UNL     1      35.371 -26.954  -4.550  1.00  0.00    -0.177 N
ATOM     10  H4  UNL     1      34.963 -26.555  -3.704  1.00  0.00     0.185 HD
BRANCH   7  11
HETATM   11  N5  UNL     1      34.109 -28.792  -4.227  1.00  0.00    -0.221 N
ATOM     12  H5  UNL     1      33.211 -28.852  -4.707  1.00  0.00     0.178 HD
BRANCH  11  13
HETATM   13  C12 UNL     1      34.039 -29.362  -2.986  1.00  0.00     0.099 A
HETATM   14  C13 UNL     1      33.519 -30.711  -2.614  1.00  0.00     0.028 A
HETATM   15  C14 UNL     1      34.961 -30.406  -2.486  1.00  0.00     0.028 A
ENDBRANCH  11  13
ENDBRANCH   7  11
ENDBRANCH   1   3
BRANCH   1  16
HETATM   16  C4  UNL     1      37.569 -24.752  -3.787  1.00  0.00     0.087 C
HETATM   17  C5  UNL     1      37.695 -23.252  -3.752  1.00  0.00     0.059 C
HETATM   18  C6  UNL     1      39.056 -22.824  -3.237  1.00  0.00     0.205 C
HETATM   19  C7  UNL     1      39.991 -22.658  -4.370  1.00  0.00     0.147 C
HETATM   20  N3  UNL     1      39.433 -23.793  -2.238  1.00  0.00    -0.063 N
HETATM   21  N2  UNL     1      40.836 -23.742  -4.708  1.00  0.00    -0.417 N
HETATM   22  C8  UNL     1      41.176 -24.604  -3.627  1.00  0.00     0.147 C
ATOM     23  H2  UNL     1      41.179 -23.894  -5.657  1.00  0.00     0.153 HD
HETATM   24  C9  UNL     1      39.876 -25.005  -2.907  1.00  0.00     0.205 C
HETATM   25  C10 UNL     1      38.858 -25.499  -3.869  1.00  0.00     0.059 C
ATOM     26  H32 UNL     1      40.129 -23.431  -1.586  1.00  0.00     0.278 HD
ATOM     27  H31 UNL     1      38.688 -23.969  -1.564  1.00  0.00     0.278 HD
ENDBRANCH   1  16
TORSDOF 4
ENDMDL