MODEL 4
REMARK VINA RESULT: -6.015801042      1.037      1.086
REMARK  7 active torsions:
REMARK  status: ('A' for Active; 'I' for Inactive)
REMARK    1  A    between atoms: C6_6  and  C7_7
REMARK    2  A    between atoms: C8_8  and  C9_9
REMARK    3  A    between atoms: C10_11  and  C11_12
REMARK    4  A    between atoms: C11_12  and  O2_13
REMARK    5  A    between atoms: C12_15  and  O3_16
REMARK    6  A    between atoms: C13_18  and  C14_19
REMARK    7  A    between atoms: C14_19  and  O4_20
ROOT
HETATM    1  C9  UNL     1      38.442 -25.990  -3.729  1.00  0.00     0.209 C
HETATM    2  O1  UNL     1      38.223 -24.774  -3.110  1.00  0.00    -0.363 OA
HETATM    3  C10 UNL     1      39.497 -24.216  -3.075  1.00  0.00     0.176 C
HETATM    4  C12 UNL     1      40.487 -25.328  -2.832  1.00  0.00     0.158 C
HETATM    5  C13 UNL     1      39.580 -26.562  -2.948  1.00  0.00     0.081 C
ENDROOT
BRANCH   1   6
HETATM    6  C8  UNL     1      37.283 -26.892  -3.589  1.00  0.00    -0.067 C
HETATM    7  C7  UNL     1      36.342 -27.640  -3.492  1.00  0.00    -0.046 C
BRANCH   7   8
HETATM    8  C6  UNL     1      35.219 -28.554  -3.355  1.00  0.00     0.087 A
HETATM    9  C5  UNL     1      34.252 -28.601  -4.248  1.00  0.00     0.039 A
HETATM   10  C4  UNL     1      33.106 -29.497  -4.159  1.00  0.00     0.005 A
HETATM   11  C3  UNL     1      33.059 -30.302  -3.108  1.00  0.00     0.029 A
HETATM   12  C2  UNL     1      34.091 -30.296  -2.094  1.00  0.00     0.023 A
HETATM   13  C1  UNL     1      34.052 -31.086  -1.053  1.00  0.00     0.043 C
HETATM   14  N1  UNL     1      35.199 -29.392  -2.232  1.00  0.00    -0.350 N
ATOM     15  H1  UNL     1      35.945 -29.361  -1.538  1.00  0.00     0.166 HD
ENDBRANCH   7   8
ENDBRANCH   1   6
BRANCH   5  16
HETATM   16  C14 UNL     1      39.065 -26.934  -1.560  1.00  0.00     0.174 C
BRANCH  16  17
HETATM   17  O4  UNL     1      40.011 -27.723  -0.894  1.00  0.00    -0.400 OA
ATOM     18  H4  UNL     1      39.598 -28.507  -0.552  1.00  0.00     0.209 HD
ENDBRANCH  16  17
ENDBRANCH   5  16
BRANCH   3  19
HETATM   19  C11 UNL     1      39.731 -23.498  -4.384  1.00  0.00     0.198 C
BRANCH  19  20
HETATM   20  O2  UNL     1      40.674 -22.466  -4.207  1.00  0.00    -0.398 OA
ATOM     21  H2  UNL     1      40.231 -21.631  -4.115  1.00  0.00     0.209 HD
ENDBRANCH  19  20
ENDBRANCH   3  19
BRANCH   4  22
HETATM   22  O3  UNL     1      41.403 -25.411  -3.905  1.00  0.00    -0.392 OA
ATOM     23  H3  UNL     1      40.966 -25.727  -4.687  1.00  0.00     0.210 HD
ENDBRANCH   4  22
TORSDOF 7
ENDMDL