MODEL 2
REMARK VINA RESULT: -6.791322032      1.111      1.119
REMARK  6 active torsions:
REMARK  status: ('A' for Active; 'I' for Inactive)
REMARK    1  A    between atoms: C2_2  and  N1_3
REMARK    2  A    between atoms: N1_3  and  C3_5
REMARK    3  A    between atoms: C4_8  and  N3_9
REMARK    4  A    between atoms: N3_9  and  N4_11
REMARK    5  A    between atoms: C5_16  and  N6_17
REMARK    6  A    between atoms: N6_17  and  C6_19
ROOT
HETATM    1  C3  UNL     1      39.863 -23.059  -4.129  1.00  0.00     0.707 A
HETATM    2  N2  UNL     1      41.185 -23.303  -4.231  1.00  0.00    -0.020 N
ATOM      3  H2  UNL     1      41.805 -22.611  -4.652  1.00  0.00     0.203 HD
HETATM    4  C4  UNL     1      41.675 -24.458  -3.772  1.00  0.00     0.725 A
HETATM    5  N5  UNL     1      40.866 -25.373  -3.216  1.00  0.00    -0.020 N
ATOM      6  H5  UNL     1      41.266 -26.247  -2.875  1.00  0.00     0.203 HD
HETATM    7  C5  UNL     1      39.543 -25.167  -3.097  1.00  0.00     0.711 A
HETATM    8  N7  UNL     1      39.070 -23.999  -3.564  1.00  0.00    -0.021 N
ATOM      9  H7  UNL     1      38.070 -23.812  -3.489  1.00  0.00     0.203 HD
ENDROOT
BRANCH   7  10
HETATM   10  N6  UNL     1      38.814 -26.078  -2.556  1.00  0.00    -0.190 N
ATOM     11  H6  UNL     1      38.832 -26.175  -1.541  1.00  0.00     0.184 HD
BRANCH  10  12
HETATM   12  C6  UNL     1      37.982 -26.955  -3.305  1.00  0.00     0.055 A
HETATM   13  C7  UNL     1      37.861 -26.831  -4.672  1.00  0.00     0.037 A
HETATM   14  C8  UNL     1      37.050 -27.691  -5.383  1.00  0.00    -0.060 A
HETATM   15  C9  UNL     1      36.874 -27.612  -6.856  1.00  0.00     0.048 C
HETATM   16  C10 UNL     1      36.362 -28.678  -4.705  1.00  0.00     0.007 A
HETATM   17  C11 UNL     1      36.495 -28.788  -3.337  1.00  0.00     0.009 A
HETATM   18  C12 UNL     1      37.302 -27.936  -2.614  1.00  0.00    -0.035 A
HETATM   19  C13 UNL     1      37.417 -28.090  -1.135  1.00  0.00     0.050 C
ENDBRANCH  10  12
ENDBRANCH   7  10
BRANCH   4  20
HETATM   20  N3  UNL     1      42.927 -24.719  -3.854  1.00  0.00    -0.138 N
ATOM     21  H3  UNL     1      43.396 -25.205  -3.090  1.00  0.00     0.205 HD
BRANCH  20  22
HETATM   22  N4  UNL     1      43.650 -24.343  -4.982  1.00  0.00    -0.331 N
ATOM     23  H42 UNL     1      43.986 -23.382  -5.053  1.00  0.00     0.177 HD
ATOM     24  H41 UNL     1      43.839 -25.019  -5.722  1.00  0.00     0.177 HD
ENDBRANCH  20  22
ENDBRANCH   4  20
BRANCH   1  25
HETATM   25  N1  UNL     1      39.378 -21.949  -4.566  1.00  0.00    -0.225 N
ATOM     26  H1  UNL     1      39.758 -21.528  -5.414  1.00  0.00     0.177 HD
BRANCH  25  27
HETATM   27  C2  UNL     1      38.305 -21.301  -3.866  1.00  0.00     0.133 C
HETATM   28  C1  UNL     1      37.172 -20.969  -4.818  1.00  0.00     0.027 C
ENDBRANCH  25  27
ENDBRANCH   1  25
TORSDOF 6
ENDMDL