MODEL 3
REMARK VINA RESULT: -8.117634863      0.548      1.249
REMARK  3 active torsions:
REMARK  status: ('A' for Active; 'I' for Inactive)
REMARK    1  A    between atoms: N1_1  and  C1_4
REMARK    2  A    between atoms: C5_15  and  C6_16
REMARK    3  A    between atoms: C6_16  and  C7_17
ROOT
HETATM    1  C1  UNL     1      41.272 -24.660  -3.571  1.00  0.00     0.133 A
HETATM    2  N2  UNL     1      41.015 -23.480  -4.145  1.00  0.00    -0.293 N
ATOM      3  H2  UNL     1      41.781 -22.845  -4.371  1.00  0.00     0.172 HD
HETATM    4  C2  UNL     1      39.751 -23.131  -4.424  1.00  0.00     0.327 A
HETATM    5  O1  UNL     1      39.525 -22.002  -4.970  1.00  0.00    -0.247 OA
HETATM    6  N3  UNL     1      38.746 -23.958  -4.131  1.00  0.00    -0.293 N
ATOM      7  H3  UNL     1      37.797 -23.662  -4.356  1.00  0.00     0.172 HD
HETATM    8  C3  UNL     1      38.922 -25.175  -3.548  1.00  0.00     0.137 A
HETATM    9  C4  UNL     1      40.223 -25.532  -3.261  1.00  0.00     0.118 A
HETATM   10  N4  UNL     1      40.282 -26.686  -2.718  1.00  0.00    -0.362 N
ATOM     11  H4  UNL     1      41.122 -27.175  -2.412  1.00  0.00     0.162 HD
HETATM   12  C5  UNL     1      38.923 -27.159  -2.623  1.00  0.00     0.188 A
HETATM   13  N6  UNL     1      38.107 -26.108  -3.188  1.00  0.00    -0.353 N
ATOM     14  H6  UNL     1      37.092 -26.104  -3.283  1.00  0.00     0.163 HD
ENDROOT
BRANCH  12  15
HETATM   15  C6  UNL     1      38.741 -28.480  -3.357  1.00  0.00     0.103 C
BRANCH  15  16
HETATM   16  C7  UNL     1      37.327 -28.931  -3.282  1.00  0.00     0.014 A
HETATM   17  C8  UNL     1      36.312 -28.551  -4.142  1.00  0.00     0.038 A
HETATM   18  C9  UNL     1      35.175 -29.220  -3.684  1.00  0.00    -0.008 A
HETATM   19  C10 UNL     1      33.860 -29.258  -4.109  1.00  0.00     0.014 A
HETATM   20  C14 UNL     1      35.505 -29.979  -2.580  1.00  0.00     0.042 A
HETATM   21  C11 UNL     1      32.922 -30.027  -3.449  1.00  0.00     0.001 A
HETATM   22  C12 UNL     1      33.271 -30.777  -2.351  1.00  0.00     0.002 A
HETATM   23  C13 UNL     1      34.580 -30.754  -1.906  1.00  0.00     0.030 A
HETATM   24  N5  UNL     1      36.817 -29.771  -2.375  1.00  0.00    -0.359 N
ATOM     25  H5  UNL     1      37.357 -30.200  -1.623  1.00  0.00     0.166 HD
ENDBRANCH  15  16
ENDBRANCH  12  15
BRANCH   1  26
HETATM   26  N1  UNL     1      42.479 -25.019  -3.291  1.00  0.00    -0.383 N
ATOM     27  H12 UNL     1      43.234 -24.724  -3.911  1.00  0.00     0.157 HD
ATOM     28  H11 UNL     1      42.686 -25.587  -2.470  1.00  0.00     0.157 HD
ENDBRANCH   1  26
TORSDOF 3
ENDMDL