MODEL 1
REMARK VINA RESULT: -6.057643172      0.000      0.000
REMARK  3 active torsions:
REMARK  status: ('A' for Active; 'I' for Inactive)
REMARK    1  A    between atoms: O1_2  and  C2_3
REMARK    2  A    between atoms: C7_8  and  O2_9
REMARK    3  A    between atoms: C12_17  and  N2_18
ROOT
HETATM    1  C2  UNL     1      23.852 -11.547 -17.721  1.00  0.00     0.102 A
HETATM    2  C3  UNL     1      25.020 -10.891 -18.014  1.00  0.00     0.056 A
HETATM    3  C4  UNL     1      26.204 -11.191 -17.339  1.00  0.00     0.024 A
HETATM    4  C5  UNL     1      26.160 -12.173 -16.363  1.00  0.00    -0.033 A
HETATM    5  C6  UNL     1      24.959 -12.822 -16.088  1.00  0.00     0.048 A
HETATM    6  C7  UNL     1      23.799 -12.523 -16.754  1.00  0.00     0.102 A
HETATM    7  C9  UNL     1      27.390 -12.477 -15.626  1.00  0.00     0.077 C
HETATM    8  C10 UNL     1      27.501 -13.837 -15.034  1.00  0.00     0.244 C
HETATM    9  N1  UNL     1      28.573 -13.778 -14.022  1.00  0.00    -0.072 N
ATOM     10  H11 UNL     1      29.000 -14.695 -13.894  1.00  0.00     0.277 HD
ATOM     11  H12 UNL     1      28.184 -13.643 -13.089  1.00  0.00     0.277 HD
HETATM   12  C11 UNL     1      29.563 -12.792 -14.307  1.00  0.00     0.267 C
HETATM   13  C12 UNL     1      29.817 -12.591 -15.770  1.00  0.00     0.239 C
HETATM   14  C13 UNL     1      28.579 -12.279 -16.544  1.00  0.00     0.172 C
HETATM   15  O3  UNL     1      28.581 -10.894 -16.977  1.00  0.00    -0.327 OA
HETATM   16  C14 UNL     1      27.440 -10.484 -17.704  1.00  0.00     0.147 C
HETATM   17  N3  UNL     1      27.524  -9.586 -18.581  1.00  0.00    -0.379 N
ATOM     18  H31 UNL     1      28.382  -9.095 -18.835  1.00  0.00     0.158 HD
ATOM     19  H32 UNL     1      26.701  -9.290 -19.106  1.00  0.00     0.158 HD
ENDROOT
BRANCH  13  20
HETATM   20  N2  UNL     1      30.826 -11.549 -15.898  1.00  0.00    -0.071 N
ATOM     21  H23 UNL     1      30.429 -10.634 -16.110  1.00  0.00     0.274 HD
ATOM     22  H22 UNL     1      31.259 -11.302 -15.008  1.00  0.00     0.274 HD
ATOM     23  H21 UNL     1      31.501 -11.862 -16.596  1.00  0.00     0.274 HD
ENDBRANCH  13  20
BRANCH   6  24
HETATM   24  O2  UNL     1      22.589 -13.185 -16.468  1.00  0.00    -0.353 OA
HETATM   25  C8  UNL     1      22.453 -14.523 -16.935  1.00  0.00     0.210 C
ENDBRANCH   6  24
BRANCH   1  26
HETATM   26  O1  UNL     1      22.673 -11.245 -18.395  1.00  0.00    -0.353 OA
HETATM   27  C1  UNL     1      22.614 -10.017 -19.088  1.00  0.00     0.210 C
ENDBRANCH   1  26
TORSDOF 3
ENDMDL