MODEL 5
REMARK VINA RESULT: -6.166891162      1.962      2.666
REMARK  5 active torsions:
REMARK  status: ('A' for Active; 'I' for Inactive)
REMARK    1  A    between atoms: C3_7  and  O1_8
REMARK    2  A    between atoms: C5_11  and  N3_12
REMARK    3  A    between atoms: N3_12  and  C6_14
REMARK    4  A    between atoms: N4_18  and  C10_19
REMARK    5  A    between atoms: C10_19  and  C11_20
ROOT
HETATM    1  C11 UNL     1      30.916 -13.648 -17.525  1.00  0.00     0.154 C
HETATM    2  C12 UNL     1      31.153 -14.644 -18.578  1.00  0.00     0.060 C
HETATM    3  N5  UNL     1      31.350 -15.415 -19.415  1.00  0.00    -0.197 NA
ENDROOT
BRANCH   1   4
HETATM    4  C10 UNL     1      30.525 -14.384 -16.280  1.00  0.00     0.286 C
BRANCH   4   5
HETATM    5  N4  UNL     1      29.162 -14.109 -15.948  1.00  0.00     0.089 N
HETATM    6  C9  UNL     1      28.283 -15.225 -16.081  1.00  0.00     0.275 C
HETATM    7  C8  UNL     1      27.530 -15.230 -17.393  1.00  0.00     0.060 C
HETATM    8  C6  UNL     1      26.582 -14.046 -17.392  1.00  0.00     0.030 C
HETATM    9  C7  UNL     1      26.548 -13.362 -18.735  1.00  0.00     0.038 C
HETATM   10  C14 UNL     1      27.111 -13.000 -16.393  1.00  0.00     0.060 C
HETATM   11  C13 UNL     1      28.615 -12.941 -16.552  1.00  0.00     0.275 C
BRANCH   8  12
HETATM   12  N3  UNL     1      25.327 -14.462 -16.906  1.00  0.00    -0.379 N
ATOM     13  H3  UNL     1      25.372 -15.284 -16.304  1.00  0.00     0.160 HD
BRANCH  12  14
HETATM   14  C5  UNL     1      24.161 -14.017 -17.071  1.00  0.00     0.056 A
HETATM   15  C2  UNL     1      23.248 -14.842 -17.719  1.00  0.00     0.048 A
HETATM   16  C1  UNL     1      23.638 -16.208 -18.204  1.00  0.00     0.072 C
HETATM   17  N1  UNL     1      22.002 -14.399 -17.908  1.00  0.00    -0.301 N
HETATM   18  N2  UNL     1      21.559 -13.217 -17.521  1.00  0.00    -0.280 N
ATOM     19  H1  UNL     1      21.347 -15.018 -18.385  1.00  0.00     0.186 HD
HETATM   20  C3  UNL     1      22.416 -12.394 -16.891  1.00  0.00     0.156 A
ATOM     21  H2  UNL     1      20.594 -12.936 -17.695  1.00  0.00     0.189 HD
HETATM   22  C4  UNL     1      23.716 -12.782 -16.659  1.00  0.00     0.088 A
BRANCH  20  23
HETATM   23  O1  UNL     1      22.000 -11.120 -16.455  1.00  0.00    -0.345 OA
ATOM     24  H1  UNL     1      21.767 -10.971 -15.546  1.00  0.00     0.219 HD
ENDBRANCH  20  23
ENDBRANCH  12  14
ENDBRANCH   8  12
ENDBRANCH   4   5
ENDBRANCH   1   4
TORSDOF 5
ENDMDL