MODEL 3
REMARK VINA RESULT: -6.606877117      2.602      3.992
REMARK  2 active torsions:
REMARK  status: ('A' for Active; 'I' for Inactive)
REMARK    1  A    between atoms: O1_2  and  C2_3
REMARK    2  A    between atoms: C5_12  and  N4_13
ROOT
HETATM    1  C2  UNL     1      25.352 -16.484 -18.355  1.00  0.00     0.226 A
HETATM    2  N1  UNL     1      24.025 -16.570 -18.223  1.00  0.00    -0.307 N
ATOM      3  H1  UNL     1      23.519 -17.357 -18.630  1.00  0.00     0.171 HD
HETATM    4  C3  UNL     1      23.357 -15.606 -17.544  1.00  0.00     0.130 A
HETATM    5  N2  UNL     1      22.080 -15.686 -17.419  1.00  0.00    -0.384 N
ATOM      6  H21 UNL     1      21.577 -14.960 -16.909  1.00  0.00     0.157 HD
ATOM      7  H22 UNL     1      21.557 -16.465 -17.819  1.00  0.00     0.157 HD
HETATM    8  C4  UNL     1      24.062 -14.555 -17.007  1.00  0.00     0.133 A
HETATM    9  N3  UNL     1      23.370 -13.545 -16.296  1.00  0.00    -0.094 NA
HETATM   10  C5  UNL     1      25.431 -14.469 -17.146  1.00  0.00     0.135 A
HETATM   11  N5  UNL     1      26.049 -15.449 -17.826  1.00  0.00    -0.306 N
ATOM     12  H5  UNL     1      27.061 -15.414 -17.946  1.00  0.00     0.171 HD
ENDROOT
BRANCH  10  13
HETATM   13  N4  UNL     1      26.193 -13.380 -16.600  1.00  0.00    -0.365 N
HETATM   14  C6  UNL     1      26.586 -13.374 -15.222  1.00  0.00     0.125 C
HETATM   15  C7  UNL     1      27.051 -11.995 -14.835  1.00  0.00     0.025 C
HETATM   16  C8  UNL     1      28.105 -11.417 -15.722  1.00  0.00    -0.008 C
HETATM   17  C9  UNL     1      29.521 -11.723 -15.219  1.00  0.00     0.011 C
HETATM   18  C10 UNL     1      27.939 -11.728 -17.172  1.00  0.00    -0.028 C
HETATM   19  C11 UNL     1      28.944 -12.725 -17.703  1.00  0.00     0.016 C
HETATM   20  C12 UNL     1      28.106 -10.469 -18.029  1.00  0.00     0.016 C
HETATM   21  C13 UNL     1      26.561 -12.270 -17.459  1.00  0.00     0.133 C
ENDBRANCH  10  13
BRANCH   1  22
HETATM   22  O1  UNL     1      26.075 -17.443 -19.037  1.00  0.00    -0.327 OA
HETATM   23  C1  UNL     1      25.663 -18.083 -20.214  1.00  0.00     0.213 C
ENDBRANCH   1  22
TORSDOF 2
ENDMDL