MODEL 4
REMARK VINA RESULT: -6.534904057      1.733      2.934
REMARK  4 active torsions:
REMARK  status: ('A' for Active; 'I' for Inactive)
REMARK    1  A    between atoms: N1_2  and  C2_4
REMARK    2  A    between atoms: C3_7  and  N3_8
REMARK    3  A    between atoms: N5_15  and  C6_16
REMARK    4  A    between atoms: C6_16  and  C7_17
ROOT
HETATM    1  C2  UNL     1      22.560 -13.170 -17.850  1.00  0.00     0.681 A
HETATM    2  N2  UNL     1      21.923 -14.328 -17.600  1.00  0.00    -0.175 N
ATOM      3  H2  UNL     1      20.918 -14.295 -17.426  1.00  0.00     0.186 HD
HETATM    4  C3  UNL     1      22.524 -15.512 -17.564  1.00  0.00     0.145 A
HETATM    5  C4  UNL     1      23.881 -15.591 -17.796  1.00  0.00     0.123 A
HETATM    6  N4  UNL     1      24.796 -16.566 -17.841  1.00  0.00    -0.346 N
ATOM      7  H4  UNL     1      24.616 -17.559 -17.690  1.00  0.00     0.167 HD
HETATM    8  C5  UNL     1      25.992 -16.016 -18.119  1.00  0.00     0.185 A
HETATM    9  N5  UNL     1      25.878 -14.677 -18.259  1.00  0.00    -0.323 N
HETATM   10  C13 UNL     1      24.570 -14.408 -18.059  1.00  0.00     0.155 A
HETATM   11  N7  UNL     1      23.882 -13.236 -18.077  1.00  0.00    -0.174 N
ATOM     12  H7  UNL     1      24.390 -12.373 -18.270  1.00  0.00     0.186 HD
ENDROOT
BRANCH   9  13
HETATM   13  C6  UNL     1      26.935 -13.741 -18.558  1.00  0.00     0.167 C
BRANCH  13  14
HETATM   14  C7  UNL     1      27.388 -13.069 -17.300  1.00  0.00    -0.034 A
HETATM   15  C8  UNL     1      27.186 -11.833 -16.903  1.00  0.00     0.009 A
HETATM   16  C9  UNL     1      26.411 -10.845 -17.727  1.00  0.00     0.068 C
HETATM   17  N6  UNL     1      27.799 -11.631 -15.641  1.00  0.00    -0.367 N
HETATM   18  C10 UNL     1      28.378 -12.696 -15.232  1.00  0.00    -0.013 A
ATOM     19  H6  UNL     1      27.781 -10.751 -15.125  1.00  0.00     0.165 HD
HETATM   20  C11 UNL     1      29.137 -12.941 -13.976  1.00  0.00     0.063 C
HETATM   21  C12 UNL     1      28.177 -13.741 -16.254  1.00  0.00     0.089 A
ENDBRANCH  13  14
ENDBRANCH   9  13
BRANCH   4  22
HETATM   22  N3  UNL     1      21.857 -16.587 -17.318  1.00  0.00    -0.383 N
ATOM     23  H32 UNL     1      20.960 -16.524 -16.836  1.00  0.00     0.157 HD
ATOM     24  H31 UNL     1      22.213 -17.502 -17.597  1.00  0.00     0.157 HD
ENDBRANCH   4  22
BRANCH   1  25
HETATM   25  N1  UNL     1      21.970 -12.034 -17.881  1.00  0.00    -0.230 N
HETATM   26  C1  UNL     1      22.623 -10.769 -17.952  1.00  0.00     0.165 C
ATOM     27  H1  UNL     1      20.950 -12.034 -17.853  1.00  0.00     0.177 HD
ENDBRANCH   1  25
TORSDOF 4
ENDMDL