MODEL 3
REMARK VINA RESULT: -7.284953873      1.569      1.832
REMARK  2 active torsions:
REMARK  status: ('A' for Active; 'I' for Inactive)
REMARK    1  A    between atoms: C3_4  and  N2_5
REMARK    2  A    between atoms: N2_5  and  C4_7
ROOT
HETATM    1  N2  UNL     1      26.059 -14.419 -17.779  1.00  0.00    -0.367 N
ATOM      2  H2  UNL     1      26.537 -14.798 -18.596  1.00  0.00     0.162 HD
ENDROOT
BRANCH   1   3
HETATM    3  C3  UNL     1      24.812 -14.570 -17.817  1.00  0.00     0.107 A
HETATM    4  C2  UNL     1      24.052 -13.535 -18.358  1.00  0.00     0.093 A
HETATM    5  C1  UNL     1      22.682 -13.601 -18.446  1.00  0.00     0.122 A
HETATM    6  N1  UNL     1      21.880 -12.572 -18.989  1.00  0.00    -0.083 NA
HETATM    7  N5  UNL     1      22.049 -14.702 -17.994  1.00  0.00    -0.319 N
HETATM    8  C14 UNL     1      22.768 -15.705 -17.469  1.00  0.00     0.195 A
ATOM      9  H5  UNL     1      21.032 -14.771 -18.050  1.00  0.00     0.169 HD
HETATM   10  N3  UNL     1      24.118 -15.636 -17.385  1.00  0.00    -0.317 N
HETATM   11  N4  UNL     1      22.075 -16.855 -16.999  1.00  0.00    -0.063 NA
ATOM     12  H3  UNL     1      24.626 -16.422 -16.979  1.00  0.00     0.170 HD
ENDBRANCH   1   3
BRANCH   1  13
HETATM   13  C4  UNL     1      26.930 -13.836 -16.843  1.00  0.00     0.035 C
HETATM   14  C5  UNL     1      26.160 -13.281 -15.671  1.00  0.00     0.038 C
HETATM   15  C6  UNL     1      26.912 -12.342 -14.801  1.00  0.00     0.012 C
HETATM   16  C7  UNL     1      27.773 -12.977 -13.765  1.00  0.00     0.172 C
HETATM   17  C11 UNL     1      27.679 -11.276 -15.580  1.00  0.00     0.011 C
HETATM   18  O1  UNL     1      28.586 -13.964 -14.125  1.00  0.00    -0.385 OA
HETATM   19  C8  UNL     1      28.990 -14.056 -15.435  1.00  0.00     0.124 C
HETATM   20  C9  UNL     1      29.524 -12.797 -16.023  1.00  0.00     0.037 C
HETATM   21  C13 UNL     1      27.973 -14.765 -16.309  1.00  0.00     0.062 C
HETATM   22  C10 UNL     1      28.503 -11.922 -16.660  1.00  0.00    -0.009 C
HETATM   23  C12 UNL     1      27.679 -12.724 -17.599  1.00  0.00     0.035 C
ENDBRANCH   1  13
TORSDOF 2
ENDMDL