MODEL 2
REMARK VINA RESULT: -6.297706419      1.826      4.429
REMARK  4 active torsions:
REMARK  status: ('A' for Active; 'I' for Inactive)
REMARK    1  A    between atoms: C3_3  and  O1_4
REMARK    2  A    between atoms: N1_12  and  C10_14
REMARK    3  A    between atoms: C11_19  and  C13_21
REMARK    4  A    between atoms: C13_21  and  O3_23
ROOT
HETATM    1  C1  UNL     1      22.458 -13.492 -16.757  1.00  0.00     0.017 C
HETATM    2  C2  UNL     1      23.606 -13.945 -17.204  1.00  0.00    -0.048 C
HETATM    3  C3  UNL     1      24.855 -13.564 -16.506  1.00  0.00     0.150 C
HETATM    4  C4  UNL     1      25.981 -13.243 -17.435  1.00  0.00     0.015 C
HETATM    5  C5  UNL     1      25.912 -11.767 -17.754  1.00  0.00     0.012 C
HETATM    6  C6  UNL     1      26.021 -14.085 -18.693  1.00  0.00     0.016 C
HETATM    7  C7  UNL     1      25.163 -15.253 -18.491  1.00  0.00     0.039 C
HETATM    8  C8  UNL     1      23.687 -14.806 -18.362  1.00  0.00     0.098 C
HETATM    9  C9  UNL     1      23.086 -16.141 -18.219  1.00  0.00     0.128 C
HETATM   10  N1  UNL     1      22.064 -16.403 -17.485  1.00  0.00    -0.336 N
ATOM     11  H1  UNL     1      21.639 -15.636 -16.964  1.00  0.00     0.168 HD
HETATM   12  O2  UNL     1      23.849 -16.974 -19.019  1.00  0.00    -0.325 OA
HETATM   13  C11 UNL     1      24.987 -16.253 -19.566  1.00  0.00     0.095 C
HETATM   14  C12 UNL     1      24.551 -15.703 -20.885  1.00  0.00     0.050 C
ENDROOT
BRANCH  10  15
HETATM   15  C10 UNL     1      21.494 -17.691 -17.355  1.00  0.00     0.175 C
HETATM   16  N2  UNL     1      20.749 -18.027 -16.351  1.00  0.00    -0.395 N
ATOM     17  H22 UNL     1      20.575 -17.323 -15.633  1.00  0.00     0.156 HD
ATOM     18  H21 UNL     1      20.337 -18.956 -16.257  1.00  0.00     0.156 HD
ENDBRANCH  10  15
BRANCH  13  19
HETATM   19  C13 UNL     1      26.115 -17.258 -19.675  1.00  0.00     0.149 C
HETATM   20  C14 UNL     1      25.998 -17.963 -21.008  1.00  0.00     0.042 C
BRANCH  19  21
HETATM   21  O3  UNL     1      26.004 -18.212 -18.629  1.00  0.00    -0.393 OA
ATOM     22  H3  UNL     1      25.991 -19.087 -18.998  1.00  0.00     0.210 HD
ENDBRANCH  19  21
ENDBRANCH  13  19
BRANCH   3  23
HETATM   23  O1  UNL     1      24.627 -12.551 -15.574  1.00  0.00    -0.391 OA
ATOM     24  H1  UNL     1      24.773 -12.858 -14.687  1.00  0.00     0.210 HD
ENDBRANCH   3  23
TORSDOF 4
ENDMDL