MODEL 1
REMARK VINA RESULT: -6.616000758      0.000      0.000
REMARK  3 active torsions:
REMARK  status: ('A' for Active; 'I' for Inactive)
REMARK    1  A    between atoms: N1_2  and  C2_4
REMARK    2  A    between atoms: C2_4  and  C3_5
REMARK    3  A    between atoms: C14_19  and  O4_20
ROOT
HETATM    1  C3  UNL     1      29.156 -14.382 -16.022  1.00  0.00    -0.018 C
HETATM    2  C4  UNL     1      28.843 -13.941 -14.838  1.00  0.00    -0.016 C
HETATM    3  C5  UNL     1      27.555 -13.858 -14.149  1.00  0.00     0.028 C
HETATM    4  C6  UNL     1      26.901 -12.480 -14.236  1.00  0.00     0.006 C
HETATM    5  C7  UNL     1      26.953 -11.879 -15.595  1.00  0.00     0.038 C
HETATM    6  C8  UNL     1      25.827 -12.307 -16.465  1.00  0.00     0.189 C
HETATM    7  O1  UNL     1      24.654 -12.363 -15.720  1.00  0.00    -0.230 OA
HETATM    8  O2  UNL     1      23.997 -13.475 -15.919  1.00  0.00    -0.201 OA
HETATM    9  C9  UNL     1      23.773 -13.749 -17.252  1.00  0.00     0.190 C
HETATM   10  C10 UNL     1      22.753 -12.798 -17.787  1.00  0.00     0.081 C
HETATM   11  C11 UNL     1      23.194 -15.146 -17.369  1.00  0.00     0.081 C
HETATM   12  O3  UNL     1      24.937 -13.737 -18.039  1.00  0.00    -0.345 OA
HETATM   13  C12 UNL     1      25.989 -13.677 -17.085  1.00  0.00     0.160 C
HETATM   14  C13 UNL     1      27.335 -13.906 -17.691  1.00  0.00     0.071 C
HETATM   15  C14 UNL     1      28.141 -14.953 -16.994  1.00  0.00     0.154 C
ENDROOT
BRANCH   1  16
HETATM   16  C2  UNL     1      30.565 -14.378 -16.558  1.00  0.00     0.091 C
BRANCH  16  17
HETATM   17  N1  UNL     1      30.791 -14.953 -17.812  1.00  0.00    -0.403 N
HETATM   18  C1  UNL     1      31.562 -14.211 -18.741  1.00  0.00     0.145 C
ATOM     19  H1  UNL     1      30.417 -15.872 -18.048  1.00  0.00     0.158 HD
ENDBRANCH  16  17
ENDBRANCH   1  16
BRANCH  15  20
HETATM   20  O4  UNL     1      27.389 -15.875 -16.302  1.00  0.00    -0.391 OA
ATOM     21  H4  UNL     1      27.350 -16.662 -16.833  1.00  0.00     0.210 HD
ENDBRANCH  15  20
TORSDOF 3
ENDMDL