MODEL 4
REMARK VINA RESULT: -6.066822223      2.881      5.393
REMARK  3 active torsions:
REMARK  status: ('A' for Active; 'I' for Inactive)
REMARK    1  A    between atoms: C2_2  and  N1_3
REMARK    2  A    between atoms: C6_10  and  N3_11
REMARK    3  A    between atoms: C11_20  and  N5_21
ROOT
HETATM    1  N1  UNL     1      28.071 -12.244 -16.317  1.00  0.00    -0.309 N
HETATM    2  C3  UNL     1      28.209 -11.416 -17.381  1.00  0.00     0.180 A
HETATM    3  S1  UNL     1      29.703 -10.922 -17.883  1.00  0.00    -0.040 SA
HETATM    4  N2  UNL     1      27.153 -10.957 -18.078  1.00  0.00    -0.335 N
ATOM      5  H2  UNL     1      27.284 -10.335 -18.876  1.00  0.00     0.168 HD
HETATM    6  C4  UNL     1      25.918 -11.340 -17.695  1.00  0.00     0.038 A
HETATM    7  C5  UNL     1      24.768 -10.835 -18.460  1.00  0.00     0.070 C
HETATM    8  C6  UNL     1      25.701 -12.181 -16.621  1.00  0.00     0.101 A
HETATM    9  C11 UNL     1      26.825 -12.617 -15.949  1.00  0.00     0.132 A
ENDROOT
BRANCH   8  10
HETATM   10  N3  UNL     1      24.379 -12.560 -16.252  1.00  0.00    -0.330 N
HETATM   11  C7  UNL     1      23.813 -13.640 -16.653  1.00  0.00     0.172 A
HETATM   12  C8  UNL     1      24.293 -14.642 -17.479  1.00  0.00     0.085 A
HETATM   13  O1  UNL     1      22.593 -13.974 -16.304  1.00  0.00    -0.220 OA
HETATM   14  C9  UNL     1      23.283 -15.554 -17.577  1.00  0.00     0.033 A
HETATM   15  C10 UNL     1      23.342 -16.811 -18.366  1.00  0.00     0.070 C
HETATM   16  N4  UNL     1      22.258 -15.101 -16.837  1.00  0.00    -0.264 N
ATOM     17  H4  UNL     1      21.361 -15.571 -16.715  1.00  0.00     0.194 HD
ATOM     18  H3  UNL     1      23.853 -11.940 -15.635  1.00  0.00     0.168 HD
ENDBRANCH   8  10
BRANCH   9  19
HETATM   19  N5  UNL     1      26.713 -13.392 -14.950  1.00  0.00    -0.383 N
ATOM     20  H52 UNL     1      26.024 -13.198 -14.224  1.00  0.00     0.157 HD
ATOM     21  H51 UNL     1      27.331 -14.202 -14.908  1.00  0.00     0.157 HD
ENDBRANCH   9  19
BRANCH   1  22
HETATM   22  C2  UNL     1      29.257 -12.659 -15.665  1.00  0.00     0.128 C
HETATM   23  C1  UNL     1      29.697 -11.892 -14.479  1.00  0.00     0.027 C
ENDBRANCH   1  22
TORSDOF 3
ENDMDL