MODEL 2
REMARK VINA RESULT: -6.248831843      1.751      2.616
REMARK  3 active torsions:
REMARK  status: ('A' for Active; 'I' for Inactive)
REMARK    1  A    between atoms: N1_1  and  C1_4
REMARK    2  A    between atoms: N5_16  and  C6_17
REMARK    3  A    between atoms: C6_17  and  C7_18
ROOT
HETATM    1  C1  UNL     1      22.283 -12.825 -17.953  1.00  0.00     0.131 A
HETATM    2  N2  UNL     1      22.211 -11.502 -17.836  1.00  0.00    -0.337 N
ATOM      3  H2  UNL     1      21.293 -11.059 -17.891  1.00  0.00     0.168 HD
HETATM    4  C2  UNL     1      23.286 -10.719 -17.647  1.00  0.00     0.183 A
HETATM    5  N3  UNL     1      24.490 -11.314 -17.576  1.00  0.00    -0.336 N
ATOM      6  H3  UNL     1      25.316 -10.734 -17.434  1.00  0.00     0.168 HD
HETATM    7  C3  UNL     1      24.648 -12.649 -17.685  1.00  0.00     0.145 A
HETATM    8  C4  UNL     1      23.524 -13.425 -17.879  1.00  0.00     0.123 A
HETATM    9  N4  UNL     1      23.956 -14.701 -17.953  1.00  0.00    -0.327 N
ATOM     10  H4  UNL     1      23.358 -15.515 -18.094  1.00  0.00     0.168 HD
HETATM   11  C5  UNL     1      25.290 -14.741 -17.815  1.00  0.00     0.184 A
HETATM   12  S1  UNL     1      26.269 -16.020 -17.832  1.00  0.00    -0.040 SA
HETATM   13  N5  UNL     1      25.726 -13.479 -17.649  1.00  0.00    -0.284 N
ENDROOT
BRANCH  13  14
HETATM   14  C6  UNL     1      27.038 -13.007 -17.465  1.00  0.00     0.106 C
BRANCH  14  15
HETATM   15  C7  UNL     1      27.490 -12.775 -16.063  1.00  0.00     0.160 C
HETATM   16  C8  UNL     1      28.340 -11.518 -16.064  1.00  0.00     0.037 C
HETATM   17  C9  UNL     1      29.670 -11.738 -15.390  1.00  0.00     0.005 C
HETATM   18  C10 UNL     1      29.460 -12.533 -14.118  1.00  0.00     0.026 C
HETATM   19  C11 UNL     1      28.719 -13.795 -14.391  1.00  0.00     0.168 C
HETATM   20  O1  UNL     1      28.301 -13.823 -15.699  1.00  0.00    -0.381 OA
ENDBRANCH  14  15
ENDBRANCH  13  14
BRANCH   1  21
HETATM   21  N1  UNL     1      21.256 -13.588 -18.136  1.00  0.00    -0.383 N
ATOM     22  H12 UNL     1      20.944 -13.742 -19.095  1.00  0.00     0.157 HD
ATOM     23  H11 UNL     1      20.744 -14.041 -17.379  1.00  0.00     0.157 HD
ENDBRANCH   1  21
TORSDOF 3
ENDMDL