MODEL 4
REMARK VINA RESULT: -5.558961537      2.220      4.373
REMARK  3 active torsions:
REMARK  status: ('A' for Active; 'I' for Inactive)
REMARK    1  A    between atoms: C2_2  and  N1_4
REMARK    2  A    between atoms: C4_5  and  N2_6
REMARK    3  A    between atoms: C6_12  and  N4_13
ROOT
HETATM    1  N1  UNL     1      27.106 -13.403 -16.180  1.00  0.00    -0.162 N
HETATM    2  C4  UNL     1      27.078 -12.066 -16.140  1.00  0.00     0.680 A
HETATM    3  N3  UNL     1      25.933 -11.704 -16.761  1.00  0.00    -0.184 N
ATOM      4  H3  UNL     1      25.625 -10.741 -16.891  1.00  0.00     0.184 HD
HETATM    5  C5  UNL     1      25.253 -12.787 -17.185  1.00  0.00     0.139 A
HETATM    6  C6  UNL     1      24.077 -13.021 -17.851  1.00  0.00     0.150 A
HETATM    7  N5  UNL     1      23.643 -14.284 -18.148  1.00  0.00    -0.175 N
ATOM      8  H5  UNL     1      22.766 -14.441 -18.645  1.00  0.00     0.186 HD
HETATM    9  C11 UNL     1      24.417 -15.308 -17.760  1.00  0.00     0.679 A
HETATM   10  N6  UNL     1      24.046 -16.534 -18.020  1.00  0.00    -0.234 N
ATOM     11  H61 UNL     1      24.635 -17.313 -17.725  1.00  0.00     0.174 HD
ATOM     12  H62 UNL     1      23.167 -16.682 -18.517  1.00  0.00     0.174 HD
HETATM   13  N7  UNL     1      25.571 -15.115 -17.107  1.00  0.00    -0.174 N
ATOM     14  H7  UNL     1      26.131 -15.920 -16.829  1.00  0.00     0.186 HD
HETATM   15  C12 UNL     1      26.000 -13.880 -16.815  1.00  0.00     0.170 A
ENDROOT
BRANCH   6  16
HETATM   16  N4  UNL     1      23.271 -11.937 -18.250  1.00  0.00    -0.365 N
HETATM   17  C7  UNL     1      22.539 -11.058 -17.359  1.00  0.00     0.124 C
HETATM   18  C8  UNL     1      22.679  -9.677 -18.021  1.00  0.00     0.021 C
HETATM   19  C9  UNL     1      23.365  -9.946 -19.350  1.00  0.00     0.021 C
HETATM   20  C10 UNL     1      22.973 -11.413 -19.583  1.00  0.00     0.124 C
ENDBRANCH   6  16
BRANCH   2  21
HETATM   21  N2  UNL     1      27.970 -11.276 -15.609  1.00  0.00    -0.234 N
ATOM     22  H22 UNL     1      28.759 -11.545 -15.021  1.00  0.00     0.174 HD
ATOM     23  H21 UNL     1      28.023 -10.261 -15.697  1.00  0.00     0.174 HD
ENDBRANCH   2  21
BRANCH   1  24
HETATM   24  C2  UNL     1      28.114 -14.287 -15.662  1.00  0.00     0.101 C
HETATM   25  C1  UNL     1      28.341 -14.174 -14.186  1.00  0.00     0.033 C
HETATM   26  C3  UNL     1      29.371 -14.074 -16.479  1.00  0.00     0.033 C
ENDBRANCH   1  24
TORSDOF 3
ENDMDL