MODEL 3
REMARK VINA RESULT: -4.809545356      1.849      2.524
REMARK  6 active torsions:
REMARK  status: ('A' for Active; 'I' for Inactive)
REMARK    1  A    between atoms: C2_3  and  C3_4
REMARK    2  A    between atoms: C8_9  and  N2_10
REMARK    3  A    between atoms: C11_21  and  N6_22
REMARK    4  A    between atoms: N6_22  and  C12_24
REMARK    5  A    between atoms: C12_24  and  C13_25
REMARK    6  A    between atoms: C13_25  and  N7_26
ROOT
HETATM    1  C1  UNL     1      59.070  29.413  14.297  1.00  0.00     0.175 C
HETATM    2  N1  UNL     1      59.952  29.293  13.202  1.00  0.00    -0.190 N
HETATM    3  C2  UNL     1      60.788  30.352  12.840  1.00  0.00     0.054 A
HETATM    4  C7  UNL     1      61.478  30.217  11.628  1.00  0.00     0.076 A
HETATM    5  C8  UNL     1      62.277  31.165  11.077  1.00  0.00     0.115 A
HETATM    6  N3  UNL     1      62.897  30.984   9.857  1.00  0.00    -0.338 N
ATOM      7  H3  UNL     1      63.495  31.715   9.471  1.00  0.00     0.168 HD
HETATM    8  C9  UNL     1      62.709  29.855   9.194  1.00  0.00     0.183 A
HETATM    9  N4  UNL     1      61.922  28.908   9.704  1.00  0.00    -0.337 N
ATOM     10  H4  UNL     1      61.793  28.049   9.168  1.00  0.00     0.168 HD
HETATM   11  C10 UNL     1      61.288  29.022  10.886  1.00  0.00     0.138 A
HETATM   12  N5  UNL     1      60.483  28.027  11.282  1.00  0.00    -0.175 N
ATOM     13  H5  UNL     1      60.371  27.178  10.728  1.00  0.00     0.186 HD
HETATM   14  C11 UNL     1      59.843  28.198  12.423  1.00  0.00     0.681 A
ENDROOT
BRANCH  14  15
HETATM   15  N6  UNL     1      59.052  27.254  12.855  1.00  0.00    -0.224 N
ATOM     16  H6  UNL     1      58.055  27.454  12.927  1.00  0.00     0.177 HD
BRANCH  15  17
HETATM   17  C12 UNL     1      59.511  25.956  13.232  1.00  0.00     0.165 C
BRANCH  17  18
HETATM   18  C13 UNL     1      59.259  25.629  14.692  1.00  0.00     0.249 C
BRANCH  18  19
HETATM   19  N7  UNL     1      60.329  24.724  15.104  1.00  0.00    -0.078 N
ATOM     20  H73 UNL     1      61.258  25.141  15.041  1.00  0.00     0.274 HD
ATOM     21  H72 UNL     1      60.340  24.542  16.108  1.00  0.00     0.274 HD
ATOM     22  H71 UNL     1      60.226  23.879  14.542  1.00  0.00     0.274 HD
ENDBRANCH  18  19
ENDBRANCH  17  18
ENDBRANCH  15  17
ENDBRANCH  14  15
BRANCH   3  23
HETATM   23  C3  UNL     1      61.040  31.404  13.747  1.00  0.00    -0.007 C
HETATM   24  C4  UNL     1      60.210  31.071  14.970  1.00  0.00     0.021 C
HETATM   25  C5  UNL     1      60.257  32.739  13.523  1.00  0.00     0.021 C
HETATM   26  C6  UNL     1      62.335  31.883  14.280  1.00  0.00     0.021 C
ENDBRANCH   3  23
BRANCH   5  27
HETATM   27  N2  UNL     1      62.416  32.310  11.577  1.00  0.00    -0.385 N
ATOM     28  H22 UNL     1      61.610  32.651  12.101  1.00  0.00     0.157 HD
ATOM     29  H21 UNL     1      63.298  32.822  11.544  1.00  0.00     0.157 HD
ENDBRANCH   5  27
TORSDOF 6
ENDMDL