MODEL 1
REMARK VINA RESULT: -7.295022794      0.000      0.000
REMARK  4 active torsions:
REMARK  status: ('A' for Active; 'I' for Inactive)
REMARK    1  A    between atoms: C3_5  and  N2_6
REMARK    2  A    between atoms: N2_6  and  C4_8
REMARK    3  A    between atoms: C12_23  and  C13_24
REMARK    4  A    between atoms: C13_24  and  O2_25
ROOT
HETATM    1  C1  UNL     1      59.371  26.593   6.799  1.00  0.00     0.044 C
HETATM    2  C2  UNL     1      60.191  27.228   7.580  1.00  0.00     0.057 A
HETATM    3  N1  UNL     1      59.693  27.911   8.649  1.00  0.00    -0.191 N
ATOM      4  H1  UNL     1      58.684  27.896   8.796  1.00  0.00     0.184 HD
HETATM    5  C3  UNL     1      60.438  28.598   9.514  1.00  0.00     0.700 A
HETATM    6  N5  UNL     1      61.765  28.636   9.349  1.00  0.00    -0.155 N
ATOM      7  H5  UNL     1      62.357  29.155   9.998  1.00  0.00     0.187 HD
HETATM    8  C11 UNL     1      62.297  27.982   8.316  1.00  0.00     0.274 A
HETATM    9  O1  UNL     1      63.551  28.021   8.162  1.00  0.00    -0.267 OA
HETATM   10  C12 UNL     1      61.554  27.247   7.378  1.00  0.00     0.081 A
ENDROOT
BRANCH   5  11
HETATM   11  N2  UNL     1      59.865  29.218  10.506  1.00  0.00    -0.022 N
ATOM     12  H2  UNL     1      59.602  30.201  10.434  1.00  0.00     0.203 HD
BRANCH  11  13
HETATM   13  C4  UNL     1      59.620  28.475  11.688  1.00  0.00     0.697 A
HETATM   14  N3  UNL     1      59.743  27.150  11.834  1.00  0.00    -0.189 N
HETATM   15  C5  UNL     1      59.416  26.854  13.106  1.00  0.00     0.076 A
ATOM     16  H3  UNL     1      60.030  26.486  11.115  1.00  0.00     0.184 HD
HETATM   17  C6  UNL     1      59.369  25.648  13.798  1.00  0.00     0.032 A
HETATM   18  C10 UNL     1      59.078  28.037  13.771  1.00  0.00     0.076 A
HETATM   19  C7  UNL     1      58.987  25.666  15.123  1.00  0.00     0.002 A
HETATM   20  C8  UNL     1      58.655  26.831  15.780  1.00  0.00     0.002 A
HETATM   21  C9  UNL     1      58.698  28.038  15.100  1.00  0.00     0.032 A
HETATM   22  N4  UNL     1      59.221  29.008  12.853  1.00  0.00    -0.189 N
ATOM     23  H4  UNL     1      59.051  30.000  13.017  1.00  0.00     0.184 HD
ENDBRANCH  11  13
ENDBRANCH   5  11
BRANCH  10  24
HETATM   24  C13 UNL     1      62.196  26.645   6.403  1.00  0.00     0.153 C
BRANCH  24  25
HETATM   25  O2  UNL     1      62.696  25.377   6.447  1.00  0.00    -0.367 OA
HETATM   26  C14 UNL     1      62.122  24.377   5.623  1.00  0.00     0.208 C
ENDBRANCH  24  25
ENDBRANCH  10  24
TORSDOF 4
ENDMDL