MODEL 3
REMARK VINA RESULT: -4.701113540      3.004      5.227
REMARK  6 active torsions:
REMARK  status: ('A' for Active; 'I' for Inactive)
REMARK    1  A    between atoms: N1_2  and  C3_4
REMARK    2  A    between atoms: C3_4  and  C4_5
REMARK    3  A    between atoms: C4_5  and  O1_6
REMARK    4  A    between atoms: C5_8  and  O2_9
REMARK    5  A    between atoms: C6_11  and  O3_12
REMARK    6  A    between atoms: C9_16  and  O4_17
ROOT
HETATM    1  C4  UNL     1      61.094  31.491  12.649  1.00  0.00     0.116 C
HETATM    2  C5  UNL     1      61.726  30.987  11.343  1.00  0.00     0.184 C
HETATM    3  C6  UNL     1      61.680  29.458  11.174  1.00  0.00     0.161 C
HETATM    4  C7  UNL     1      60.300  28.847  11.329  1.00  0.00     0.015 C
HETATM    5  C8  UNL     1      59.807  28.277  10.066  1.00  0.00     0.021 C
HETATM    6  C9  UNL     1      60.112  27.965  12.544  1.00  0.00     0.133 C
HETATM    7  C10 UNL     1      59.071  28.585  13.451  1.00  0.00     0.016 C
HETATM    8  C11 UNL     1      59.542  29.899  14.132  1.00  0.00     0.015 C
HETATM    9  C12 UNL     1      60.391  30.323  13.106  1.00  0.00     0.030 C
HETATM   10  C13 UNL     1      59.525  30.022  11.866  1.00  0.00     0.006 C
HETATM   11  C14 UNL     1      58.262  29.351  12.382  1.00  0.00     0.013 C
ENDROOT
BRANCH   1  12
HETATM   12  C3  UNL     1      62.140  32.037  13.575  1.00  0.00     0.312 C
BRANCH  12  13
HETATM   13  N1  UNL     1      61.575  32.920  14.601  1.00  0.00     0.083 N
HETATM   14  C1  UNL     1      62.462  34.115  14.597  1.00  0.00     0.309 C
HETATM   15  C2  UNL     1      61.884  32.339  15.929  1.00  0.00     0.309 C
ENDBRANCH  12  13
ENDBRANCH   1  12
BRANCH   1  16
HETATM   16  O1  UNL     1      60.150  32.461  12.354  1.00  0.00    -0.385 OA
ATOM     17  H1  UNL     1      59.843  32.368  11.459  1.00  0.00     0.210 HD
ENDBRANCH   1  16
BRANCH   2  18
HETATM   18  O2  UNL     1      63.091  31.286  11.331  1.00  0.00    -0.390 OA
ATOM     19  H2  UNL     1      63.590  30.506  11.120  1.00  0.00     0.210 HD
ENDBRANCH   2  18
BRANCH   3  20
HETATM   20  O3  UNL     1      62.083  29.247   9.852  1.00  0.00    -0.392 OA
ATOM     21  H3  UNL     1      62.691  28.520   9.907  1.00  0.00     0.210 HD
ENDBRANCH   3  20
BRANCH   6  22
HETATM   22  O4  UNL     1      59.499  26.771  12.097  1.00  0.00    -0.394 OA
ATOM     23  H4  UNL     1      58.750  26.616  12.660  1.00  0.00     0.210 HD
ENDBRANCH   6  22
TORSDOF 6
ENDMDL