MODEL 4
REMARK VINA RESULT: -4.136917749      1.087      1.363
REMARK  5 active torsions:
REMARK  status: ('A' for Active; 'I' for Inactive)
REMARK    1  A    between atoms: N1_2  and  C2_4
REMARK    2  A    between atoms: C2_4  and  N2_6
REMARK    3  A    between atoms: N2_6  and  C3_8
REMARK    4  A    between atoms: C4_9  and  N3_10
REMARK    5  A    between atoms: S2_16  and  N6_18
ROOT
HETATM    1  N3  UNL     1      59.996  30.890  14.968  1.00  0.00    -0.301 N
ATOM      2  H3  UNL     1      59.889  31.804  15.408  1.00  0.00     0.174 HD
HETATM    3  C5  UNL     1      59.500  29.722  15.607  1.00  0.00     0.179 C
HETATM    4  N4  UNL     1      59.096  28.768  16.119  1.00  0.00    -0.172 NA
ENDROOT
BRANCH   1   5
HETATM    5  C4  UNL     1      60.656  30.766  13.682  1.00  0.00     0.244 C
HETATM    6  C3  UNL     1      59.722  31.150  12.599  1.00  0.00     0.037 C
HETATM    7  C9  UNL     1      59.659  32.542  12.153  1.00  0.00     0.052 A
HETATM    8  C7  UNL     1      60.560  33.546  12.688  1.00  0.00     0.075 A
HETATM    9  C8  UNL     1      60.685  33.087  11.211  1.00  0.00     0.029 A
HETATM   10  S2  UNL     1      61.885  32.998  13.692  1.00  0.00    -0.109 SA
HETATM   11  N5  UNL     1      61.885  31.460  13.746  1.00  0.00    -0.340 N
HETATM   12  C6  UNL     1      61.809  33.760  15.291  1.00  0.00     0.112 C
ATOM     13  H5  UNL     1      62.764  30.948  13.826  1.00  0.00     0.170 HD
BRANCH   6  14
HETATM   14  N2  UNL     1      59.580  30.220  11.515  1.00  0.00    -0.336 N
ATOM     15  H2  UNL     1      58.783  30.387  10.901  1.00  0.00     0.168 HD
BRANCH  14  16
HETATM   16  C2  UNL     1      60.373  29.115  11.175  1.00  0.00     0.171 C
HETATM   17  S1  UNL     1      61.913  29.214  10.659  1.00  0.00    -0.041 SA
BRANCH  16  18
HETATM   18  N1  UNL     1      59.858  27.779  11.298  1.00  0.00    -0.371 N
HETATM   19  C1  UNL     1      59.453  27.247  12.561  1.00  0.00     0.148 C
ATOM     20  H1  UNL     1      59.779  27.197  10.464  1.00  0.00     0.161 HD
ENDBRANCH  16  18
ENDBRANCH  14  16
ENDBRANCH   6  14
BRANCH  10  21
HETATM   21  N6  UNL     1      63.250  33.440  13.043  1.00  0.00    -0.376 N
ATOM     22  H62 UNL     1      63.946  32.813  12.636  1.00  0.00     0.164 HD
ATOM     23  H61 UNL     1      63.299  34.456  13.110  1.00  0.00     0.164 HD
ENDBRANCH  10  21
ENDBRANCH   1   5
TORSDOF 5
ENDMDL