MODEL 4
REMARK VINA RESULT: -4.497719548      2.220      4.502
REMARK  3 active torsions:
REMARK  status: ('A' for Active; 'I' for Inactive)
REMARK    1  A    between atoms: C2_4  and  C3_5
REMARK    2  A    between atoms: C8_13  and  C9_14
REMARK    3  A    between atoms: N3_18  and  O1_19
ROOT
HETATM    1  C3  UNL     1      61.057  30.342  11.558  1.00  0.00     0.068 C
HETATM    2  C4  UNL     1      61.357  31.774  11.379  1.00  0.00     0.289 C
HETATM    3  N2  UNL     1      60.361  32.695  11.854  1.00  0.00    -0.041 N
ATOM      4  H21 UNL     1      59.427  32.316  11.703  1.00  0.00     0.280 HD
ATOM      5  H22 UNL     1      60.319  33.513  11.247  1.00  0.00     0.280 HD
HETATM    6  C5  UNL     1      60.520  33.097  13.216  1.00  0.00     0.308 C
HETATM    7  C6  UNL     1      60.052  31.954  14.085  1.00  0.00     0.053 C
HETATM    8  C7  UNL     1      60.880  30.752  14.050  1.00  0.00     0.009 C
HETATM    9  C8  UNL     1      60.735  29.828  12.894  1.00  0.00     0.004 C
HETATM   10  N3  UNL     1      61.794  33.616  13.567  1.00  0.00    -0.073 NA
HETATM   11  N4  UNL     1      62.865  33.049  12.915  1.00  0.00    -0.263 N
ATOM     12  H4  UNL     1      63.805  33.281  13.235  1.00  0.00     0.186 HD
HETATM   13  C13 UNL     1      62.725  32.164  11.830  1.00  0.00     0.265 C
HETATM   14  O2  UNL     1      63.767  31.732  11.276  1.00  0.00    -0.270 OA
ENDROOT
BRANCH   1  15
HETATM   15  C2  UNL     1      62.172  29.597  10.857  1.00  0.00     0.062 C
HETATM   16  N1  UNL     1      62.192  29.581   9.579  1.00  0.00    -0.406 N
HETATM   17  C1  UNL     1      63.194  28.913   8.838  1.00  0.00     0.145 C
ATOM     18  H1  UNL     1      61.454  30.071   9.072  1.00  0.00     0.158 HD
ENDBRANCH   1  15
BRANCH   9  19
HETATM   19  C9  UNL     1      59.473  28.979  12.955  1.00  0.00    -0.047 C
HETATM   20  C10 UNL     1      59.775  27.611  12.373  1.00  0.00     0.015 C
HETATM   21  C11 UNL     1      58.857  28.830  14.275  1.00  0.00     0.015 C
HETATM   22  C12 UNL     1      58.467  29.623  12.001  1.00  0.00     0.015 C
ENDBRANCH   9  19
BRANCH  10  23
HETATM   23  O1  UNL     1      61.920  33.547  14.926  1.00  0.00    -0.292 OA
ATOM     24  H1  UNL     1      62.824  33.740  15.148  1.00  0.00     0.239 HD
ENDBRANCH  10  23
TORSDOF 3
ENDMDL