MODEL 3
REMARK VINA RESULT: -4.963903768      1.710      2.275
REMARK  6 active torsions:
REMARK  status: ('A' for Active; 'I' for Inactive)
REMARK    1  A    between atoms: C1_2  and  N2_4
REMARK    2  A    between atoms: C2_5  and  C3_6
REMARK    3  A    between atoms: C3_6  and  O1_7
REMARK    4  A    between atoms: C4_9  and  O2_10
REMARK    5  A    between atoms: C5_12  and  O3_13
REMARK    6  A    between atoms: C6_15  and  C7_16
ROOT
HETATM    1  N2  UNL     1      60.468  31.184  14.074  1.00  0.00    -0.340 N
HETATM    2  C2  UNL     1      61.203  31.595  12.945  1.00  0.00     0.142 C
HETATM    3  C4  UNL     1      60.040  32.183  12.095  1.00  0.00     0.174 C
HETATM    4  C5  UNL     1      59.177  30.901  12.081  1.00  0.00     0.176 C
HETATM    5  C6  UNL     1      59.277  30.480  13.526  1.00  0.00     0.151 C
ENDROOT
BRANCH   5   6
HETATM    6  C7  UNL     1      59.275  29.051  13.775  1.00  0.00    -0.033 A
HETATM    7  C8  UNL     1      59.501  28.073  12.859  1.00  0.00     0.009 A
HETATM    8  C9  UNL     1      59.465  26.748  13.217  1.00  0.00     0.001 A
HETATM    9  C10 UNL     1      59.201  26.342  14.511  1.00  0.00     0.000 A
HETATM   10  C11 UNL     1      58.969  27.315  15.457  1.00  0.00     0.001 A
HETATM   11  C12 UNL     1      59.008  28.627  15.088  1.00  0.00     0.009 A
ENDBRANCH   5   6
BRANCH   1  12
HETATM   12  C1  UNL     1      60.604  31.333  15.452  1.00  0.00     0.184 C
HETATM   13  N1  UNL     1      59.524  31.792  16.285  1.00  0.00    -0.070 NA
HETATM   14  S1  UNL     1      61.987  31.039  16.249  1.00  0.00    -0.044 SA
ENDBRANCH   1  12
BRANCH   4  15
HETATM   15  O3  UNL     1      59.802  30.026  11.220  1.00  0.00    -0.391 OA
ATOM     16  H3  UNL     1      60.348  30.556  10.653  1.00  0.00     0.210 HD
ENDBRANCH   4  15
BRANCH   2  17
HETATM   17  C3  UNL     1      62.321  32.535  13.017  1.00  0.00     0.192 C
BRANCH  17  18
HETATM   18  O1  UNL     1      61.985  33.862  13.016  1.00  0.00    -0.399 OA
ATOM     19  H1  UNL     1      61.101  34.066  12.735  1.00  0.00     0.209 HD
ENDBRANCH  17  18
ENDBRANCH   2  17
BRANCH   3  20
HETATM   20  O2  UNL     1      60.460  32.522  10.833  1.00  0.00    -0.391 OA
ATOM     21  H2  UNL     1      59.754  32.453  10.200  1.00  0.00     0.210 HD
ENDBRANCH   3  20
TORSDOF 6
ENDMDL