MODEL 5
REMARK VINA RESULT: -6.424793075      3.657      5.964
REMARK  5 active torsions:
REMARK  status: ('A' for Active; 'I' for Inactive)
REMARK    1  A    between atoms: N1_2  and  C2_4
REMARK    2  A    between atoms: C3_7  and  N3_8
REMARK    3  A    between atoms: N5_14  and  C5_16
REMARK    4  A    between atoms: C5_16  and  C6_17
REMARK    5  A    between atoms: N6_23  and  O1_24
ROOT
HETATM    1  C2  UNL     1      62.098  27.433   7.403  1.00  0.00     0.706 A
HETATM    2  N2  UNL     1      61.069  27.162   6.582  1.00  0.00    -0.022 N
ATOM      3  H2  UNL     1      61.280  26.808   5.649  1.00  0.00     0.203 HD
HETATM    4  C3  UNL     1      59.789  27.328   6.916  1.00  0.00     0.705 A
HETATM    5  N4  UNL     1      59.533  27.797   8.155  1.00  0.00    -0.022 N
ATOM      6  H4  UNL     1      58.563  27.933   8.437  1.00  0.00     0.203 HD
HETATM    7  C4  UNL     1      60.510  28.090   9.031  1.00  0.00     0.707 A
HETATM    8  N5  UNL     1      60.335  28.533  10.207  1.00  0.00    -0.219 N
ATOM      9  H5  UNL     1      61.184  28.705  10.747  1.00  0.00     0.178 HD
HETATM   10  N7  UNL     1      61.802  27.898   8.630  1.00  0.00    -0.022 N
ATOM     11  H7  UNL     1      62.560  28.112   9.277  1.00  0.00     0.203 HD
ENDROOT
BRANCH   8  12
HETATM   12  C5  UNL     1      59.108  28.821  10.872  1.00  0.00     0.197 C
BRANCH  12  13
HETATM   13  C6  UNL     1      59.330  29.345  12.266  1.00  0.00     0.058 A
HETATM   14  C7  UNL     1      59.031  28.585  13.379  1.00  0.00     0.036 A
HETATM   15  C8  UNL     1      59.228  29.047  14.667  1.00  0.00    -0.059 A
HETATM   16  C9  UNL     1      58.908  28.239  15.851  1.00  0.00     0.048 C
HETATM   17  C10 UNL     1      59.750  30.334  14.773  1.00  0.00     0.026 A
HETATM   18  C11 UNL     1      60.050  31.096  13.672  1.00  0.00     0.123 A
HETATM   19  N6  UNL     1      59.828  30.569  12.455  1.00  0.00    -0.239 N
BRANCH  19  20
HETATM   20  O1  UNL     1      60.137  31.349  11.367  1.00  0.00    -0.283 OA
ATOM     21  H1  UNL     1      59.771  32.223  11.299  1.00  0.00     0.245 HD
ENDBRANCH  19  20
ENDBRANCH  12  13
ENDBRANCH   8  12
BRANCH   4  22
HETATM   22  N3  UNL     1      58.804  27.065   6.120  1.00  0.00    -0.234 N
ATOM     23  H32 UNL     1      58.965  27.042   5.113  1.00  0.00     0.174 HD
ATOM     24  H31 UNL     1      57.856  26.875   6.444  1.00  0.00     0.174 HD
ENDBRANCH   4  22
BRANCH   1  25
HETATM   25  N1  UNL     1      63.323  27.256   7.035  1.00  0.00    -0.229 N
HETATM   26  C1  UNL     1      64.196  26.256   7.548  1.00  0.00     0.165 C
ATOM     27  H1  UNL     1      63.694  27.881   6.321  1.00  0.00     0.177 HD
ENDBRANCH   1  25
TORSDOF 5
ENDMDL