MODEL 5
REMARK VINA RESULT: -4.298014804      3.854      6.410
REMARK  3 active torsions:
REMARK  status: ('A' for Active; 'I' for Inactive)
REMARK    1  A    between atoms: C2_2  and  C3_3
REMARK    2  A    between atoms: C3_3  and  N1_4
REMARK    3  A    between atoms: C4_6  and  N2_7
ROOT
HETATM    1  N2  UNL     1      60.891  28.734  10.462  1.00  0.00    -0.352 N
HETATM    2  C5  UNL     1      62.166  29.097   9.848  1.00  0.00     0.144 C
HETATM    3  C6  UNL     1      62.506  30.535  10.118  1.00  0.00     0.133 C
HETATM    4  N3  UNL     1      63.071  31.228   9.017  1.00  0.00    -0.418 N
ATOM      5  H3  UNL     1      62.906  32.223   8.861  1.00  0.00     0.153 HD
HETATM    6  C7  UNL     1      63.883  30.449   8.145  1.00  0.00     0.133 C
HETATM    7  C8  UNL     1      63.218  30.371   6.806  1.00  0.00     0.139 C
HETATM    8  N4  UNL     1      63.726  29.356   5.958  1.00  0.00    -0.385 N
ATOM      9  H4  UNL     1      64.538  28.785   6.195  1.00  0.00     0.160 HD
HETATM   10  C9  UNL     1      63.007  29.211   4.760  1.00  0.00     0.171 C
HETATM   11  N5  UNL     1      62.123  28.129   4.634  1.00  0.00    -0.386 N
ATOM     12  H5  UNL     1      61.731  27.877   3.728  1.00  0.00     0.160 HD
HETATM   13  C10 UNL     1      61.790  27.399   5.798  1.00  0.00     0.122 C
HETATM   14  C11 UNL     1      60.296  27.441   6.094  1.00  0.00     0.047 C
HETATM   15  C12 UNL     1      59.994  27.125   7.534  1.00  0.00     0.236 C
HETATM   16  N6  UNL     1      59.916  28.330   8.314  1.00  0.00    -0.059 N
ATOM     17  H61 UNL     1      59.135  28.920   8.025  1.00  0.00     0.279 HD
ATOM     18  H62 UNL     1      60.679  28.972   8.097  1.00  0.00     0.279 HD
HETATM   19  C13 UNL     1      59.861  28.015   9.733  1.00  0.00     0.357 C
ENDROOT
BRANCH   1  20
HETATM   20  C4  UNL     1      60.637  29.086  11.811  1.00  0.00     0.175 C
HETATM   21  N1  UNL     1      59.416  29.246  12.202  1.00  0.00    -0.386 N
ATOM     22  H1  UNL     1      58.646  29.120  11.545  1.00  0.00     0.160 HD
BRANCH  21  23
HETATM   23  C3  UNL     1      59.149  29.606  13.577  1.00  0.00     0.120 C
BRANCH  23  24
HETATM   24  C2  UNL     1      58.871  28.375  14.425  1.00  0.00     0.015 C
HETATM   25  C1  UNL     1      59.166  28.720  15.862  1.00  0.00     0.006 C
ENDBRANCH  23  24
ENDBRANCH  21  23
ENDBRANCH   1  20
TORSDOF 3
ENDMDL