MODEL 5
REMARK VINA RESULT: -7.046782023      1.039      1.549
REMARK  6 active torsions:
REMARK  status: ('A' for Active; 'I' for Inactive)
REMARK    1  A    between atoms: N1_2  and  C2_4
REMARK    2  A    between atoms: C3_7  and  N3_8
REMARK    3  A    between atoms: N3_8  and  N4_10
REMARK    4  A    between atoms: C4_15  and  N6_16
REMARK    5  A    between atoms: N6_16  and  N7_18
REMARK    6  A    between atoms: C5_20  and  C6_21
ROOT
HETATM    1  C2  UNL     1      62.188  27.716   7.161  1.00  0.00     0.706 A
HETATM    2  N2  UNL     1      61.371  27.827   6.073  1.00  0.00    -0.020 N
ATOM      3  H2  UNL     1      61.778  27.781   5.138  1.00  0.00     0.203 HD
HETATM    4  C3  UNL     1      60.043  27.995   6.199  1.00  0.00     0.725 A
HETATM    5  N5  UNL     1      59.539  28.050   7.443  1.00  0.00    -0.018 N
ATOM      6  H5  UNL     1      58.536  28.175   7.576  1.00  0.00     0.203 HD
HETATM    7  C4  UNL     1      60.342  27.941   8.517  1.00  0.00     0.726 A
HETATM    8  N8  UNL     1      61.670  27.773   8.393  1.00  0.00    -0.020 N
ATOM      9  H8  UNL     1      62.267  27.691   9.216  1.00  0.00     0.203 HD
ENDROOT
BRANCH   7  10
HETATM   10  N6  UNL     1      59.858  27.994   9.712  1.00  0.00    -0.131 N
ATOM     11  H6  UNL     1      59.347  27.189  10.077  1.00  0.00     0.205 HD
BRANCH  10  12
HETATM   12  N7  UNL     1      60.008  29.078  10.484  1.00  0.00    -0.297 N
HETATM   13  C5  UNL     1      59.901  29.276  11.696  1.00  0.00     0.119 C
ATOM     14  H7  UNL     1      60.265  29.915   9.960  1.00  0.00     0.186 HD
BRANCH  13  15
HETATM   15  C6  UNL     1      59.554  28.321  12.720  1.00  0.00    -0.019 A
HETATM   16  C7  UNL     1      59.664  26.964  12.592  1.00  0.00     0.013 A
HETATM   17  C8  UNL     1      59.292  26.137  13.668  1.00  0.00     0.007 A
HETATM   18  C9  UNL     1      58.821  26.625  14.849  1.00  0.00    -0.062 A
HETATM   19  C10 UNL     1      58.431  25.744  15.978  1.00  0.00     0.048 C
HETATM   20  C11 UNL     1      58.708  27.991  14.985  1.00  0.00     0.007 A
HETATM   21  C12 UNL     1      59.068  28.815  13.940  1.00  0.00     0.013 A
ENDBRANCH  13  15
ENDBRANCH  10  12
ENDBRANCH   7  10
BRANCH   4  22
HETATM   22  N3  UNL     1      59.276  28.100   5.144  1.00  0.00    -0.138 N
ATOM     23  H3  UNL     1      58.617  27.360   4.900  1.00  0.00     0.205 HD
BRANCH  22  24
HETATM   24  N4  UNL     1      59.384  29.247   4.362  1.00  0.00    -0.331 N
ATOM     25  H42 UNL     1      60.222  29.825   4.419  1.00  0.00     0.177 HD
ATOM     26  H41 UNL     1      58.609  29.484   3.742  1.00  0.00     0.177 HD
ENDBRANCH  22  24
ENDBRANCH   4  22
BRANCH   1  27
HETATM   27  N1  UNL     1      63.457  27.555   7.023  1.00  0.00    -0.229 N
HETATM   28  C1  UNL     1      64.106  26.358   7.482  1.00  0.00     0.165 C
ATOM     29  H1  UNL     1      64.012  28.288   6.582  1.00  0.00     0.177 HD
ENDBRANCH   1  27
TORSDOF 6
ENDMDL