MODEL 5
REMARK VINA RESULT: -8.773663931      1.906      2.900
REMARK  9 active torsions:
REMARK  status: ('A' for Active; 'I' for Inactive)
REMARK    1  A    between atoms: O1_2  and  C2_3
REMARK    2  A    between atoms: C5_6  and  C6_7
REMARK    3  A    between atoms: C7_8  and  C8_9
REMARK    4  A    between atoms: C13_14  and  C14_15
REMARK    5  A    between atoms: C14_15  and  C15_20
REMARK    6  A    between atoms: N1_16  and  O2_18
REMARK    7  A    between atoms: C18_23  and  O3_24
REMARK    8  A    between atoms: C22_29  and  O4_30
REMARK    9  A    between atoms: O4_30  and  C23_31
ROOT
HETATM    1  C8  UNL     1      -2.152  28.613 -13.461  1.00  0.00     0.018 C
HETATM    2  C9  UNL     1      -0.757  29.029 -13.864  1.00  0.00     0.009 C
HETATM    3  C10 UNL     1      -0.502  28.877 -15.326  1.00  0.00     0.001 C
HETATM    4  C11 UNL     1      -1.285  27.825 -16.034  1.00  0.00     0.001 C
HETATM    5  C12 UNL     1      -2.764  27.804 -15.709  1.00  0.00     0.011 C
HETATM    6  C13 UNL     1      -3.001  28.900 -14.710  1.00  0.00     0.046 C
ENDROOT
BRANCH   1   7
HETATM    7  C7  UNL     1      -2.239  27.252 -12.976  1.00  0.00    -0.021 C
HETATM    8  C6  UNL     1      -2.457  26.823 -11.752  1.00  0.00     0.008 C
BRANCH   8   9
HETATM    9  C5  UNL     1      -2.531  25.423 -11.354  1.00  0.00    -0.034 A
HETATM   10  C4  UNL     1      -3.786  24.815 -11.256  1.00  0.00     0.014 A
HETATM   11  C3  UNL     1      -3.905  23.495 -10.886  1.00  0.00     0.040 A
HETATM   12  C2  UNL     1      -2.813  22.701 -10.594  1.00  0.00     0.101 A
HETATM   13  C22 UNL     1      -1.570  23.272 -10.683  1.00  0.00     0.103 A
HETATM   14  C21 UNL     1      -1.460  24.636 -11.065  1.00  0.00     0.051 A
BRANCH  12  15
HETATM   15  O1  UNL     1      -3.019  21.358 -10.224  1.00  0.00    -0.353 OA
HETATM   16  C1  UNL     1      -4.139  20.629 -10.613  1.00  0.00     0.210 C
ENDBRANCH  12  15
BRANCH  13  17
HETATM   17  O4  UNL     1      -0.450  22.587 -10.420  1.00  0.00    -0.343 OA
BRANCH  17  18
HETATM   18  C23 UNL     1       0.642  22.589  -9.642  1.00  0.00     0.129 C
HETATM   19  C24 UNL     1       1.833  23.348 -10.208  1.00  0.00     0.032 C
HETATM   20  C25 UNL     1       2.231  24.519  -9.341  1.00  0.00     0.002 C
HETATM   21  C26 UNL     1       2.636  24.128  -7.956  1.00  0.00     0.000 C
HETATM   22  C27 UNL     1       1.734  22.980  -7.501  1.00  0.00     0.002 C
HETATM   23  C28 UNL     1       0.427  23.167  -8.240  1.00  0.00     0.032 C
ENDBRANCH  17  18
ENDBRANCH  13  17
ENDBRANCH   8   9
ENDBRANCH   1   7
BRANCH   6  24
HETATM   24  C14 UNL     1      -4.450  29.068 -14.338  1.00  0.00     0.047 C
HETATM   25  N1  UNL     1      -5.005  28.222 -13.587  1.00  0.00    -0.272 N
ATOM     26  H1  UNL     1      -4.377  27.471 -13.296  1.00  0.00     0.194 HD
BRANCH  25  27
HETATM   27  O2  UNL     1      -6.212  28.101 -13.101  1.00  0.00    -0.290 OA
ATOM     28  H2  UNL     1      -7.081  28.163 -13.481  1.00  0.00     0.244 HD
ENDBRANCH  25  27
BRANCH  24  29
HETATM   29  C15 UNL     1      -5.168  30.179 -14.937  1.00  0.00    -0.011 A
HETATM   30  C16 UNL     1      -4.510  31.371 -15.266  1.00  0.00     0.016 A
HETATM   31  C17 UNL     1      -5.137  32.434 -15.870  1.00  0.00     0.037 A
HETATM   32  C18 UNL     1      -6.473  32.393 -16.195  1.00  0.00     0.065 A
HETATM   33  C19 UNL     1      -7.145  31.239 -15.884  1.00  0.00     0.037 A
HETATM   34  C20 UNL     1      -6.502  30.155 -15.267  1.00  0.00     0.016 A
BRANCH  32  35
HETATM   35  O3  UNL     1      -7.093  33.477 -16.807  1.00  0.00    -0.361 OA
ATOM     36  H3  UNL     1      -7.884  33.361 -17.319  1.00  0.00     0.217 HD
ENDBRANCH  32  35
ENDBRANCH  24  29
ENDBRANCH   6  24
TORSDOF 9
ENDMDL