MODEL 2
REMARK VINA RESULT: -9.129498009      1.906      3.107
REMARK  9 active torsions:
REMARK  status: ('A' for Active; 'I' for Inactive)
REMARK    1  A    between atoms: C2_2  and  C3_4
REMARK    2  A    between atoms: C3_4  and  C14_15
REMARK    3  A    between atoms: C4_5  and  C5_6
REMARK    4  A    between atoms: C6_7  and  C8_9
REMARK    5  A    between atoms: C8_9  and  C9_10
REMARK    6  A    between atoms: C9_10  and  C10_11
REMARK    7  A    between atoms: C15_16  and  O2_17
REMARK    8  A    between atoms: C16_19  and  O3_20
REMARK    9  A    between atoms: N1_22  and  C17_23
ROOT
HETATM    1  C14 UNL     1      -2.478  22.714 -10.312  1.00  0.00     0.038 A
HETATM    2  C15 UNL     1      -3.476  21.933 -10.853  1.00  0.00     0.130 A
HETATM    3  C16 UNL     1      -3.448  20.728 -10.173  1.00  0.00     0.180 A
HETATM    4  N1  UNL     1      -2.448  20.775  -9.232  1.00  0.00    -0.295 N
HETATM    5  C26 UNL     1      -1.860  22.000  -9.323  1.00  0.00     0.027 A
HETATM    6  C27 UNL     1      -0.822  22.426  -8.392  1.00  0.00     0.069 C
ENDROOT
BRANCH   1   7
HETATM    7  C3  UNL     1      -2.220  24.148 -10.643  1.00  0.00     0.024 C
HETATM    8  C4  UNL     1      -3.218  24.908 -10.962  1.00  0.00     0.016 C
BRANCH   7   9
HETATM    9  C2  UNL     1      -0.860  24.624 -10.712  1.00  0.00     0.156 C
HETATM   10  C1  UNL     1      -0.154  25.594  -9.893  1.00  0.00     0.097 C
HETATM   11  O1  UNL     1      -0.128  24.112 -11.656  1.00  0.00    -0.293 OA
ENDBRANCH   7   9
BRANCH   8  12
HETATM   12  C5  UNL     1      -3.353  26.246 -11.421  1.00  0.00     0.003 C
HETATM   13  C6  UNL     1      -4.310  26.558 -12.349  1.00  0.00    -0.084 C
HETATM   14  C7  UNL     1      -5.184  25.466 -12.845  1.00  0.00     0.043 C
BRANCH  13  15
HETATM   15  C8  UNL     1      -4.470  27.921 -12.838  1.00  0.00     0.037 C
BRANCH  15  16
HETATM   16  C9  UNL     1      -5.883  28.246 -13.263  1.00  0.00     0.031 C
BRANCH  16  17
HETATM   17  C10 UNL     1      -5.823  29.496 -14.107  1.00  0.00    -0.024 C
HETATM   18  C11 UNL     1      -6.877  29.898 -14.788  1.00  0.00    -0.091 C
HETATM   19  C12 UNL     1      -8.129  29.113 -14.719  1.00  0.00     0.042 C
HETATM   20  C13 UNL     1      -6.819  31.116 -15.611  1.00  0.00     0.042 C
ENDBRANCH  16  17
ENDBRANCH  15  16
ENDBRANCH  13  15
ENDBRANCH   8  12
ENDBRANCH   1   7
BRANCH   2  21
HETATM   21  O2  UNL     1      -4.320  22.304 -11.875  1.00  0.00    -0.356 OA
ATOM     22  H2  UNL     1      -4.132  22.232 -12.803  1.00  0.00     0.218 HD
ENDBRANCH   2  21
BRANCH   3  23
HETATM   23  O3  UNL     1      -4.325  19.703 -10.463  1.00  0.00    -0.344 OA
ATOM     24  H3  UNL     1      -4.166  19.088 -11.169  1.00  0.00     0.219 HD
ENDBRANCH   3  23
BRANCH   4  25
HETATM   25  C17 UNL     1      -2.201  19.632  -8.429  1.00  0.00     0.143 C
HETATM   26  C18 UNL     1      -1.480  18.635  -9.370  1.00  0.00     0.066 C
HETATM   27  C19 UNL     1      -1.320  17.284  -8.775  1.00  0.00    -0.007 C
HETATM   28  C20 UNL     1      -0.480  17.422  -7.507  1.00  0.00     0.009 C
HETATM   29  C24 UNL     1      -2.685  16.740  -8.440  1.00  0.00     0.037 C
HETATM   30  C21 UNL     1      -1.252  18.330  -6.602  1.00  0.00    -0.007 C
HETATM   31  C22 UNL     1      -2.634  17.858  -6.283  1.00  0.00     0.037 C
HETATM   32  C25 UNL     1      -1.380  19.739  -7.226  1.00  0.00     0.066 C
HETATM   33  C23 UNL     1      -3.378  17.787  -7.608  1.00  0.00     0.125 C
HETATM   34  O4  UNL     1      -3.447  19.020  -8.178  1.00  0.00    -0.355 OA
ENDBRANCH   4  25
TORSDOF 9
ENDMDL