MODEL 5
REMARK VINA RESULT: -10.144681152      1.427      2.804
REMARK  10 active torsions:
REMARK  status: ('A' for Active; 'I' for Inactive)
REMARK    1  A    between atoms: C6_6  and  C8_8
REMARK    2  A    between atoms: C8_8  and  O1_9
REMARK    3  A    between atoms: O1_9  and  C9_10
REMARK    4  A    between atoms: C9_10  and  C10_12
REMARK    5  A    between atoms: C10_12  and  C11_13
REMARK    6  A    between atoms: C11_13  and  C12_14
REMARK    7  A    between atoms: C12_14  and  C13_15
REMARK    8  A    between atoms: C13_15  and  C14_16
REMARK    9  A    between atoms: C18_20  and  O3_21
REMARK   10  A    between atoms: C19_24  and  O5_25
ROOT
HETATM    1  C9  UNL     1      -4.185  25.694 -11.940  1.00  0.00     0.258 C
HETATM    2  O2  UNL     1      -5.000  25.358 -12.822  1.00  0.00    -0.265 OA
ENDROOT
BRANCH   1   3
HETATM    3  O1  UNL     1      -3.976  24.870 -10.925  1.00  0.00    -0.321 OA
BRANCH   3   4
HETATM    4  C8  UNL     1      -3.730  23.625 -10.536  1.00  0.00     0.188 C
BRANCH   4   5
HETATM    5  C6  UNL     1      -2.418  23.146 -10.009  1.00  0.00    -0.018 C
HETATM    6  C5  UNL     1      -1.251  24.025 -10.293  1.00  0.00     0.004 C
HETATM    7  C4  UNL     1      -1.008  24.169 -11.783  1.00  0.00     0.010 C
HETATM    8  C25 UNL     1       0.003  23.589  -9.573  1.00  0.00    -0.036 C
HETATM    9  C3  UNL     1       0.243  24.973 -12.075  1.00  0.00     0.034 C
HETATM   10  C2  UNL     1       1.432  24.309 -11.467  1.00  0.00    -0.088 C
HETATM   11  C1  UNL     1       2.664  24.648 -11.722  1.00  0.00     0.014 C
HETATM   12  C27 UNL     1       1.140  23.210 -10.528  1.00  0.00     0.042 C
HETATM   13  C24 UNL     1      -0.153  22.452  -8.634  1.00  0.00     0.010 C
HETATM   14  C26 UNL     1       0.544  24.781  -8.791  1.00  0.00     0.016 C
HETATM   15  C23 UNL     1      -1.402  22.453  -7.820  1.00  0.00     0.002 C
HETATM   16  C22 UNL     1      -2.571  23.105  -8.492  1.00  0.00     0.012 C
HETATM   17  C7  UNL     1      -2.220  21.732 -10.545  1.00  0.00     0.018 C
ENDBRANCH   4   5
ENDBRANCH   3   4
ENDBRANCH   1   3
BRANCH   1  18
HETATM   18  C10 UNL     1      -3.489  27.025 -12.088  1.00  0.00     0.111 C
BRANCH  18  19
HETATM   19  C11 UNL     1      -3.612  27.495 -13.507  1.00  0.00     0.010 C
BRANCH  19  20
HETATM   20  C12 UNL     1      -3.293  28.903 -13.786  1.00  0.00     0.001 C
BRANCH  20  21
HETATM   21  C13 UNL     1      -4.347  29.930 -13.784  1.00  0.00     0.005 C
BRANCH  21  22
HETATM   22  C14 UNL     1      -5.557  29.779 -14.626  1.00  0.00    -0.010 C
HETATM   23  C15 UNL     1      -6.728  29.518 -13.649  1.00  0.00     0.009 C
HETATM   24  C16 UNL     1      -7.909  28.992 -14.470  1.00  0.00     0.044 C
HETATM   25  C17 UNL     1      -8.300  30.067 -15.456  1.00  0.00     0.011 A
HETATM   26  C18 UNL     1      -9.478  30.416 -16.077  1.00  0.00     0.192 A
HETATM   27  C20 UNL     1      -7.358  30.943 -15.894  1.00  0.00     0.012 A
HETATM   28  O4  UNL     1      -9.236  31.451 -16.845  1.00  0.00    -0.264 OA
HETATM   29  C19 UNL     1      -7.972  31.803 -16.766  1.00  0.00     0.192 A
HETATM   30  C21 UNL     1      -5.912  30.932 -15.473  1.00  0.00     0.049 C
BRANCH  26  31
HETATM   31  O3  UNL     1     -10.711  29.761 -15.902  1.00  0.00    -0.340 OA
ATOM     32  H3  UNL     1     -11.539  30.045 -16.273  1.00  0.00     0.220 HD
ENDBRANCH  26  31
BRANCH  29  33
HETATM   33  O5  UNL     1      -7.438  32.876 -17.481  1.00  0.00    -0.340 OA
ATOM     34  H5  UNL     1      -7.059  33.638 -17.060  1.00  0.00     0.220 HD
ENDBRANCH  29  33
ENDBRANCH  21  22
ENDBRANCH  20  21
ENDBRANCH  19  20
ENDBRANCH  18  19
ENDBRANCH   1  18
TORSDOF 10
ENDMDL