MODEL 5
REMARK VINA RESULT: -8.315212349      1.244      1.872
REMARK  9 active torsions:
REMARK  status: ('A' for Active; 'I' for Inactive)
REMARK    1  A    between atoms: C2_2  and  C3_3
REMARK    2  A    between atoms: C2_2  and  C9_9
REMARK    3  A    between atoms: C3_3  and  C4_4
REMARK    4  A    between atoms: C4_4  and  C5_5
REMARK    5  A    between atoms: C9_9  and  C10_10
REMARK    6  A    between atoms: C10_10  and  C12_12
REMARK    7  A    between atoms: C17_20  and  O4_21
REMARK    8  A    between atoms: C19_24  and  O5_25
REMARK    9  A    between atoms: C22_29  and  C23_30
ROOT
HETATM    1  C12 UNL     1      -2.857  29.060 -14.840  1.00  0.00     0.005 C
HETATM    2  C13 UNL     1      -3.193  27.818 -15.790  1.00  0.00     0.023 C
HETATM    3  C14 UNL     1      -1.606  29.527 -15.379  1.00  0.00     0.193 C
HETATM    4  O1  UNL     1      -0.857  30.703 -15.280  1.00  0.00    -0.315 OA
HETATM    5  C15 UNL     1      -0.899  31.684 -16.435  1.00  0.00     0.320 C
HETATM    6  O2  UNL     1       0.043  32.251 -16.891  1.00  0.00    -0.257 OA
HETATM    7  C16 UNL     1      -2.320  31.820 -16.916  1.00  0.00     0.187 A
HETATM    8  O3  UNL     1      -2.619  31.299 -18.117  1.00  0.00    -0.278 OA
HETATM    9  C17 UNL     1      -3.876  31.404 -18.342  1.00  0.00     0.193 A
HETATM   10  C18 UNL     1      -4.435  32.024 -17.239  1.00  0.00     0.036 A
HETATM   11  C19 UNL     1      -3.431  32.335 -16.326  1.00  0.00     0.117 A
HETATM   12  C20 UNL     1      -5.898  31.753 -16.969  1.00  0.00     0.047 C
HETATM   13  C21 UNL     1      -5.984  30.485 -16.103  1.00  0.00     0.014 C
HETATM   14  C22 UNL     1      -5.282  30.286 -14.867  1.00  0.00     0.018 C
HETATM   15  C26 UNL     1      -4.080  29.648 -14.381  1.00  0.00     0.004 C
HETATM   16  C27 UNL     1      -3.695  30.370 -13.038  1.00  0.00     0.012 C
ENDROOT
BRANCH   1  17
HETATM   17  C10 UNL     1      -2.441  28.163 -13.578  1.00  0.00    -0.075 C
HETATM   18  C11 UNL     1      -1.539  28.692 -12.761  1.00  0.00     0.015 C
BRANCH  17  19
HETATM   19  C9  UNL     1      -3.076  26.892 -13.475  1.00  0.00     0.067 C
BRANCH  19  20
HETATM   20  C2  UNL     1      -3.369  26.318 -12.124  1.00  0.00    -0.085 C
HETATM   21  C1  UNL     1      -4.378  26.581 -11.359  1.00  0.00     0.014 C
BRANCH  20  22
HETATM   22  C3  UNL     1      -2.363  25.323 -11.692  1.00  0.00     0.037 C
BRANCH  22  23
HETATM   23  C4  UNL     1      -1.142  25.778 -11.001  1.00  0.00     0.031 C
BRANCH  23  24
HETATM   24  C5  UNL     1       0.049  24.968 -11.224  1.00  0.00    -0.024 C
HETATM   25  C6  UNL     1       0.791  24.875 -12.297  1.00  0.00    -0.091 C
HETATM   26  C7  UNL     1       2.001  23.970 -12.325  1.00  0.00     0.042 C
HETATM   27  C8  UNL     1       0.469  25.613 -13.540  1.00  0.00     0.042 C
ENDBRANCH  23  24
ENDBRANCH  22  23
ENDBRANCH  20  22
ENDBRANCH  19  20
ENDBRANCH  17  19
ENDBRANCH   1  17
BRANCH  14  28
HETATM   28  C23 UNL     1      -6.361  29.507 -13.999  1.00  0.00    -0.089 C
HETATM   29  C24 UNL     1      -7.372  30.215 -13.577  1.00  0.00     0.014 C
HETATM   30  C25 UNL     1      -6.255  28.109 -13.656  1.00  0.00     0.043 C
ENDBRANCH  14  28
BRANCH  11  31
HETATM   31  O5  UNL     1      -3.657  33.075 -15.091  1.00  0.00    -0.357 OA
ATOM     32  H5  UNL     1      -3.638  33.999 -14.873  1.00  0.00     0.217 HD
ENDBRANCH  11  31
BRANCH   9  33
HETATM   33  O4  UNL     1      -4.535  30.951 -19.527  1.00  0.00    -0.340 OA
ATOM     34  H4  UNL     1      -4.831  31.516 -20.233  1.00  0.00     0.220 HD
ENDBRANCH   9  33
TORSDOF 9
ENDMDL