MODEL 4
REMARK VINA RESULT: -7.915969410      1.065      1.289
REMARK  10 active torsions:
REMARK  status: ('A' for Active; 'I' for Inactive)
REMARK    1  A    between atoms: C6_6  and  C8_8
REMARK    2  A    between atoms: C8_8  and  O1_9
REMARK    3  A    between atoms: C14_16  and  C15_17
REMARK    4  A    between atoms: C15_17  and  C16_18
REMARK    5  A    between atoms: C16_18  and  C17_19
REMARK    6  A    between atoms: C17_19  and  C19_21
REMARK    7  A    between atoms: C20_23  and  O3_24
REMARK    8  A    between atoms: C21_26  and  C22_27
REMARK    9  A    between atoms: C22_27  and  C23_28
REMARK   10  A    between atoms: C27_33  and  O4_34
ROOT
HETATM    1  C23 UNL     1      -2.860  19.989  -9.044  1.00  0.00    -0.004 C
HETATM    2  C24 UNL     1      -2.690  18.854  -8.446  1.00  0.00     0.015 C
HETATM    3  C25 UNL     1      -3.275  17.624  -9.088  1.00  0.00     0.060 C
HETATM    4  C26 UNL     1      -1.990  18.691  -7.218  1.00  0.00     0.094 C
HETATM    5  N1  UNL     1      -1.392  18.544  -6.211  1.00  0.00    -0.192 NA
ENDROOT
BRANCH   1   6
HETATM    6  C22 UNL     1      -2.425  21.337  -8.676  1.00  0.00     0.075 C
BRANCH   6   7
HETATM    7  C21 UNL     1      -2.192  22.252  -9.820  1.00  0.00     0.039 A
HETATM    8  C20 UNL     1      -2.923  22.556 -10.928  1.00  0.00     0.193 A
HETATM    9  O2  UNL     1      -2.320  23.490 -11.616  1.00  0.00    -0.289 OA
HETATM   10  C19 UNL     1      -1.191  23.844 -11.009  1.00  0.00     0.093 A
HETATM   11  C27 UNL     1      -1.059  23.099  -9.885  1.00  0.00     0.109 A
BRANCH   8  12
HETATM   12  O3  UNL     1      -4.143  21.946 -11.272  1.00  0.00    -0.340 OA
ATOM     13  H3  UNL     1      -4.810  21.662 -10.658  1.00  0.00     0.220 HD
ENDBRANCH   8  12
BRANCH  10  14
HETATM   14  C17 UNL     1      -0.291  24.890 -11.497  1.00  0.00     0.042 C
HETATM   15  C18 UNL     1       1.150  24.574 -11.538  1.00  0.00     0.017 C
BRANCH  14  16
HETATM   16  C16 UNL     1      -0.849  25.532 -12.760  1.00  0.00     0.015 C
BRANCH  16  17
HETATM   17  C15 UNL     1      -1.516  26.870 -12.463  1.00  0.00     0.036 C
BRANCH  17  18
HETATM   18  C14 UNL     1      -2.901  26.914 -12.988  1.00  0.00    -0.066 C
HETATM   19  C2  UNL     1      -3.919  26.527 -12.048  1.00  0.00    -0.064 C
HETATM   20  C1  UNL     1      -3.920  26.402 -10.754  1.00  0.00     0.019 C
HETATM   21  C3  UNL     1      -5.252  26.225 -12.750  1.00  0.00     0.038 C
HETATM   22  C4  UNL     1      -5.627  27.617 -13.206  1.00  0.00     0.011 C
HETATM   23  C5  UNL     1      -4.682  28.243 -14.183  1.00  0.00     0.008 C
HETATM   24  C6  UNL     1      -5.126  29.657 -14.387  1.00  0.00    -0.018 C
HETATM   25  C12 UNL     1      -3.219  28.081 -13.901  1.00  0.00    -0.016 C
HETATM   26  C7  UNL     1      -6.652  29.724 -14.138  1.00  0.00     0.018 C
HETATM   27  C9  UNL     1      -4.542  30.682 -13.490  1.00  0.00     0.012 C
HETATM   28  C10 UNL     1      -3.406  30.223 -12.621  1.00  0.00     0.002 C
HETATM   29  C11 UNL     1      -2.534  29.358 -13.482  1.00  0.00     0.014 C
HETATM   30  C13 UNL     1      -2.553  27.721 -15.249  1.00  0.00     0.020 C
BRANCH  24  31
HETATM   31  C8  UNL     1      -5.064  30.102 -15.857  1.00  0.00     0.173 C
BRANCH  31  32
HETATM   32  O1  UNL     1      -6.004  31.063 -16.155  1.00  0.00    -0.400 OA
ATOM     33  H1  UNL     1      -5.704  31.669 -16.822  1.00  0.00     0.209 HD
ENDBRANCH  31  32
ENDBRANCH  24  31
ENDBRANCH  17  18
ENDBRANCH  16  17
ENDBRANCH  14  16
ENDBRANCH  10  14
BRANCH  11  34
HETATM   34  O4  UNL     1      -0.076  23.032  -8.885  1.00  0.00    -0.353 OA
HETATM   35  C28 UNL     1       1.011  22.114  -8.996  1.00  0.00     0.210 C
ENDBRANCH  11  34
ENDBRANCH   6   7
ENDBRANCH   1   6
TORSDOF 10
ENDMDL