MODEL 4
REMARK VINA RESULT: -8.377875617      3.397      4.593
REMARK  8 active torsions:
REMARK  status: ('A' for Active; 'I' for Inactive)
REMARK    1  A    between atoms: C4_4  and  C5_5
REMARK    2  A    between atoms: C5_5  and  C6_6
REMARK    3  A    between atoms: C6_6  and  C7_7
REMARK    4  A    between atoms: C7_7  and  C25_28
REMARK    5  A    between atoms: C8_8  and  C9_9
REMARK    6  A    between atoms: C22_23  and  O2_25
REMARK    7  A    between atoms: C25_28  and  C26_29
REMARK    8  A    between atoms: C26_29  and  S1_30
ROOT
HETATM    1  C9  UNL     1      -0.283  24.828 -10.790  1.00  0.00     0.012 C
HETATM    2  C10 UNL     1       0.730  24.925 -11.916  1.00  0.00     0.010 C
HETATM    3  C11 UNL     1       1.618  23.683 -11.747  1.00  0.00     0.015 C
HETATM    4  C12 UNL     1       2.609  24.045 -10.662  1.00  0.00    -0.016 C
HETATM    5  C13 UNL     1       3.606  24.996 -11.238  1.00  0.00     0.020 C
HETATM    6  C14 UNL     1       1.862  24.604  -9.517  1.00  0.00    -0.074 C
HETATM    7  C15 UNL     1       2.542  24.682  -8.362  1.00  0.00    -0.022 C
HETATM    8  C16 UNL     1       3.957  24.223  -8.289  1.00  0.00     0.040 C
HETATM    9  C17 UNL     1       4.153  22.912  -9.022  1.00  0.00     0.002 C
HETATM   10  C18 UNL     1       5.590  22.805  -9.446  1.00  0.00     0.019 C
HETATM   11  C19 UNL     1       3.290  22.771 -10.227  1.00  0.00     0.017 C
HETATM   12  C20 UNL     1       2.289  21.701  -9.890  1.00  0.00     0.088 C
HETATM   13  C21 UNL     1       3.006  20.883  -8.893  1.00  0.00     0.161 C
HETATM   14  O1  UNL     1       2.976  19.687  -8.789  1.00  0.00    -0.295 OA
HETATM   15  C22 UNL     1       3.765  21.813  -8.048  1.00  0.00     0.122 C
HETATM   16  C23 UNL     1       4.914  21.218  -7.313  1.00  0.00     0.055 C
HETATM   17  C24 UNL     1       0.475  25.075  -9.506  1.00  0.00     0.043 C
ENDROOT
BRANCH   1  18
HETATM   18  C8  UNL     1      -1.404  25.756 -10.968  1.00  0.00    -0.019 C
HETATM   19  C7  UNL     1      -2.641  25.385 -11.165  1.00  0.00    -0.082 C
BRANCH  19  20
HETATM   20  C6  UNL     1      -3.641  26.540 -11.323  1.00  0.00     0.037 C
BRANCH  20  21
HETATM   21  C5  UNL     1      -4.608  26.119 -12.348  1.00  0.00     0.031 C
BRANCH  21  22
HETATM   22  C4  UNL     1      -5.620  27.059 -12.813  1.00  0.00    -0.024 C
HETATM   23  C2  UNL     1      -5.554  28.176 -13.475  1.00  0.00    -0.091 C
HETATM   24  C1  UNL     1      -6.837  28.931 -13.808  1.00  0.00     0.042 C
HETATM   25  C3  UNL     1      -4.313  28.803 -13.931  1.00  0.00     0.042 C
ENDBRANCH  21  22
ENDBRANCH  20  21
ENDBRANCH  19  20
BRANCH  19  26
HETATM   26  C25 UNL     1      -3.194  24.028 -11.266  1.00  0.00     0.045 C
BRANCH  26  27
HETATM   27  C26 UNL     1      -3.340  23.344  -9.912  1.00  0.00     0.091 C
BRANCH  27  28
HETATM   28  S1  UNL     1      -2.245  21.878  -9.882  1.00  0.00    -0.085 SA
HETATM   29  S2  UNL     1      -1.105  21.792  -8.107  1.00  0.00    -0.013 SA
ENDBRANCH  27  28
ENDBRANCH  26  27
ENDBRANCH  19  26
ENDBRANCH   1  18
BRANCH  15  30
HETATM   30  O2  UNL     1       2.872  22.332  -7.095  1.00  0.00    -0.382 OA
ATOM     31  H2  UNL     1       3.210  22.163  -6.223  1.00  0.00     0.211 HD
ENDBRANCH  15  30
TORSDOF 8
ENDMDL