MODEL 1
REMARK VINA RESULT: -7.417909870      0.000      0.000
REMARK  10 active torsions:
REMARK  status: ('A' for Active; 'I' for Inactive)
REMARK    1  A    between atoms: C2_2  and  C3_3
REMARK    2  A    between atoms: C3_3  and  C4_4
REMARK    3  A    between atoms: C4_4  and  C5_5
REMARK    4  A    between atoms: C5_5  and  O1_6
REMARK    5  A    between atoms: C19_21  and  O2_22
REMARK    6  A    between atoms: O2_22  and  C20_23
REMARK    7  A    between atoms: C20_23  and  C21_25
REMARK    8  A    between atoms: C21_25  and  C22_26
REMARK    9  A    between atoms: C22_26  and  C23_27
REMARK   10  A    between atoms: C23_27  and  N1_28
ROOT
HETATM    1  C5  UNL     1      -0.732  24.959 -10.471  1.00  0.00     0.088 C
HETATM    2  C6  UNL     1      -1.784  24.137  -9.765  1.00  0.00     0.041 C
HETATM    3  C7  UNL     1      -2.712  23.383 -10.631  1.00  0.00     0.003 C
HETATM    4  C8  UNL     1      -2.508  21.861 -10.573  1.00  0.00     0.000 C
HETATM    5  C9  UNL     1      -2.880  21.350  -9.224  1.00  0.00     0.000 C
HETATM    6  C10 UNL     1      -2.386  19.978  -8.926  1.00  0.00     0.000 C
HETATM    7  C11 UNL     1      -0.913  19.793  -9.015  1.00  0.00     0.000 C
HETATM    8  C12 UNL     1      -0.124  20.480  -7.945  1.00  0.00     0.000 C
HETATM    9  C13 UNL     1       0.959  21.311  -8.648  1.00  0.00     0.000 C
HETATM   10  C14 UNL     1       1.425  22.442  -7.776  1.00  0.00     0.004 C
HETATM   11  C15 UNL     1       1.400  23.800  -8.496  1.00  0.00     0.037 C
HETATM   12  C16 UNL     1       1.380  23.622  -9.934  1.00  0.00    -0.046 C
HETATM   13  C17 UNL     1       2.459  23.219 -10.498  1.00  0.00    -0.070 C
HETATM   14  C18 UNL     1       3.793  22.905 -10.050  1.00  0.00     0.067 C
HETATM   15  C19 UNL     1       4.582  24.066 -10.889  1.00  0.00     0.138 C
HETATM   16  C24 UNL     1       3.574  25.097 -11.352  1.00  0.00     0.065 C
HETATM   17  C25 UNL     1       2.410  24.624 -12.188  1.00  0.00     0.129 C
HETATM   18  C26 UNL     1       2.380  23.056 -12.028  1.00  0.00     0.066 C
HETATM   19  O4  UNL     1       1.216  25.059 -11.700  1.00  0.00    -0.373 OA
HETATM   20  C27 UNL     1       0.414  24.118 -10.960  1.00  0.00     0.185 C
ENDROOT
BRANCH  15  21
HETATM   21  O2  UNL     1       5.528  24.472 -10.017  1.00  0.00    -0.316 OA
BRANCH  21  22
HETATM   22  C20 UNL     1       5.468  25.511  -9.105  1.00  0.00     0.259 C
HETATM   23  O3  UNL     1       5.254  25.172  -7.927  1.00  0.00    -0.265 OA
BRANCH  22  24
HETATM   24  C21 UNL     1       5.643  26.932  -9.481  1.00  0.00     0.113 C
BRANCH  24  25
HETATM   25  C22 UNL     1       6.694  27.530  -8.586  1.00  0.00     0.037 C
BRANCH  25  26
HETATM   26  C23 UNL     1       6.102  28.582  -7.660  1.00  0.00     0.230 C
BRANCH  26  27
HETATM   27  N1  UNL     1       5.808  27.950  -6.405  1.00  0.00    -0.079 N
ATOM     28  H13 UNL     1       5.295  27.076  -6.514  1.00  0.00     0.274 HD
ATOM     29  H12 UNL     1       6.638  27.566  -5.953  1.00  0.00     0.274 HD
ATOM     30  H11 UNL     1       5.317  28.628  -5.821  1.00  0.00     0.274 HD
ENDBRANCH  26  27
ENDBRANCH  25  26
ENDBRANCH  24  25
ENDBRANCH  22  24
ENDBRANCH  21  22
ENDBRANCH  15  21
BRANCH   1  31
HETATM   31  C4  UNL     1      -1.299  25.577 -11.734  1.00  0.00     0.041 C
BRANCH  31  32
HETATM   32  C3  UNL     1      -2.158  26.748 -11.629  1.00  0.00     0.003 C
BRANCH  32  33
HETATM   33  C2  UNL     1      -3.378  26.786 -12.498  1.00  0.00    -0.004 C
HETATM   34  C1  UNL     1      -4.607  26.309 -11.713  1.00  0.00     0.005 C
ENDBRANCH  32  33
ENDBRANCH  31  32
ENDBRANCH   1  31
BRANCH   1  35
HETATM   35  O1  UNL     1      -0.358  26.029  -9.678  1.00  0.00    -0.387 OA
ATOM     36  H1  UNL     1      -0.367  25.696  -8.788  1.00  0.00     0.210 HD
ENDBRANCH   1  35
TORSDOF 10
ENDMDL