MODEL 4
REMARK VINA RESULT: -8.874547895      1.179      1.505
REMARK  9 active torsions:
REMARK  status: ('A' for Active; 'I' for Inactive)
REMARK    1  A    between atoms: C2_2  and  C21_27
REMARK    2  A    between atoms: C3_3  and  C4_4
REMARK    3  A    between atoms: C4_4  and  C5_5
REMARK    4  A    between atoms: C18_19  and  O2_20
REMARK    5  A    between atoms: C19_23  and  O4_24
REMARK    6  A    between atoms: C21_27  and  C22_29
REMARK    7  A    between atoms: C22_29  and  C23_30
REMARK    8  A    between atoms: C23_30  and  C24_31
REMARK    9  A    between atoms: C24_31  and  C25_32
ROOT
HETATM    1  C5  UNL     1      -0.313  24.749 -10.585  1.00  0.00    -0.008 C
HETATM    2  C6  UNL     1      -0.879  24.305 -11.884  1.00  0.00     0.018 C
HETATM    3  C7  UNL     1       1.176  24.998 -10.648  1.00  0.00     0.026 C
HETATM    4  C8  UNL     1       1.857  24.118 -11.661  1.00  0.00     0.014 C
HETATM    5  C9  UNL     1       1.583  24.722  -9.230  1.00  0.00     0.165 C
HETATM    6  O1  UNL     1       0.381  24.670  -8.483  1.00  0.00    -0.373 OA
HETATM    7  C10 UNL     1      -0.530  24.028  -9.366  1.00  0.00     0.144 C
HETATM    8  C11 UNL     1      -0.297  22.571  -9.185  1.00  0.00     0.019 C
HETATM    9  C12 UNL     1      -0.697  22.353  -7.704  1.00  0.00     0.017 C
HETATM   10  C13 UNL     1      -2.185  22.078  -7.678  1.00  0.00     0.001 C
HETATM   11  C14 UNL     1      -2.290  20.601  -8.068  1.00  0.00     0.000 C
HETATM   12  C15 UNL     1      -1.775  20.495  -9.465  1.00  0.00     0.001 C
HETATM   13  C16 UNL     1      -1.117  21.688 -10.034  1.00  0.00     0.017 C
HETATM   14  C17 UNL     1       1.171  22.294  -9.200  1.00  0.00     0.025 A
HETATM   15  C18 UNL     1       1.962  21.161  -9.193  1.00  0.00     0.193 A
HETATM   16  O3  UNL     1       3.247  21.513  -9.203  1.00  0.00    -0.264 OA
HETATM   17  C19 UNL     1       3.376  22.813  -9.217  1.00  0.00     0.195 A
HETATM   18  C20 UNL     1       2.111  23.334  -9.215  1.00  0.00     0.041 A
ENDROOT
BRANCH   1  19
HETATM   19  C4  UNL     1      -0.922  26.134 -10.323  1.00  0.00     0.040 C
BRANCH  19  20
HETATM   20  C3  UNL     1      -1.229  26.885 -11.529  1.00  0.00    -0.015 C
HETATM   21  C2  UNL     1      -2.429  27.087 -12.022  1.00  0.00    -0.020 C
HETATM   22  C1  UNL     1      -3.662  26.555 -11.387  1.00  0.00     0.052 C
BRANCH  21  23
HETATM   23  C21 UNL     1      -2.562  27.880 -13.264  1.00  0.00     0.154 C
HETATM   24  O5  UNL     1      -1.621  28.614 -13.633  1.00  0.00    -0.293 OA
BRANCH  23  25
HETATM   25  C22 UNL     1      -3.790  27.803 -14.051  1.00  0.00     0.083 C
BRANCH  25  26
HETATM   26  C23 UNL     1      -4.701  28.960 -13.784  1.00  0.00     0.008 C
BRANCH  26  27
HETATM   27  C24 UNL     1      -6.140  28.597 -13.607  1.00  0.00     0.004 C
BRANCH  27  28
HETATM   28  C25 UNL     1      -6.970  29.738 -14.178  1.00  0.00    -0.023 C
HETATM   29  C26 UNL     1      -8.272  29.257 -14.761  1.00  0.00     0.009 C
HETATM   30  C27 UNL     1      -6.147  30.432 -15.238  1.00  0.00     0.009 C
ENDBRANCH  27  28
ENDBRANCH  26  27
ENDBRANCH  25  26
ENDBRANCH  23  25
ENDBRANCH  21  23
ENDBRANCH  19  20
ENDBRANCH   1  19
BRANCH  17  31
HETATM   31  O4  UNL     1       4.579  23.497  -9.229  1.00  0.00    -0.340 OA
ATOM     32  H4  UNL     1       4.681  24.425  -9.404  1.00  0.00     0.220 HD
ENDBRANCH  17  31
BRANCH  15  33
HETATM   33  O2  UNL     1       1.584  19.848  -9.178  1.00  0.00    -0.340 OA
ATOM     34  H2  UNL     1       1.033  19.378  -9.792  1.00  0.00     0.220 HD
ENDBRANCH  15  33
TORSDOF 9
ENDMDL