MODEL 5
REMARK VINA RESULT: -8.646509383      1.998      3.920
REMARK  9 active torsions:
REMARK  status: ('A' for Active; 'I' for Inactive)
REMARK    1  A    between atoms: C8_8  and  O1_11
REMARK    2  A    between atoms: O1_11  and  C10_12
REMARK    3  A    between atoms: C10_12  and  C11_13
REMARK    4  A    between atoms: C11_13  and  C12_14
REMARK    5  A    between atoms: C12_14  and  C13_15
REMARK    6  A    between atoms: C13_15  and  C14_16
REMARK    7  A    between atoms: C14_16  and  N2_17
REMARK    8  A    between atoms: C15_18  and  O2_19
REMARK    9  A    between atoms: C18_23  and  O3_24
ROOT
HETATM    1  C1  UNL     1       4.794  23.946 -11.041  1.00  0.00     0.011 C
HETATM    2  C2  UNL     1       3.568  23.908 -10.111  1.00  0.00    -0.010 C
HETATM    3  C3  UNL     1       2.603  24.934 -10.665  1.00  0.00    -0.010 C
HETATM    4  C4  UNL     1       2.325  24.302 -12.039  1.00  0.00     0.005 C
HETATM    5  C5  UNL     1       2.436  22.820 -11.827  1.00  0.00     0.005 C
HETATM    6  C6  UNL     1       2.861  22.639 -10.358  1.00  0.00    -0.007 C
HETATM    7  C7  UNL     1       1.706  22.290  -9.531  1.00  0.00     0.058 C
HETATM    8  C8  UNL     1       1.548  23.025  -8.236  1.00  0.00     0.149 C
HETATM    9  C9  UNL     1       2.678  22.578  -7.371  1.00  0.00     0.098 C
HETATM   10  N1  UNL     1       3.575  22.235  -6.709  1.00  0.00    -0.194 NA
HETATM   11  C26 UNL     1       1.565  24.523  -8.407  1.00  0.00     0.054 C
HETATM   12  C27 UNL     1       1.376  24.972  -9.818  1.00  0.00     0.009 C
ENDROOT
BRANCH   8  13
HETATM   13  O1  UNL     1       0.437  22.666  -7.540  1.00  0.00    -0.365 OA
BRANCH  13  14
HETATM   14  C10 UNL     1      -0.494  21.882  -8.146  1.00  0.00     0.170 C
BRANCH  14  15
HETATM   15  C11 UNL     1      -1.575  22.791  -8.684  1.00  0.00     0.026 C
BRANCH  15  16
HETATM   16  C12 UNL     1      -2.176  22.358  -9.973  1.00  0.00     0.004 C
BRANCH  16  17
HETATM   17  C13 UNL     1      -2.177  23.479 -10.976  1.00  0.00     0.020 C
BRANCH  17  18
HETATM   18  C14 UNL     1      -3.178  24.568 -10.659  1.00  0.00     0.133 C
BRANCH  18  19
HETATM   19  N2  UNL     1      -3.147  25.675 -11.571  1.00  0.00    -0.308 N
HETATM   20  C15 UNL     1      -2.235  26.666 -11.529  1.00  0.00     0.151 A
HETATM   21  C16 UNL     1      -2.487  27.550 -12.536  1.00  0.00     0.009 A
HETATM   22  C17 UNL     1      -3.591  27.085 -13.220  1.00  0.00     0.009 A
HETATM   23  C22 UNL     1      -2.060  28.809 -13.201  1.00  0.00     0.032 C
HETATM   24  C18 UNL     1      -3.983  25.919 -12.600  1.00  0.00     0.151 A
HETATM   25  C19 UNL     1      -3.860  28.051 -14.316  1.00  0.00     0.032 C
HETATM   26  C20 UNL     1      -4.347  29.322 -13.681  1.00  0.00     0.011 C
HETATM   27  C23 UNL     1      -2.417  28.464 -14.659  1.00  0.00    -0.032 C
HETATM   28  C21 UNL     1      -3.119  29.840 -12.915  1.00  0.00     0.011 C
HETATM   29  C24 UNL     1      -1.610  27.322 -15.167  1.00  0.00     0.016 C
HETATM   30  C25 UNL     1      -2.376  29.658 -15.544  1.00  0.00     0.016 C
BRANCH  20  31
HETATM   31  O2  UNL     1      -1.181  26.813 -10.621  1.00  0.00    -0.345 OA
ATOM     32  H2  UNL     1      -0.972  27.578 -10.099  1.00  0.00     0.219 HD
ENDBRANCH  20  31
BRANCH  24  33
HETATM   33  O3  UNL     1      -5.052  25.098 -12.946  1.00  0.00    -0.345 OA
ATOM     34  H3  UNL     1      -4.975  24.324 -13.492  1.00  0.00     0.219 HD
ENDBRANCH  24  33
ENDBRANCH  18  19
ENDBRANCH  17  18
ENDBRANCH  16  17
ENDBRANCH  15  16
ENDBRANCH  14  15
ENDBRANCH  13  14
ENDBRANCH   8  13
TORSDOF 9
ENDMDL