MODEL 5
REMARK VINA RESULT: -9.150257652      3.400      5.826
REMARK  9 active torsions:
REMARK  status: ('A' for Active; 'I' for Inactive)
REMARK    1  A    between atoms: C4_4  and  C5_5
REMARK    2  A    between atoms: C5_5  and  C6_6
REMARK    3  A    between atoms: C6_6  and  C7_7
REMARK    4  A    between atoms: C9_9  and  C10_10
REMARK    5  A    between atoms: C10_10  and  C11_11
REMARK    6  A    between atoms: C12_15  and  C13_16
REMARK    7  A    between atoms: C13_16  and  C14_18
REMARK    8  A    between atoms: C24_28  and  O3_29
REMARK    9  A    between atoms: C27_33  and  O4_34
ROOT
HETATM    1  C11 UNL     1      -3.433  26.733 -12.046  1.00  0.00     0.115 A
HETATM    2  O1  UNL     1      -4.495  26.320 -11.416  1.00  0.00    -0.239 OA
HETATM    3  N1  UNL     1      -4.332  25.120 -10.959  1.00  0.00    -0.255 N
ATOM      4  H1  UNL     1      -5.040  24.607 -10.434  1.00  0.00     0.195 HD
HETATM    5  C12 UNL     1      -3.111  24.630 -11.261  1.00  0.00     0.136 A
HETATM    6  C27 UNL     1      -2.533  25.693 -11.972  1.00  0.00     0.130 A
ENDROOT
BRANCH   5   7
HETATM    7  C13 UNL     1      -2.516  23.326 -10.966  1.00  0.00     0.185 C
HETATM    8  O2  UNL     1      -3.103  22.352 -11.499  1.00  0.00    -0.290 OA
BRANCH   7   9
HETATM    9  C14 UNL     1      -1.352  23.291 -10.121  1.00  0.00     0.073 C
HETATM   10  C15 UNL     1      -0.113  23.406 -10.971  1.00  0.00     0.013 C
HETATM   11  C16 UNL     1       0.953  24.074 -10.146  1.00  0.00     0.002 C
HETATM   12  C17 UNL     1       0.634  23.953  -8.676  1.00  0.00     0.010 C
HETATM   13  C18 UNL     1       0.068  22.589  -8.307  1.00  0.00    -0.034 C
HETATM   14  C19 UNL     1      -0.129  22.622  -6.796  1.00  0.00     0.016 C
HETATM   15  C20 UNL     1       1.148  21.596  -8.584  1.00  0.00     0.010 C
HETATM   16  C25 UNL     1      -1.242  22.292  -9.027  1.00  0.00     0.000 C
HETATM   17  C21 UNL     1       0.710  20.239  -8.153  1.00  0.00     0.007 C
HETATM   18  C22 UNL     1      -0.663  19.888  -8.527  1.00  0.00     0.011 C
HETATM   19  C23 UNL     1      -0.624  18.577  -9.328  1.00  0.00     0.012 C
HETATM   20  C24 UNL     1      -1.435  20.866  -9.356  1.00  0.00     0.131 C
HETATM   21  C26 UNL     1      -2.341  22.659  -8.012  1.00  0.00     0.019 C
BRANCH  20  22
HETATM   22  O3  UNL     1      -2.782  20.478  -9.121  1.00  0.00    -0.394 OA
ATOM     23  H3  UNL     1      -2.897  20.675  -8.198  1.00  0.00     0.210 HD
ENDBRANCH  20  22
ENDBRANCH   7   9
ENDBRANCH   5   7
BRANCH   6  24
HETATM   24  O4  UNL     1      -1.253  25.671 -12.504  1.00  0.00    -0.356 OA
ATOM     25  H4  UNL     1      -0.850  26.347 -13.036  1.00  0.00     0.218 HD
ENDBRANCH   6  24
BRANCH   1  26
HETATM   26  C10 UNL     1      -3.222  28.042 -12.709  1.00  0.00     0.097 C
BRANCH  26  27
HETATM   27  C9  UNL     1      -4.421  28.305 -13.596  1.00  0.00    -0.018 C
HETATM   28  C7  UNL     1      -4.821  29.519 -13.860  1.00  0.00    -0.087 C
HETATM   29  C8  UNL     1      -4.035  30.672 -13.234  1.00  0.00     0.043 C
BRANCH  28  30
HETATM   30  C6  UNL     1      -5.962  29.856 -14.708  1.00  0.00     0.037 C
BRANCH  30  31
HETATM   31  C5  UNL     1      -7.292  29.648 -14.061  1.00  0.00     0.031 C
BRANCH  31  32
HETATM   32  C4  UNL     1      -8.380  29.277 -14.988  1.00  0.00    -0.024 C
HETATM   33  C2  UNL     1      -9.307  30.177 -15.327  1.00  0.00    -0.091 C
HETATM   34  C1  UNL     1      -9.215  31.538 -14.758  1.00  0.00     0.042 C
HETATM   35  C3  UNL     1     -10.381  29.767 -16.257  1.00  0.00     0.042 C
ENDBRANCH  31  32
ENDBRANCH  30  31
ENDBRANCH  28  30
ENDBRANCH  26  27
ENDBRANCH   1  26
TORSDOF 9
ENDMDL