MODEL 5
REMARK VINA RESULT: -4.306337259      1.256      2.353
REMARK  0 active torsions:
REMARK  status: ('A' for Active; 'I' for Inactive)
ROOT
HETATM    1  C1  UNL     1      28.089   3.455 -12.803  1.00  0.00     0.012 C
HETATM    2  C2  UNL     1      29.203   2.817 -13.602  1.00  0.00     0.012 C
HETATM    3  C3  UNL     1      29.152   3.348 -15.032  1.00  0.00     0.237 C
HETATM    4  N1  UNL     1      30.508   3.079 -15.509  1.00  0.00    -0.074 N
ATOM      5  H11 UNL     1      30.745   3.562 -16.375  1.00  0.00     0.277 HD
ATOM      6  H12 UNL     1      30.641   2.132 -15.864  1.00  0.00     0.277 HD
HETATM    7  C4  UNL     1      31.369   3.414 -14.396  1.00  0.00     0.237 C
HETATM    8  C5  UNL     1      30.513   3.429 -13.158  1.00  0.00     0.012 C
HETATM    9  C6  UNL     1      31.180   2.685 -12.057  1.00  0.00     0.012 C
ENDROOT
TORSDOF 0
ENDMDL