MODEL 2
REMARK VINA RESULT: -4.888387532      1.178      1.990
REMARK  0 active torsions:
REMARK  status: ('A' for Active; 'I' for Inactive)
ROOT
HETATM    1  C1  UNL     1      27.769   2.059 -13.971  1.00  0.00     0.040 C
HETATM    2  C2  UNL     1      29.266   2.261 -13.946  1.00  0.00     0.181 C
HETATM    3  C3  UNL     1      29.727   2.337 -12.493  1.00  0.00     0.032 C
HETATM    4  C4  UNL     1      31.071   3.060 -12.399  1.00  0.00     0.004 C
HETATM    5  C5  UNL     1      31.793   2.730 -13.698  1.00  0.00     0.027 C
HETATM    6  C6  UNL     1      31.101   3.340 -14.895  1.00  0.00     0.232 C
HETATM    7  N1  UNL     1      29.664   3.463 -14.669  1.00  0.00    -0.071 N
ATOM      8  H11 UNL     1      29.398   4.329 -14.199  1.00  0.00     0.277 HD
ATOM      9  H12 UNL     1      29.129   3.620 -15.524  1.00  0.00     0.277 HD
ENDROOT
TORSDOF 0
ENDMDL