MODEL 5
REMARK VINA RESULT: -5.005162285      0.942      1.078
REMARK  0 active torsions:
REMARK  status: ('A' for Active; 'I' for Inactive)
ROOT
HETATM    1  C1  UNL     1      29.052   3.410 -15.161  1.00  0.00     0.010 C
HETATM    2  C2  UNL     1      29.840   2.445 -14.293  1.00  0.00    -0.018 C
HETATM    3  C3  UNL     1      31.273   2.918 -14.297  1.00  0.00     0.004 C
HETATM    4  C4  UNL     1      31.358   3.625 -12.939  1.00  0.00     0.000 C
HETATM    5  C5  UNL     1      30.680   2.540 -12.095  1.00  0.00     0.000 C
HETATM    6  C6  UNL     1      29.366   2.425 -12.878  1.00  0.00     0.004 C
ENDROOT
TORSDOF 0
ENDMDL