MODEL 4
REMARK VINA RESULT: -4.787507748      0.726      1.033
REMARK  0 active torsions:
REMARK  status: ('A' for Active; 'I' for Inactive)
ROOT
HETATM    1  C1  UNL     1      30.411   2.880 -14.709  1.00  0.00     0.005 C
HETATM    2  C2  UNL     1      29.047   3.520 -15.036  1.00  0.00     0.005 C
HETATM    3  C3  UNL     1      28.268   3.025 -13.851  1.00  0.00    -0.014 C
HETATM    4  C4  UNL     1      29.238   3.371 -12.709  1.00  0.00     0.009 C
HETATM    5  C5  UNL     1      30.086   2.306 -13.365  1.00  0.00    -0.014 C
HETATM    6  C6  UNL     1      28.750   1.615 -13.681  1.00  0.00     0.009 C
ENDROOT
TORSDOF 0
ENDMDL