MODEL 1
REMARK VINA RESULT: -5.109124748      0.000      0.000
REMARK  0 active torsions:
REMARK  status: ('A' for Active; 'I' for Inactive)
ROOT
HETATM    1  C1  UNL     1      29.958   2.651 -12.354  1.00  0.00     0.003 C
HETATM    2  C2  UNL     1      31.365   2.861 -12.808  1.00  0.00     0.027 C
HETATM    3  C3  UNL     1      31.519   3.478 -14.143  1.00  0.00     0.232 C
HETATM    4  N1  UNL     1      30.542   3.135 -15.113  1.00  0.00    -0.075 N
ATOM      5  H11 UNL     1      30.775   2.249 -15.561  1.00  0.00     0.277 HD
ATOM      6  H12 UNL     1      30.602   3.755 -15.921  1.00  0.00     0.277 HD
HETATM    7  C4  UNL     1      29.188   3.104 -14.589  1.00  0.00     0.232 C
HETATM    8  C5  UNL     1      29.205   2.003 -13.520  1.00  0.00     0.027 C
ENDROOT
TORSDOF 0
ENDMDL