MODEL 4
REMARK VINA RESULT: -3.903738973      1.288      2.107
REMARK  0 active torsions:
REMARK  status: ('A' for Active; 'I' for Inactive)
ROOT
HETATM    1  C1  UNL     1      28.465   3.667 -13.059  1.00  0.00     0.046 C
HETATM    2  C2  UNL     1      29.367   2.439 -13.020  1.00  0.00     0.118 C
HETATM    3  C3  UNL     1      28.830   1.368 -12.129  1.00  0.00     0.046 C
HETATM    4  C4  UNL     1      30.756   2.810 -12.487  1.00  0.00     0.039 C
HETATM    5  C5  UNL     1      31.262   3.624 -13.685  1.00  0.00     0.030 C
HETATM    6  C6  UNL     1      30.841   2.672 -14.808  1.00  0.00     0.233 C
HETATM    7  N1  UNL     1      29.626   2.036 -14.360  1.00  0.00    -0.067 N
ATOM      8  H11 UNL     1      28.838   2.219 -14.982  1.00  0.00     0.278 HD
ATOM      9  H12 UNL     1      29.655   1.022 -14.465  1.00  0.00     0.278 HD
ENDROOT
TORSDOF 0
ENDMDL