MODEL 5
REMARK VINA RESULT: -3.785441654      2.092      2.668
REMARK  0 active torsions:
REMARK  status: ('A' for Active; 'I' for Inactive)
ROOT
HETATM    1  S1  UNL     1      31.204   3.042 -12.805  1.00  0.00    -0.092 SA
HETATM    2  C1  UNL     1      29.558   2.312 -12.709  1.00  0.00     0.058 C
HETATM    3  C2  UNL     1      29.140   1.717 -14.024  1.00  0.00     0.016 C
HETATM    4  C3  UNL     1      28.221   2.897 -14.258  1.00  0.00     0.002 C
HETATM    5  C4  UNL     1      28.504   3.390 -12.850  1.00  0.00     0.016 C
ENDROOT
TORSDOF 0
ENDMDL