MODEL 5
REMARK VINA RESULT: -4.205129493      1.143      2.148
REMARK  1 active torsions:
REMARK  status: ('A' for Active; 'I' for Inactive)
REMARK    1  A    between atoms: C5_5  and  N1_6
ROOT
HETATM    1  C1  UNL     1      30.218   3.179 -14.860  1.00  0.00     0.017 C
HETATM    2  C2  UNL     1      29.399   2.712 -13.679  1.00  0.00    -0.018 A
HETATM    3  C3  UNL     1      28.253   1.803 -14.131  1.00  0.00     0.017 C
HETATM    4  C4  UNL     1      29.137   3.543 -12.515  1.00  0.00     0.044 A
HETATM    5  C5  UNL     1      30.144   2.428 -12.447  1.00  0.00     0.192 A
ENDROOT
BRANCH   5   6
HETATM    6  N1  UNL     1      31.528   2.916 -12.382  1.00  0.00    -0.074 N
ATOM      7  H13 UNL     1      31.898   3.018 -13.327  1.00  0.00     0.274 HD
ATOM      8  H12 UNL     1      31.533   3.888 -12.072  1.00  0.00     0.274 HD
ATOM      9  H11 UNL     1      32.181   2.375 -11.816  1.00  0.00     0.274 HD
ENDBRANCH   5   6
TORSDOF 1
ENDMDL