MODEL 3
REMARK VINA RESULT: -3.934476339      1.411      1.645
REMARK  0 active torsions:
REMARK  status: ('A' for Active; 'I' for Inactive)
ROOT
HETATM    1  C1  UNL     1      28.345   2.084 -14.045  1.00  0.00     0.021 C
HETATM    2  C2  UNL     1      29.311   3.102 -13.511  1.00  0.00     0.044 C
HETATM    3  C3  UNL     1      30.043   2.615 -12.272  1.00  0.00     0.025 C
HETATM    4  C4  UNL     1      31.466   2.917 -12.664  1.00  0.00     0.075 C
HETATM    5  S1  UNL     1      30.900   3.196 -14.353  1.00  0.00    -0.165 SA
ENDROOT
TORSDOF 0
ENDMDL