MODEL 1
REMARK VINA RESULT: -5.696437427      0.000      0.000
REMARK  0 active torsions:
REMARK  status: ('A' for Active; 'I' for Inactive)
ROOT
HETATM    1  C1  UNL     1      31.602   2.988 -14.023  1.00  0.00     0.002 C
HETATM    2  C2  UNL     1      31.343   3.138 -12.561  1.00  0.00     0.002 C
HETATM    3  C3  UNL     1      30.020   2.487 -12.114  1.00  0.00     0.027 C
HETATM    4  C4  UNL     1      28.999   3.118 -12.978  1.00  0.00     0.099 A
HETATM    5  N1  UNL     1      28.062   2.677 -13.847  1.00  0.00    -0.409 N
ATOM      6  H1  UNL     1      27.061   2.575 -14.020  1.00  0.00     0.154 HD
HETATM    7  C5  UNL     1      29.309   2.454 -14.345  1.00  0.00     0.099 A
HETATM    8  C6  UNL     1      30.362   3.322 -14.876  1.00  0.00     0.027 C
ENDROOT
TORSDOF 0
ENDMDL