MODEL 3
REMARK VINA RESULT: -6.339206081      3.290      4.878
REMARK  4 active torsions:
REMARK  status: ('A' for Active; 'I' for Inactive)
REMARK    1  A    between atoms: C2_2  and  C3_3
REMARK    2  A    between atoms: C4_5  and  C5_6
REMARK    3  A    between atoms: C5_6  and  O2_7
REMARK    4  A    between atoms: C12_18  and  C13_19
ROOT
HETATM    1  C3  UNL     1      47.222  36.279  18.333  1.00  0.00     0.173 C
HETATM    2  O1  UNL     1      47.312  35.169  19.208  1.00  0.00    -0.369 OA
HETATM    3  C4  UNL     1      46.424  34.117  18.910  1.00  0.00     0.181 C
HETATM    4  C6  UNL     1      45.012  34.490  18.759  1.00  0.00     0.213 C
HETATM    5  O3  UNL     1      45.065  35.905  18.622  1.00  0.00    -0.368 OA
HETATM    6  C7  UNL     1      46.009  36.034  17.573  1.00  0.00     0.158 C
HETATM    7  C8  UNL     1      45.342  36.832  16.573  1.00  0.00     0.075 C
HETATM    8  C9  UNL     1      44.307  35.833  15.975  1.00  0.00     0.201 C
HETATM    9  O4  UNL     1      43.579  35.175  16.911  1.00  0.00    -0.336 OA
HETATM   10  C10 UNL     1      44.189  34.104  17.595  1.00  0.00     0.125 C
HETATM   11  C11 UNL     1      44.679  33.041  16.701  1.00  0.00     0.193 C
HETATM   12  O5  UNL     1      45.013  31.993  17.175  1.00  0.00    -0.290 OA
HETATM   13  C12 UNL     1      44.716  33.376  15.250  1.00  0.00     0.144 C
HETATM   14  C14 UNL     1      45.020  34.824  15.145  1.00  0.00     0.168 C
HETATM   15  O6  UNL     1      45.874  35.176  14.360  1.00  0.00    -0.294 OA
ENDROOT
BRANCH   3  16
HETATM   16  C5  UNL     1      46.543  33.194  20.140  1.00  0.00     0.199 C
BRANCH  16  17
HETATM   17  O2  UNL     1      46.124  33.917  21.237  1.00  0.00    -0.398 OA
ATOM     18  H2  UNL     1      46.763  34.605  21.382  1.00  0.00     0.209 HD
ENDBRANCH  16  17
ENDBRANCH   3  16
BRANCH   1  19
HETATM   19  C2  UNL     1      48.482  36.341  17.585  1.00  0.00    -0.003 C
HETATM   20  C1  UNL     1      48.609  35.582  16.499  1.00  0.00     0.009 C
ENDBRANCH   1  19
BRANCH  13  21
HETATM   21  C13 UNL     1      45.700  32.548  14.484  1.00  0.00     0.105 C
HETATM   22 BR1  UNL     1      44.804  31.288  13.349  1.00  0.00    -0.095 Br
ENDBRANCH  13  21
TORSDOF 4
ENDMDL