MODEL 5
REMARK VINA RESULT: -7.076512529      3.703      5.704
REMARK  4 active torsions:
REMARK  status: ('A' for Active; 'I' for Inactive)
REMARK    1  A    between atoms: C4_4  and  C5_5
REMARK    2  A    between atoms: C8_12  and  O4_13
REMARK    3  A    between atoms: O4_13  and  C9_14
REMARK    4  A    between atoms: C9_14  and  C10_16
ROOT
HETATM    1  C1  UNL     1      46.770  34.089  16.220  1.00  0.00     0.034 C
HETATM    2  C2  UNL     1      45.591  34.583  17.007  1.00  0.00     0.089 C
HETATM    3  C3  UNL     1      45.981  35.298  18.268  1.00  0.00     0.034 C
HETATM    4  C4  UNL     1      44.629  33.476  17.376  1.00  0.00     0.212 C
HETATM    5  N1  UNL     1      43.486  33.519  16.536  1.00  0.00    -0.315 N
HETATM    6  C6  UNL     1      42.563  32.742  15.741  1.00  0.00     0.224 C
HETATM    7  O3  UNL     1      42.148  31.594  15.964  1.00  0.00    -0.273 OA
HETATM    8  C7  UNL     1      42.178  33.577  14.562  1.00  0.00     0.138 C
HETATM    9  C8  UNL     1      42.075  34.939  15.231  1.00  0.00     0.178 C
HETATM   10  C12 UNL     1      43.001  34.907  16.395  1.00  0.00     0.241 C
HETATM   11  S1  UNL     1      44.567  35.683  16.056  1.00  0.00     0.178 S
HETATM   12  O6  UNL     1      44.920  35.575  14.603  1.00  0.00    -0.225 OA
HETATM   13  O7  UNL     1      44.630  37.079  16.564  1.00  0.00    -0.225 OA
ENDROOT
BRANCH   9  14
HETATM   14  O4  UNL     1      40.740  35.027  15.741  1.00  0.00    -0.309 OA
BRANCH  14  15
HETATM   15  C9  UNL     1      39.633  34.802  14.959  1.00  0.00     0.284 C
HETATM   16  O5  UNL     1      38.875  33.864  15.237  1.00  0.00    -0.260 OA
BRANCH  15  17
HETATM   17  C10 UNL     1      39.360  35.677  13.799  1.00  0.00     0.094 C
HETATM   18  C11 UNL     1      38.134  36.060  13.529  1.00  0.00     0.090 C
HETATM   19 CL1  UNL     1      37.831  37.091  12.160  1.00  0.00    -0.097 Cl
ENDBRANCH  15  17
ENDBRANCH  14  15
ENDBRANCH   9  14
BRANCH   4  20
HETATM   20  C5  UNL     1      45.351  32.197  17.295  1.00  0.00     0.198 C
HETATM   21  O1  UNL     1      45.508  31.568  16.203  1.00  0.00    -0.646 OA
HETATM   22  O2  UNL     1      45.885  31.641  18.440  1.00  0.00    -0.646 OA
ENDBRANCH   4  20
TORSDOF 4
ENDMDL