MODEL 4
REMARK VINA RESULT: -7.081124857      3.860      5.222
REMARK  3 active torsions:
REMARK  status: ('A' for Active; 'I' for Inactive)
REMARK    1  A    between atoms: C5_10  and  N2_11
REMARK       I    between atoms: N2_11  and  C6_13
REMARK    2  A    between atoms: C6_13  and  C7_15
REMARK    3  A    between atoms: C12_21  and  N3_22
ROOT
HETATM    1  C1  UNL     1      42.328  30.181  11.091  1.00  0.00     0.145 C
HETATM    2  N1  UNL     1      42.713  31.450  11.626  1.00  0.00    -0.398 N
ATOM      3  H1  UNL     1      43.211  32.101  11.019  1.00  0.00     0.158 HD
HETATM    4  C2  UNL     1      42.460  31.813  12.846  1.00  0.00     0.027 C
HETATM    5  C3  UNL     1      41.735  30.827  13.680  1.00  0.00     0.194 C
HETATM    6  S1  UNL     1      42.175  31.035  15.405  1.00  0.00     0.151 S
HETATM    7  O1  UNL     1      41.121  31.834  16.125  1.00  0.00    -0.227 OA
HETATM    8  O2  UNL     1      42.476  29.748  16.067  1.00  0.00    -0.227 OA
HETATM    9  C4  UNL     1      43.689  32.008  15.366  1.00  0.00     0.168 C
HETATM   10  C5  UNL     1      43.273  33.321  14.686  1.00  0.00     0.133 C
HETATM   11  C12 UNL     1      42.908  33.142  13.258  1.00  0.00     0.225 C
ENDROOT
BRANCH  10  12
HETATM   12  N2  UNL     1      44.394  34.218  14.885  1.00  0.00    -0.353 N
HETATM   13  C6  UNL     1      44.349  35.388  15.662  1.00  0.00     0.222 C
HETATM   14  O3  UNL     1      43.295  35.718  16.238  1.00  0.00    -0.273 OA
ATOM     15  H2  UNL     1      45.276  33.984  14.429  1.00  0.00     0.163 HD
BRANCH  13  16
HETATM   16  C7  UNL     1      45.550  36.232  15.797  1.00  0.00     0.079 C
HETATM   17  C8  UNL     1      46.787  35.351  15.896  1.00  0.00     0.015 C
HETATM   18  C9  UNL     1      46.985  35.077  17.361  1.00  0.00     0.021 C
HETATM   19  C10 UNL     1      46.524  36.350  18.016  1.00  0.00     0.083 C
HETATM   20 CL1  UNL     1      47.954  37.351  18.367  1.00  0.00    -0.125 Cl
HETATM   21  C11 UNL     1      45.578  37.020  17.068  1.00  0.00     0.034 C
ENDBRANCH  13  16
ENDBRANCH  10  12
BRANCH  11  22
HETATM   22  N3  UNL     1      41.960  34.187  12.839  1.00  0.00    -0.143 N
HETATM   23  O4  UNL     1      40.823  33.937  12.409  1.00  0.00    -0.536 OA
HETATM   24  O5  UNL     1      42.316  35.523  12.913  1.00  0.00    -0.536 OA
ENDBRANCH  11  22
TORSDOF 3
ENDMDL