MODEL 1
REMARK VINA RESULT: -7.389219485      0.000      0.000
REMARK  4 active torsions:
REMARK  status: ('A' for Active; 'I' for Inactive)
REMARK    1  A    between atoms: O1_2  and  C2_3
REMARK    2  A    between atoms: C5_7  and  O2_8
REMARK    3  A    between atoms: C7_11  and  C8_12
REMARK    4  A    between atoms: C10_18  and  N1_19
ROOT
HETATM    1  C2  UNL     1      43.305  34.163  15.872  1.00  0.00     0.178 C
HETATM    2 BR1  UNL     1      45.112  34.086  15.195  1.00  0.00    -0.046 Br
HETATM    3  C3  UNL     1      43.043  35.546  16.280  1.00  0.00     0.026 C
HETATM    4  C4  UNL     1      42.210  36.086  15.417  1.00  0.00     0.019 C
HETATM    5  C5  UNL     1      41.830  35.133  14.350  1.00  0.00     0.144 C
HETATM    6  C6  UNL     1      40.370  35.240  14.217  1.00  0.00    -0.022 C
HETATM    7  C7  UNL     1      39.805  36.233  13.546  1.00  0.00     0.048 C
HETATM    8  C9  UNL     1      39.603  34.192  14.872  1.00  0.00     0.181 C
HETATM    9  S1  UNL     1      40.832  33.175  15.637  1.00  0.00     0.182 S
HETATM   10  O4  UNL     1      40.554  31.772  15.242  1.00  0.00    -0.225 OA
HETATM   11  O5  UNL     1      40.835  33.428  17.084  1.00  0.00    -0.225 OA
HETATM   12  C10 UNL     1      42.281  33.861  14.819  1.00  0.00     0.216 C
ENDROOT
BRANCH   1  13
HETATM   13  O1  UNL     1      43.246  33.302  16.948  1.00  0.00    -0.366 OA
HETATM   14  C1  UNL     1      44.405  33.302  17.655  1.00  0.00     0.204 C
ENDBRANCH   1  13
BRANCH  12  15
HETATM   15  N1  UNL     1      42.714  32.880  13.928  1.00  0.00    -0.394 N
HETATM   16  C11 UNL     1      42.141  32.798  12.646  1.00  0.00     0.144 C
HETATM   17  C12 UNL     1      43.362  31.729  14.306  1.00  0.00     0.144 C
ENDBRANCH  12  15
BRANCH   5  18
HETATM   18  O2  UNL     1      42.370  35.619  13.164  1.00  0.00    -0.377 OA
ATOM     19  H2  UNL     1      41.793  36.311  12.861  1.00  0.00     0.211 HD
ENDBRANCH   5  18
BRANCH   7  20
HETATM   20  C8  UNL     1      38.367  36.387  13.383  1.00  0.00     0.259 C
HETATM   21  O3  UNL     1      37.848  36.443  12.264  1.00  0.00    -0.302 OA
ENDBRANCH   7  20
TORSDOF 4
ENDMDL