MODEL 2
REMARK VINA RESULT: -6.904903545      4.593      6.186
REMARK  6 active torsions:
REMARK  status: ('A' for Active; 'I' for Inactive)
REMARK    1  A    between atoms: N1_2  and  S1_4
REMARK    2  A    between atoms: S1_4  and  N2_7
REMARK    3  A    between atoms: C8_14  and  C9_15
REMARK    4  A    between atoms: C9_15  and  O4_16
REMARK    5  A    between atoms: C10_18  and  O5_19
REMARK    6  A    between atoms: O5_19  and  C11_20
ROOT
HETATM    1  N2  UNL     1      43.014  34.822  15.889  1.00  0.00    -0.262 N
HETATM    2  C3  UNL     1      44.153  35.548  15.507  1.00  0.00     0.106 C
HETATM    3  C4  UNL     1      45.139  34.756  14.683  1.00  0.00     0.053 C
HETATM    4  C5  UNL     1      44.892  33.308  14.645  1.00  0.00    -0.024 C
HETATM    5  C6  UNL     1      44.003  32.734  15.427  1.00  0.00     0.023 C
HETATM    6  C7  UNL     1      43.179  33.522  16.413  1.00  0.00     0.259 C
HETATM    7  O3  UNL     1      43.673  33.483  17.688  1.00  0.00    -0.353 OA
HETATM    8  C8  UNL     1      44.869  34.119  17.896  1.00  0.00     0.177 C
HETATM    9  C10 UNL     1      44.822  35.596  17.953  1.00  0.00     0.166 C
HETATM   10  C12 UNL     1      44.834  36.291  16.629  1.00  0.00     0.061 C
ENDROOT
BRANCH   1  11
HETATM   11  S1  UNL     1      41.488  35.350  15.474  1.00  0.00     0.302 S
HETATM   12  O1  UNL     1      41.207  36.658  16.231  1.00  0.00    -0.188 OA
HETATM   13  O2  UNL     1      40.451  34.390  16.069  1.00  0.00    -0.188 OA
BRANCH  11  14
HETATM   14  N1  UNL     1      41.148  35.692  13.861  1.00  0.00    -0.202 NA
HETATM   15  C1  UNL     1      39.799  36.177  13.718  1.00  0.00     0.130 C
HETATM   16  C2  UNL     1      41.497  34.774  12.864  1.00  0.00     0.130 C
ENDBRANCH  11  14
ENDBRANCH   1  11
BRANCH   9  17
HETATM   17  O5  UNL     1      45.889  36.082  18.744  1.00  0.00    -0.300 OA
BRANCH  17  18
HETATM   18  C11 UNL     1      46.815  36.979  18.240  1.00  0.00     0.358 C
HETATM   19  O6  UNL     1      46.753  38.200  18.476  1.00  0.00    -0.245 OA
HETATM   20 CL1  UNL     1      48.100  36.292  17.234  1.00  0.00    -0.012 Cl
ENDBRANCH  17  18
ENDBRANCH   9  17
BRANCH   8  21
HETATM   21  C9  UNL     1      45.417  33.583  19.204  1.00  0.00     0.198 C
BRANCH  21  22
HETATM   22  O4  UNL     1      44.580  33.737  20.277  1.00  0.00    -0.398 OA
ATOM     23  H4  UNL     1      44.556  32.995  20.869  1.00  0.00     0.209 HD
ENDBRANCH  21  22
ENDBRANCH   8  21
TORSDOF 6
ENDMDL