MODEL 1
REMARK VINA RESULT: -7.445871540      0.000      0.000
REMARK  5 active torsions:
REMARK  status: ('A' for Active; 'I' for Inactive)
REMARK       I    between atoms: N1_5  and  C4_6
REMARK    1  A    between atoms: C4_6  and  C5_8
REMARK    2  A    between atoms: C5_8  and  O3_9
REMARK    3  A    between atoms: C7_12  and  S1_13
REMARK    4  A    between atoms: S1_13  and  C8_14
REMARK    5  A    between atoms: C8_14  and  C9_16
ROOT
HETATM    1  C1  UNL     1      46.011  32.220  17.213  1.00  0.00     0.021 C
HETATM    2  C2  UNL     1      44.684  32.886  16.833  1.00  0.00     0.095 C
HETATM    3  C3  UNL     1      43.875  31.965  15.986  1.00  0.00     0.232 C
HETATM    4  O1  UNL     1      43.704  30.751  16.314  1.00  0.00    -0.272 OA
HETATM    5  N1  UNL     1      43.385  32.660  14.848  1.00  0.00    -0.278 N
HETATM    6  C4  UNL     1      42.526  32.091  13.877  1.00  0.00     0.250 C
HETATM    7  O2  UNL     1      42.148  32.799  12.902  1.00  0.00    -0.271 OA
HETATM    8  C6  UNL     1      43.909  33.985  14.884  1.00  0.00     0.144 C
HETATM    9  C7  UNL     1      43.094  35.070  15.450  1.00  0.00     0.202 C
HETATM   10  S2  UNL     1      44.414  35.579  16.527  1.00  0.00     0.167 S
HETATM   11  O5  UNL     1      44.035  35.571  17.976  1.00  0.00    -0.226 OA
HETATM   12  O6  UNL     1      45.178  36.766  16.066  1.00  0.00    -0.226 OA
HETATM   13  C13 UNL     1      45.003  34.018  15.916  1.00  0.00     0.148 C
ENDROOT
BRANCH   9  14
HETATM   14  S1  UNL     1      41.625  34.643  16.372  1.00  0.00    -0.069 SA
BRANCH  14  15
HETATM   15  C8  UNL     1      40.185  34.870  15.332  1.00  0.00     0.194 C
HETATM   16  O4  UNL     1      39.211  34.120  15.390  1.00  0.00    -0.285 OA
BRANCH  15  17
HETATM   17  C9  UNL     1      40.120  35.978  14.360  1.00  0.00     0.109 A
HETATM   18  C10 UNL     1      40.405  35.730  12.903  1.00  0.00     0.060 A
HETATM   19  C11 UNL     1      39.023  36.075  13.372  1.00  0.00     0.112 A
HETATM   20  C12 UNL     1      38.428  37.414  13.084  1.00  0.00     0.053 C
HETATM   21  F1  UNL     1      38.128  35.020  13.295  1.00  0.00    -0.242 F
ENDBRANCH  15  17
ENDBRANCH  14  15
ENDBRANCH   9  14
BRANCH   6  22
HETATM   22  C5  UNL     1      42.050  30.684  13.961  1.00  0.00     0.267 C
BRANCH  22  23
HETATM   23  O3  UNL     1      40.991  30.537  14.827  1.00  0.00    -0.392 OA
ATOM     24  H3  UNL     1      40.412  29.826  14.577  1.00  0.00     0.210 HD
ENDBRANCH  22  23
ENDBRANCH   6  22
TORSDOF 5
ENDMDL