MODEL 1
REMARK VINA RESULT: -8.366483255      0.000      0.000
REMARK  4 active torsions:
REMARK  status: ('A' for Active; 'I' for Inactive)
REMARK       I    between atoms: C2_2  and  N1_4
REMARK       I    between atoms: N1_4  and  C3_6
REMARK    1  A    between atoms: C3_6  and  C4_8
REMARK    2  A    between atoms: C10_17  and  C11_18
REMARK    3  A    between atoms: C11_18  and  O6_20
REMARK    4  A    between atoms: O6_20  and  C12_21
ROOT
HETATM    1  C4  UNL     1      42.409  32.556  14.392  1.00  0.00     0.025 C
HETATM    2  C5  UNL     1      43.682  32.519  13.576  1.00  0.00     0.060 C
HETATM    3  C6  UNL     1      44.910  32.723  14.431  1.00  0.00     0.146 C
HETATM    4  S1  UNL     1      44.785  34.263  15.260  1.00  0.00     0.157 S
HETATM    5  O3  UNL     1      44.901  35.362  14.245  1.00  0.00    -0.227 OA
HETATM    6  O4  UNL     1      45.854  34.444  16.297  1.00  0.00    -0.227 OA
HETATM    7  C7  UNL     1      43.190  34.374  16.009  1.00  0.00     0.090 C
HETATM    8  C8  UNL     1      42.900  35.894  16.108  1.00  0.00     0.037 C
HETATM    9  C9  UNL     1      43.269  33.837  17.399  1.00  0.00     0.037 C
HETATM   10  C10 UNL     1      42.162  33.811  15.117  1.00  0.00     0.051 C
ENDROOT
BRANCH  10  11
HETATM   11  C11 UNL     1      40.792  33.825  15.701  1.00  0.00     0.292 C
HETATM   12  O5  UNL     1      40.517  32.975  16.575  1.00  0.00    -0.260 OA
BRANCH  11  13
HETATM   13  O6  UNL     1      39.799  34.718  15.338  1.00  0.00    -0.312 OA
BRANCH  13  14
HETATM   14  C12 UNL     1      39.367  34.886  14.010  1.00  0.00     0.137 C
HETATM   15  C13 UNL     1      39.834  36.173  13.410  1.00  0.00     0.070 C
HETATM   16  C14 UNL     1      38.415  36.527  12.979  1.00  0.00     0.175 C
HETATM   17  F1  UNL     1      37.985  37.766  13.380  1.00  0.00    -0.249 F
HETATM   18  C15 UNL     1      37.944  35.370  13.854  1.00  0.00     0.070 C
ENDBRANCH  13  14
ENDBRANCH  11  13
ENDBRANCH  10  11
BRANCH   1  19
HETATM   19  C3  UNL     1      42.216  31.288  15.087  1.00  0.00     0.255 C
HETATM   20  N1  UNL     1      41.174  30.428  14.664  1.00  0.00    -0.294 N
HETATM   21  C2  UNL     1      40.865  29.188  15.224  1.00  0.00     0.220 C
ATOM     22  H1  UNL     1      40.599  30.742  13.882  1.00  0.00     0.172 HD
HETATM   23  C1  UNL     1      41.648  28.666  16.359  1.00  0.00     0.117 C
HETATM   24  O1  UNL     1      39.919  28.509  14.769  1.00  0.00    -0.274 OA
HETATM   25  O2  UNL     1      42.926  30.931  16.035  1.00  0.00    -0.268 OA
ENDBRANCH   1  19
TORSDOF 4
ENDMDL