MODEL 4
REMARK VINA RESULT: -7.103659656      3.178      5.377
REMARK  5 active torsions:
REMARK  status: ('A' for Active; 'I' for Inactive)
REMARK    1  A    between atoms: C2_2  and  C3_3
REMARK    2  A    between atoms: C3_3  and  O1_4
REMARK    3  A    between atoms: O1_4  and  C4_5
REMARK    4  A    between atoms: C14_15  and  O2_16
REMARK    5  A    between atoms: C19_22  and  O3_24
ROOT
HETATM    1  C4  UNL     1     -12.564  -1.705  -0.858  1.00  0.00     0.156 C
HETATM    2  C5  UNL     1     -11.094  -2.161  -0.790  1.00  0.00     0.036 C
HETATM    3  C6  UNL     1     -11.143  -3.673  -0.759  1.00  0.00     0.013 C
HETATM    4  C7  UNL     1     -11.687  -4.152  -2.074  1.00  0.00    -0.030 C
HETATM    5  C8  UNL     1     -10.621  -3.948  -3.118  1.00  0.00     0.016 C
HETATM    6  C9  UNL     1     -11.964  -5.662  -2.032  1.00  0.00     0.026 C
HETATM    7  C10 UNL     1     -10.760  -6.344  -1.440  1.00  0.00     0.014 C
HETATM    8  C11 UNL     1     -10.764  -7.827  -1.640  1.00  0.00     0.037 C
HETATM    9  C12 UNL     1     -11.531  -8.281  -2.807  1.00  0.00    -0.057 C
HETATM   10  C13 UNL     1     -11.961  -9.537  -2.830  1.00  0.00     0.017 C
HETATM   11  C14 UNL     1     -11.846  -7.407  -3.965  1.00  0.00     0.175 C
HETATM   12  C15 UNL     1     -12.238  -6.073  -3.427  1.00  0.00    -0.046 C
HETATM   13  C16 UNL     1     -12.854  -5.233  -4.241  1.00  0.00    -0.020 C
HETATM   14  C17 UNL     1     -13.309  -3.871  -3.863  1.00  0.00     0.036 C
HETATM   15  C18 UNL     1     -13.007  -3.516  -2.447  1.00  0.00     0.034 C
HETATM   16  C19 UNL     1     -12.997  -2.019  -2.242  1.00  0.00     0.085 C
HETATM   17  C20 UNL     1     -14.373  -1.481  -2.524  1.00  0.00     0.049 C
ENDROOT
BRANCH   1  18
HETATM   18  O1  UNL     1     -12.695  -0.405  -0.457  1.00  0.00    -0.379 OA
BRANCH  18  19
HETATM   19  C3  UNL     1     -11.589   0.130   0.143  1.00  0.00     0.195 C
BRANCH  19  20
HETATM   20  C2  UNL     1     -11.819   0.971   1.323  1.00  0.00    -0.011 C
HETATM   21  C1  UNL     1     -10.924   1.861   1.696  1.00  0.00     0.009 C
ENDBRANCH  19  20
ENDBRANCH  18  19
ENDBRANCH   1  18
BRANCH  16  22
HETATM   22  O3  UNL     1     -12.149  -1.395  -3.184  1.00  0.00    -0.387 OA
ATOM     23  H3  UNL     1     -11.733  -2.042  -3.742  1.00  0.00     0.210 HD
ENDBRANCH  16  22
BRANCH  11  24
HETATM   24  O2  UNL     1     -12.879  -7.954  -4.690  1.00  0.00    -0.387 OA
ATOM     25  H2  UNL     1     -12.700  -7.864  -5.618  1.00  0.00     0.210 HD
ENDBRANCH  11  24
TORSDOF 5
ENDMDL