MODEL 1
REMARK VINA RESULT: -7.548660977      0.000      0.000
REMARK  3 active torsions:
REMARK  status: ('A' for Active; 'I' for Inactive)
REMARK    1  A    between atoms: C3_3  and  C4_4
REMARK    2  A    between atoms: C4_4  and  C5_5
REMARK    3  A    between atoms: C15_17  and  O2_18
ROOT
HETATM    1  C5  UNL     1     -12.929  -2.861  -1.708  1.00  0.00     0.138 C
HETATM    2  O1  UNL     1     -12.121  -2.283  -0.710  1.00  0.00    -0.338 OA
HETATM    3  C6  UNL     1     -10.831  -2.587  -0.445  1.00  0.00     0.114 C
HETATM    4  S1  UNL     1     -10.071  -1.887   0.802  1.00  0.00    -0.058 SA
HETATM    5  C7  UNL     1     -10.135  -3.561  -1.309  1.00  0.00     0.087 C
HETATM    6  C8  UNL     1     -11.158  -4.649  -1.674  1.00  0.00    -0.027 C
HETATM    7  C9  UNL     1     -11.703  -5.183  -0.354  1.00  0.00     0.016 C
HETATM    8  C10 UNL     1     -12.309  -4.026  -2.409  1.00  0.00     0.024 C
HETATM    9  C11 UNL     1     -11.847  -3.634  -3.771  1.00  0.00     0.009 C
HETATM   10  C12 UNL     1     -11.039  -4.644  -4.497  1.00  0.00     0.012 C
HETATM   11  C13 UNL     1     -10.931  -5.977  -3.803  1.00  0.00    -0.014 C
HETATM   12  C14 UNL     1     -12.192  -6.802  -3.987  1.00  0.00     0.018 C
HETATM   13  C15 UNL     1      -9.799  -6.804  -4.374  1.00  0.00     0.126 C
HETATM   14  C16 UNL     1      -8.566  -6.535  -3.593  1.00  0.00     0.033 C
HETATM   15  C17 UNL     1      -9.019  -5.600  -2.504  1.00  0.00     0.009 C
HETATM   16  C18 UNL     1     -10.526  -5.777  -2.395  1.00  0.00     0.005 C
ENDROOT
BRANCH   1  17
HETATM   17  C4  UNL     1     -13.344  -1.753  -2.637  1.00  0.00     0.059 C
BRANCH  17  18
HETATM   18  C3  UNL     1     -14.796  -1.812  -2.864  1.00  0.00    -0.028 C
HETATM   19  C2  UNL     1     -15.387  -2.230  -3.939  1.00  0.00    -0.035 C
HETATM   20  C1  UNL     1     -16.898  -2.213  -3.979  1.00  0.00     0.036 C
ENDBRANCH  17  18
ENDBRANCH   1  17
BRANCH  13  21
HETATM   21  O2  UNL     1      -9.649  -6.606  -5.742  1.00  0.00    -0.395 OA
ATOM     22  H2  UNL     1      -8.756  -6.757  -6.027  1.00  0.00     0.210 HD
ENDBRANCH  13  21
TORSDOF 3
ENDMDL