MODEL 3
REMARK VINA RESULT: -7.049301943      1.739      2.295
REMARK  2 active torsions:
REMARK  status: ('A' for Active; 'I' for Inactive)
REMARK    1  A    between atoms: C12_12  and  C13_13
REMARK    2  A    between atoms: C19_20  and  C20_21
ROOT
HETATM    1  C1  UNL     1      -8.363  -6.757  -3.301  1.00  0.00     0.043 C
HETATM    2  C2  UNL     1      -9.115  -7.806  -2.662  1.00  0.00    -0.081 C
HETATM    3  C3  UNL     1      -8.301  -8.640  -1.668  1.00  0.00     0.043 C
HETATM    4  C4  UNL     1     -10.351  -8.193  -2.718  1.00  0.00    -0.050 C
HETATM    5  C5  UNL     1     -10.838  -9.389  -1.898  1.00  0.00     0.039 C
HETATM    6  C6  UNL     1     -11.858 -10.165  -2.643  1.00  0.00     0.006 C
HETATM    7  C7  UNL     1     -12.790  -9.453  -3.536  1.00  0.00     0.014 C
HETATM    8  C8  UNL     1     -12.119  -8.472  -4.474  1.00  0.00    -0.020 C
HETATM    9  C9  UNL     1     -11.271  -9.205  -5.461  1.00  0.00     0.020 C
HETATM   10  C10 UNL     1     -13.121  -7.716  -5.306  1.00  0.00     0.020 C
HETATM   11  C11 UNL     1     -11.377  -7.562  -3.524  1.00  0.00    -0.046 C
HETATM   12  C12 UNL     1     -11.680  -6.326  -3.346  1.00  0.00    -0.002 C
ENDROOT
BRANCH  12  13
HETATM   13  C13 UNL     1     -11.309  -5.216  -2.518  1.00  0.00     0.107 C
HETATM   14  C14 UNL     1     -11.486  -5.432  -1.045  1.00  0.00     0.138 C
HETATM   15  O1  UNL     1     -12.041  -6.339  -0.506  1.00  0.00    -0.297 OA
HETATM   16  C15 UNL     1     -10.916  -4.419  -0.146  1.00  0.00     0.079 C
HETATM   17  C16 UNL     1     -10.806  -3.117  -0.887  1.00  0.00     0.012 C
HETATM   18  C17 UNL     1     -11.947  -2.869  -1.839  1.00  0.00     0.036 C
HETATM   19  C18 UNL     1     -12.205  -4.002  -2.740  1.00  0.00    -0.059 C
HETATM   20  C19 UNL     1     -13.120  -4.042  -3.667  1.00  0.00     0.088 C
BRANCH  20  21
HETATM   21  C20 UNL     1     -13.994  -2.935  -3.925  1.00  0.00     0.198 C
HETATM   22  O2  UNL     1     -15.182  -2.863  -3.537  1.00  0.00    -0.644 OA
HETATM   23  O3  UNL     1     -13.537  -1.822  -4.662  1.00  0.00    -0.644 OA
ENDBRANCH  20  21
ENDBRANCH  12  13
TORSDOF 2
ENDMDL