MODEL 2
REMARK VINA RESULT: -7.452247917      4.130      8.253
REMARK  5 active torsions:
REMARK  status: ('A' for Active; 'I' for Inactive)
REMARK    1  A    between atoms: C2_2  and  C4_4
REMARK    2  A    between atoms: C4_4  and  C5_5
REMARK    3  A    between atoms: C6_7  and  N1_8
REMARK    4  A    between atoms: N1_8  and  C7_10
REMARK    5  A    between atoms: C13_20  and  C14_21
ROOT
HETATM    1  C5  UNL     1     -10.879  -2.636  -0.011  1.00  0.00     0.010 A
HETATM    2  S1  UNL     1     -10.532  -1.226   0.945  1.00  0.00    -0.057 SA
HETATM    3  C6  UNL     1     -11.665  -0.166   0.253  1.00  0.00     0.150 A
HETATM    4  N3  UNL     1     -12.255  -0.918  -0.669  1.00  0.00    -0.338 N
ATOM      5  H3  UNL     1     -12.996  -0.533  -1.255  1.00  0.00     0.168 HD
HETATM    6  C13 UNL     1     -11.864  -2.181  -0.819  1.00  0.00     0.032 A
ENDROOT
BRANCH   3   7
HETATM    7  N1  UNL     1     -11.899   1.097   0.551  1.00  0.00    -0.326 N
ATOM      8  H1  UNL     1     -12.700   1.532   0.093  1.00  0.00     0.169 HD
BRANCH   7   9
HETATM    9  C7  UNL     1     -11.179   1.892   1.414  1.00  0.00     0.078 C
HETATM   10  N2  UNL     1     -11.684   2.400   2.491  1.00  0.00    -0.380 N
HETATM   11  C8  UNL     1     -11.117   3.237   3.503  1.00  0.00     0.121 C
ATOM     12  H2  UNL     1     -12.664   2.161   2.646  1.00  0.00     0.160 HD
HETATM   13  C9  UNL     1     -10.311   4.395   3.040  1.00  0.00     0.020 C
HETATM   14  C10 UNL     1      -9.070   4.080   2.274  1.00  0.00     0.002 C
HETATM   15  C11 UNL     1      -9.486   3.628   0.891  1.00  0.00     0.007 C
HETATM   16  C12 UNL     1      -9.768   2.147   1.017  1.00  0.00     0.076 C
ENDBRANCH   7   9
ENDBRANCH   3   7
BRANCH   1  17
HETATM   17  C4  UNL     1     -10.208  -3.901   0.305  1.00  0.00     0.052 C
BRANCH  17  18
HETATM   18  C2  UNL     1      -8.993  -4.157  -0.500  1.00  0.00    -0.018 C
HETATM   19  C1  UNL     1      -9.178  -5.514  -1.196  1.00  0.00     0.010 C
HETATM   20  C3  UNL     1      -7.712  -4.059   0.190  1.00  0.00     0.010 C
ENDBRANCH  17  18
ENDBRANCH   1  17
BRANCH   6  21
HETATM   21  C14 UNL     1     -12.407  -3.011  -1.951  1.00  0.00    -0.008 C
HETATM   22  C15 UNL     1     -11.521  -3.308  -3.080  1.00  0.00     0.021 C
HETATM   23  C16 UNL     1     -13.735  -2.367  -2.420  1.00  0.00     0.021 C
HETATM   24  C17 UNL     1     -12.895  -4.383  -1.430  1.00  0.00     0.021 C
ENDBRANCH   6  21
TORSDOF 5
ENDMDL