MODEL 1
REMARK VINA RESULT: -7.375768551      0.000      0.000
REMARK  3 active torsions:
REMARK  status: ('A' for Active; 'I' for Inactive)
REMARK    1  A    between atoms: C2_2  and  C3_4
REMARK    2  A    between atoms: C3_4  and  C4_5
REMARK    3  A    between atoms: N1_13  and  O2_15
ROOT
HETATM    1  C4  UNL     1     -10.398  -6.863  -3.393  1.00  0.00    -0.027 C
HETATM    2  C5  UNL     1     -11.732  -7.229  -4.070  1.00  0.00     0.016 C
HETATM    3  C6  UNL     1     -10.598  -5.600  -2.684  1.00  0.00    -0.001 C
HETATM    4  C7  UNL     1      -9.446  -4.622  -2.622  1.00  0.00     0.007 C
HETATM    5  C8  UNL     1      -9.831  -3.308  -2.029  1.00  0.00     0.016 C
HETATM    6  C9  UNL     1     -10.769  -3.326  -0.878  1.00  0.00     0.001 C
HETATM    7  C10 UNL     1     -10.015  -3.272   0.439  1.00  0.00     0.022 C
HETATM    8  C11 UNL     1     -11.727  -2.188  -0.883  1.00  0.00     0.018 C
HETATM    9  N1  UNL     1     -11.702  -1.074  -0.241  1.00  0.00    -0.277 N
ATOM     10  H1  UNL     1     -10.924  -0.882   0.390  1.00  0.00     0.193 HD
HETATM   11  C12 UNL     1     -12.802  -2.587  -1.824  1.00  0.00     0.056 C
HETATM   12  C13 UNL     1     -12.976  -4.069  -1.509  1.00  0.00     0.012 C
HETATM   13  C14 UNL     1     -11.742  -4.463  -0.812  1.00  0.00     0.004 C
HETATM   14  C15 UNL     1     -11.053  -5.710  -1.236  1.00  0.00    -0.005 C
HETATM   15  C16 UNL     1     -11.923  -6.879  -0.959  1.00  0.00     0.006 C
HETATM   16  C17 UNL     1     -11.337  -8.162  -1.427  1.00  0.00     0.010 C
HETATM   17  C18 UNL     1     -10.218  -8.063  -2.415  1.00  0.00    -0.040 C
HETATM   18  C19 UNL     1      -8.914  -8.026  -1.689  1.00  0.00     0.015 C
HETATM   19  C20 UNL     1     -10.231  -9.375  -3.170  1.00  0.00     0.015 C
ENDROOT
BRANCH   1  20
HETATM   20  C3  UNL     1      -9.345  -6.983  -4.419  1.00  0.00     0.088 C
BRANCH  20  21
HETATM   21  C2  UNL     1      -9.647  -6.684  -5.815  1.00  0.00     0.123 C
HETATM   22  C1  UNL     1      -9.860  -7.628  -6.918  1.00  0.00     0.091 C
HETATM   23  O1  UNL     1      -9.736  -5.479  -6.118  1.00  0.00    -0.298 OA
ENDBRANCH  20  21
ENDBRANCH   1  20
BRANCH   9  24
HETATM   24  O2  UNL     1     -12.695  -0.137  -0.382  1.00  0.00    -0.290 OA
ATOM     25  H2  UNL     1     -12.501   0.792  -0.439  1.00  0.00     0.244 HD
ENDBRANCH   9  24
TORSDOF 3
ENDMDL