MODEL 3
REMARK VINA RESULT: -7.309818810      3.213      7.827
REMARK  4 active torsions:
REMARK  status: ('A' for Active; 'I' for Inactive)
REMARK    1  A    between atoms: C2_2  and  O1_3
REMARK    2  A    between atoms: C2_2  and  C3_5
REMARK    3  A    between atoms: C14_16  and  C15_17
REMARK    4  A    between atoms: C15_17  and  O2_18
ROOT
HETATM    1  C3  UNL     1     -12.307   0.416   0.520  1.00  0.00     0.007 C
HETATM    2  C4  UNL     1     -11.788  -0.565  -0.212  1.00  0.00    -0.081 C
HETATM    3  C5  UNL     1     -10.394  -1.021  -0.042  1.00  0.00     0.037 C
HETATM    4  C6  UNL     1     -10.404  -2.504   0.213  1.00  0.00     0.042 C
HETATM    5  C7  UNL     1     -11.116  -3.258  -0.922  1.00  0.00     0.062 C
HETATM    6  C8  UNL     1     -10.340  -2.987  -2.165  1.00  0.00     0.038 C
HETATM    7  C9  UNL     1     -10.611  -3.932  -3.290  1.00  0.00     0.006 C
HETATM    8  C10 UNL     1     -11.242  -5.206  -2.839  1.00  0.00     0.038 C
HETATM    9  C11 UNL     1     -10.960  -5.542  -1.396  1.00  0.00     0.062 C
HETATM   10  C12 UNL     1     -11.948  -6.651  -1.022  1.00  0.00     0.038 C
HETATM   11  C13 UNL     1     -11.527  -7.988  -1.535  1.00  0.00     0.010 C
HETATM   12  C14 UNL     1     -10.122  -8.346  -1.164  1.00  0.00     0.009 C
HETATM   13  C16 UNL     1      -9.230  -7.314  -1.859  1.00  0.00     0.010 C
HETATM   14  C17 UNL     1      -9.542  -5.982  -1.282  1.00  0.00     0.038 C
HETATM   15  O3  UNL     1     -11.194  -4.541  -0.515  1.00  0.00    -0.369 OA
HETATM   16  C18 UNL     1     -12.518  -2.726  -1.115  1.00  0.00     0.042 C
HETATM   17  C19 UNL     1     -12.600  -1.248  -1.242  1.00  0.00     0.037 C
ENDROOT
BRANCH   1  18
HETATM   18  C2  UNL     1     -11.551   1.138   1.564  1.00  0.00     0.137 C
HETATM   19  C1  UNL     1     -10.618   2.156   0.940  1.00  0.00     0.043 C
BRANCH  18  20
HETATM   20  O1  UNL     1     -12.450   1.842   2.365  1.00  0.00    -0.392 OA
ATOM     21  H1  UNL     1     -12.775   1.235   3.019  1.00  0.00     0.210 HD
ENDBRANCH  18  20
ENDBRANCH   1  18
BRANCH  12  22
HETATM   22  C15 UNL     1      -9.766  -9.686  -1.776  1.00  0.00     0.168 C
BRANCH  22  23
HETATM   23  O2  UNL     1     -10.537 -10.690  -1.147  1.00  0.00    -0.400 OA
ATOM     24  H2  UNL     1     -10.931 -11.237  -1.817  1.00  0.00     0.209 HD
ENDBRANCH  22  23
ENDBRANCH  12  22
TORSDOF 4
ENDMDL