MODEL 5
REMARK VINA RESULT: -7.331681384      3.107      7.121
REMARK  2 active torsions:
REMARK  status: ('A' for Active; 'I' for Inactive)
REMARK    1  A    between atoms: C6_6  and  C8_8
REMARK       I    between atoms: C8_8  and  N1_10
REMARK    2  A    between atoms: N1_10  and  C9_12
ROOT
HETATM    1  C8  UNL     1     -10.717  -5.233  -2.609  1.00  0.00     0.231 C
HETATM    2  O1  UNL     1     -10.045  -4.490  -3.316  1.00  0.00    -0.272 OA
HETATM    3  N1  UNL     1     -11.831  -4.851  -1.867  1.00  0.00    -0.324 N
ATOM      4  H1  UNL     1     -12.298  -5.575  -1.321  1.00  0.00     0.169 HD
ENDROOT
BRANCH   3   5
HETATM    5  C9  UNL     1     -12.385  -3.511  -1.803  1.00  0.00     0.069 A
HETATM    6  C10 UNL     1     -13.340  -3.133  -2.704  1.00  0.00     0.082 A
HETATM    7  S1  UNL     1     -13.679  -1.502  -2.247  1.00  0.00    -0.102 SA
HETATM    8  C11 UNL     1     -12.604  -1.372  -0.946  1.00  0.00     0.011 A
HETATM    9  C12 UNL     1     -12.005  -2.594  -0.892  1.00  0.00     0.069 A
HETATM   10  C16 UNL     1     -12.480  -0.114  -0.149  1.00  0.00     0.048 C
HETATM   11  N2  UNL     1     -10.997  -2.869   0.124  1.00  0.00    -0.387 N
HETATM   12  C13 UNL     1     -10.036  -2.003   0.769  1.00  0.00     0.120 C
ATOM     13  H2  UNL     1     -10.964  -3.840   0.433  1.00  0.00     0.159 HD
HETATM   14  C14 UNL     1     -10.586  -0.696   1.236  1.00  0.00     0.020 C
HETATM   15  C15 UNL     1     -11.000   0.141   0.045  1.00  0.00     0.007 C
ENDBRANCH   3   5
BRANCH   1  16
HETATM   16  C6  UNL     1     -10.299  -6.658  -2.548  1.00  0.00     0.042 C
HETATM   17  C5  UNL     1     -11.256  -7.514  -1.799  1.00  0.00     0.019 C
HETATM   18  C4  UNL     1     -11.838  -8.699  -2.446  1.00  0.00     0.002 C
HETATM   19  C3  UNL     1     -11.504  -8.978  -3.886  1.00  0.00     0.010 C
HETATM   20  C2  UNL     1     -11.189  -7.671  -4.506  1.00  0.00    -0.039 A
HETATM   21  C1  UNL     1     -12.391  -6.778  -4.479  1.00  0.00     0.015 C
HETATM   22  C17 UNL     1      -9.877  -7.309  -3.764  1.00  0.00     0.012 A
HETATM   23  C18 UNL     1     -10.045  -7.138  -5.152  1.00  0.00     0.016 A
HETATM   24  C7  UNL     1      -9.036  -6.542  -1.646  1.00  0.00     0.026 C
ENDBRANCH   1  16
TORSDOF 2
ENDMDL