MODEL 5
REMARK VINA RESULT: -6.869460084      3.355      5.004
REMARK  4 active torsions:
REMARK  status: ('A' for Active; 'I' for Inactive)
REMARK    1  A    between atoms: C4_6  and  C5_7
REMARK    2  A    between atoms: C6_8  and  C7_9
REMARK    3  A    between atoms: C9_11  and  C10_12
REMARK    4  A    between atoms: C14_16  and  O1_18
ROOT
HETATM    1  C1  UNL     1     -13.325  -5.906  -6.167  1.00  0.00     0.146 C
HETATM    2  N1  UNL     1     -12.137  -6.679  -6.432  1.00  0.00    -0.395 N
ATOM      3  H1  UNL     1     -11.781  -6.772  -7.383  1.00  0.00     0.159 HD
HETATM    4  C2  UNL     1     -11.535  -7.250  -5.452  1.00  0.00     0.052 C
HETATM    5  C3  UNL     1     -12.062  -7.109  -4.078  1.00  0.00     0.072 C
HETATM    6  C4  UNL     1     -11.171  -6.090  -3.358  1.00  0.00     0.048 C
HETATM    7  C14 UNL     1      -9.706  -6.498  -3.451  1.00  0.00     0.062 C
HETATM    8  C15 UNL     1      -9.003  -5.637  -4.459  1.00  0.00     0.046 C
HETATM    9  C16 UNL     1      -9.450  -7.944  -3.536  1.00  0.00     0.055 C
HETATM   10  C17 UNL     1      -9.287  -8.530  -4.907  1.00  0.00     0.022 C
HETATM   11  C18 UNL     1      -9.611 -10.028  -4.780  1.00  0.00     0.023 C
HETATM   12  C19 UNL     1      -7.904  -8.436  -5.465  1.00  0.00     0.023 C
HETATM   13  C20 UNL     1     -10.334  -8.015  -5.846  1.00  0.00     0.179 C
HETATM   14  O2  UNL     1     -10.199  -8.241  -7.060  1.00  0.00    -0.290 OA
ENDROOT
BRANCH   6  15
HETATM   15  C5  UNL     1     -11.646  -6.058  -1.982  1.00  0.00    -0.018 C
HETATM   16  C6  UNL     1     -12.143  -5.099  -1.300  1.00  0.00     0.003 C
BRANCH  16  17
HETATM   17  C7  UNL     1     -12.447  -3.709  -1.534  1.00  0.00    -0.065 C
HETATM   18  C8  UNL     1     -11.762  -2.602  -0.849  1.00  0.00     0.048 C
HETATM   19  C9  UNL     1     -13.423  -3.465  -2.419  1.00  0.00    -0.012 C
BRANCH  19  20
HETATM   20  C10 UNL     1     -13.953  -2.192  -2.861  1.00  0.00    -0.033 C
HETATM   21  C11 UNL     1     -13.801  -1.067  -1.858  1.00  0.00     0.018 C
HETATM   22  C12 UNL     1     -13.143  -1.751  -4.108  1.00  0.00     0.018 C
HETATM   23  C13 UNL     1     -15.377  -2.367  -3.342  1.00  0.00     0.018 C
ENDBRANCH  19  20
ENDBRANCH  16  17
ENDBRANCH   6  15
BRANCH   7  24
HETATM   24  O1  UNL     1      -9.178  -6.088  -2.191  1.00  0.00    -0.390 OA
ATOM     25  H1  UNL     1      -8.496  -5.473  -2.436  1.00  0.00     0.210 HD
ENDBRANCH   7  24
TORSDOF 4
ENDMDL