MODEL 3
REMARK VINA RESULT: -6.437914116      2.114      5.701
REMARK  2 active torsions:
REMARK  status: ('A' for Active; 'I' for Inactive)
REMARK    1  A    between atoms: C2_2  and  C3_3
REMARK    2  A    between atoms: C3_3  and  O1_4
ROOT
HETATM    1  C3  UNL     1      -8.383  -8.985  -2.792  1.00  0.00     0.114 C
HETATM    2  C4  UNL     1      -9.033  -7.643  -2.262  1.00  0.00     0.020 C
HETATM    3  C5  UNL     1     -10.267  -7.556  -1.789  1.00  0.00    -0.075 C
HETATM    4  C6  UNL     1     -11.240  -8.754  -1.628  1.00  0.00     0.037 C
HETATM    5  C7  UNL     1     -12.092  -8.874  -2.870  1.00  0.00     0.037 C
HETATM    6  C8  UNL     1     -11.450  -7.879  -3.827  1.00  0.00     0.130 C
HETATM    7  O2  UNL     1     -10.180  -8.104  -4.104  1.00  0.00    -0.382 OA
HETATM    8  C9  UNL     1      -9.511  -9.295  -3.880  1.00  0.00     0.214 C
HETATM    9  C10 UNL     1     -11.793  -6.533  -3.238  1.00  0.00     0.051 C
HETATM   10  C11 UNL     1     -11.581  -5.375  -4.096  1.00  0.00    -0.082 C
HETATM   11  C12 UNL     1     -10.996  -5.483  -5.279  1.00  0.00     0.015 C
HETATM   12  C13 UNL     1     -11.982  -3.958  -3.808  1.00  0.00     0.034 C
HETATM   13  C14 UNL     1     -12.800  -3.924  -2.569  1.00  0.00     0.009 C
HETATM   14  C15 UNL     1     -12.108  -4.126  -1.286  1.00  0.00    -0.005 C
HETATM   15  C16 UNL     1     -11.511  -2.869  -0.702  1.00  0.00     0.005 C
HETATM   16  C17 UNL     1     -10.076  -2.895  -1.171  1.00  0.00     0.001 C
HETATM   17  C18 UNL     1      -9.785  -4.316  -1.607  1.00  0.00     0.010 C
HETATM   18  C19 UNL     1     -10.971  -5.110  -1.256  1.00  0.00    -0.032 C
HETATM   19  C20 UNL     1     -10.786  -5.344   0.283  1.00  0.00     0.016 C
HETATM   20  C21 UNL     1     -11.265  -6.380  -1.794  1.00  0.00     0.033 C
ENDROOT
BRANCH   1  21
HETATM   21  C2  UNL     1      -8.356  -9.961  -1.740  1.00  0.00     0.007 C
HETATM   22  C1  UNL     1      -7.408 -10.077  -0.813  1.00  0.00     0.010 C
ENDBRANCH   1  21
BRANCH   1  23
HETATM   23  O1  UNL     1      -7.221  -8.634  -3.394  1.00  0.00    -0.380 OA
ATOM     24  H1  UNL     1      -6.454  -8.470  -2.858  1.00  0.00     0.211 HD
ENDBRANCH   1  23
TORSDOF 2
ENDMDL