MODEL 2
REMARK VINA RESULT: -8.772205806      1.627      3.313
REMARK  3 active torsions:
REMARK  status: ('A' for Active; 'I' for Inactive)
REMARK    1  A    between atoms: C11_11  and  C12_12
REMARK    2  A    between atoms: C15_15  and  O1_16
REMARK    3  A    between atoms: C20_22  and  O2_23
ROOT
HETATM    1  C12 UNL     1      -9.639  -4.532  -1.181  1.00  0.00    -0.011 C
HETATM    2  C13 UNL     1      -8.542  -4.073  -0.184  1.00  0.00     0.018 C
HETATM    3  C14 UNL     1      -9.241  -3.872  -2.464  1.00  0.00     0.044 C
HETATM    4  C15 UNL     1      -8.082  -4.475  -3.192  1.00  0.00     0.119 C
HETATM    5  C16 UNL     1      -7.817  -5.901  -2.957  1.00  0.00     0.043 C
HETATM    6  C17 UNL     1      -8.984  -6.669  -2.430  1.00  0.00    -0.019 C
HETATM    7  C18 UNL     1      -9.996  -7.000  -3.475  1.00  0.00     0.017 C
HETATM    8  C19 UNL     1      -8.413  -8.049  -2.029  1.00  0.00     0.017 C
HETATM    9  C20 UNL     1      -9.413  -6.029  -1.187  1.00  0.00     0.134 C
ENDROOT
BRANCH   1  10
HETATM   10  C11 UNL     1     -10.979  -4.221  -0.654  1.00  0.00     0.001 C
HETATM   11  C7  UNL     1     -11.522  -2.854  -0.721  1.00  0.00     0.003 C
HETATM   12  C6  UNL     1     -10.799  -1.652  -0.371  1.00  0.00     0.039 C
HETATM   13  C8  UNL     1     -12.210  -2.668  -2.081  1.00  0.00     0.022 C
HETATM   14  C4  UNL     1     -11.827  -0.583  -0.138  1.00  0.00    -0.083 C
HETATM   15  C3  UNL     1     -12.930  -0.590  -0.856  1.00  0.00     0.009 C
HETATM   16  C5  UNL     1     -11.575   0.431   0.874  1.00  0.00     0.043 C
HETATM   17  C2  UNL     1     -13.213  -1.598  -1.882  1.00  0.00    -0.063 C
HETATM   18  C1  UNL     1     -14.334  -1.490  -2.558  1.00  0.00     0.019 C
HETATM   19  C9  UNL     1     -12.779  -4.022  -2.287  1.00  0.00     0.010 C
HETATM   20  C10 UNL     1     -12.183  -4.917  -1.227  1.00  0.00     0.006 C
ENDBRANCH   1  10
BRANCH   9  21
HETATM   21  O2  UNL     1     -10.582  -6.680  -0.751  1.00  0.00    -0.394 OA
ATOM     22  H2  UNL     1     -10.520  -7.606  -0.949  1.00  0.00     0.210 HD
ENDBRANCH   9  21
BRANCH   4  23
HETATM   23  O1  UNL     1      -8.196  -4.288  -4.591  1.00  0.00    -0.396 OA
ATOM     24  H1  UNL     1      -8.660  -5.008  -5.002  1.00  0.00     0.210 HD
ENDBRANCH   4  23
TORSDOF 3
ENDMDL