MODEL 2
REMARK VINA RESULT: -6.332929003      5.991      8.478
REMARK  18 active torsions:
REMARK  status: ('A' for Active; 'I' for Inactive)
REMARK    1  A    between atoms: C3_3  and  C4_4
REMARK    2  A    between atoms: C4_4  and  N1_5
REMARK    3  A    between atoms: N1_5  and  O1_6
REMARK    4  A    between atoms: N2_9  and  C6_10
REMARK    5  A    between atoms: C6_10  and  C7_11
REMARK    6  A    between atoms: C7_11  and  C8_12
REMARK    7  A    between atoms: C8_12  and  C9_13
REMARK    8  A    between atoms: C9_13  and  C10_14
REMARK    9  A    between atoms: C10_14  and  C11_15
REMARK   10  A    between atoms: C11_15  and  C12_16
REMARK   11  A    between atoms: C12_16  and  C13_17
REMARK   12  A    between atoms: C13_17  and  N3_18
REMARK   13  A    between atoms: N3_18  and  C15_20
REMARK   14  A    between atoms: C15_20  and  C16_21
REMARK   15  A    between atoms: C16_21  and  O2_22
REMARK   16  A    between atoms: N5_26  and  C18_27
REMARK   17  A    between atoms: C18_27  and  C19_28
REMARK   18  A    between atoms: C19_28  and  O3_29
ROOT
HETATM    1  C1  UNL     1     -41.454   6.422 -31.776  1.00  0.00     0.069 C
HETATM    2  C2  UNL     1     -42.343   5.684 -32.703  1.00  0.00     0.023 A
HETATM    3  C3  UNL     1     -41.843   4.787 -33.608  1.00  0.00    -0.003 A
HETATM    4  C5  UNL     1     -42.656   4.209 -34.527  1.00  0.00     0.104 A
HETATM    5  N2  UNL     1     -44.030   4.516 -34.561  1.00  0.00    -0.330 N
HETATM    6  C17 UNL     1     -44.432   5.384 -33.621  1.00  0.00     0.201 A
HETATM    7  N4  UNL     1     -45.843   5.677 -33.634  1.00  0.00    -0.062 NA
HETATM    8  N5  UNL     1     -43.659   5.984 -32.689  1.00  0.00    -0.302 N
ENDROOT
BRANCH   5   9
HETATM    9  C6  UNL     1     -44.822   3.752 -35.467  1.00  0.00     0.131 C
BRANCH   9  10
HETATM   10  C7  UNL     1     -44.237   2.507 -36.040  1.00  0.00     0.020 C
BRANCH  10  11
HETATM   11  C8  UNL     1     -44.951   1.322 -35.353  1.00  0.00     0.002 C
BRANCH  11  12
HETATM   12  C9  UNL     1     -43.884   0.363 -34.862  1.00  0.00     0.000 C
BRANCH  12  13
HETATM   13  C10 UNL     1     -44.273  -1.044 -35.137  1.00  0.00     0.000 C
BRANCH  13  14
HETATM   14  C11 UNL     1     -43.820  -1.972 -34.039  1.00  0.00     0.002 C
BRANCH  14  15
HETATM   15  C12 UNL     1     -42.290  -2.007 -33.985  1.00  0.00     0.030 C
BRANCH  15  16
HETATM   16  C13 UNL     1     -41.879  -1.787 -32.554  1.00  0.00     0.272 C
BRANCH  16  17
HETATM   17  N3  UNL     1     -40.532  -1.339 -32.389  1.00  0.00     0.086 N
HETATM   18  C14 UNL     1     -39.556  -2.136 -33.058  1.00  0.00     0.310 C
BRANCH  17  19
HETATM   19  C15 UNL     1     -40.411   0.083 -32.589  1.00  0.00     0.297 C
BRANCH  19  20
HETATM   20  C16 UNL     1     -39.179   0.619 -31.989  1.00  0.00     0.194 C
BRANCH  20  21
HETATM   21  O2  UNL     1     -38.466   1.432 -32.950  1.00  0.00    -0.399 OA
ATOM     22  H2  UNL     1     -37.818   0.908 -33.407  1.00  0.00     0.209 HD
ENDBRANCH  20  21
ENDBRANCH  19  20
ENDBRANCH  17  19
ENDBRANCH  16  17
ENDBRANCH  15  16
ENDBRANCH  14  15
ENDBRANCH  13  14
ENDBRANCH  12  13
ENDBRANCH  11  12
ENDBRANCH  10  11
ENDBRANCH   9  10
ENDBRANCH   5   9
BRANCH   3  23
HETATM   23  C4  UNL     1     -40.426   4.416 -33.416  1.00  0.00     0.184 C
BRANCH  23  24
HETATM   24  N1  UNL     1     -40.128   3.343 -34.442  1.00  0.00    -0.099 NA
BRANCH  24  25
HETATM   25  O1  UNL     1     -38.820   3.712 -34.881  1.00  0.00    -0.296 OA
ATOM     26  H1  UNL     1     -38.945   3.791 -35.819  1.00  0.00     0.238 HD
ENDBRANCH  24  25
ENDBRANCH  23  24
ENDBRANCH   3  23
BRANCH   8  27
HETATM   27  C18 UNL     1     -44.262   6.649 -31.582  1.00  0.00     0.098 C
BRANCH  27  28
HETATM   28  C19 UNL     1     -44.608   8.064 -31.604  1.00  0.00     0.209 C
BRANCH  28  29
HETATM   29  O3  UNL     1     -45.200   8.620 -32.689  1.00  0.00    -0.396 OA
ATOM     30  H3  UNL     1     -44.756   8.650 -33.528  1.00  0.00     0.209 HD
ENDBRANCH  28  29
ENDBRANCH  27  28
ENDBRANCH   8  27
TORSDOF 18
ENDMDL