MODEL 1
REMARK VINA RESULT: -6.219963382      0.000      0.000
REMARK  18 active torsions:
REMARK  status: ('A' for Active; 'I' for Inactive)
REMARK    1  A    between atoms: C4_5  and  C5_6
REMARK    2  A    between atoms: C5_6  and  C6_7
REMARK    3  A    between atoms: C6_7  and  C7_8
REMARK    4  A    between atoms: C7_8  and  N2_9
REMARK    5  A    between atoms: N2_9  and  N3_10
REMARK    6  A    between atoms: N2_9  and  C8_13
REMARK    7  A    between atoms: C8_13  and  C9_14
REMARK    8  A    between atoms: C9_14  and  C10_15
REMARK    9  A    between atoms: C10_15  and  C11_16
REMARK   10  A    between atoms: C11_16  and  C12_17
REMARK   11  A    between atoms: C12_17  and  N4_18
REMARK   12  A    between atoms: C12_17  and  C13_22
REMARK   13  A    between atoms: C13_22  and  C14_23
REMARK   14  A    between atoms: C14_23  and  C15_24
REMARK   15  A    between atoms: C15_24  and  N5_25
REMARK   16  A    between atoms: N5_25  and  C16_27
REMARK   17  A    between atoms: C16_27  and  C17_28
REMARK   18  A    between atoms: C17_28  and  N6_29
ROOT
HETATM    1  C10 UNL     1     -35.861   4.108 -32.631  1.00  0.00     0.003 C
ENDROOT
BRANCH   1   2
HETATM    2  C9  UNL     1     -37.279   4.473 -32.516  1.00  0.00     0.016 C
BRANCH   2   3
HETATM    3  C8  UNL     1     -38.240   3.330 -32.247  1.00  0.00     0.113 C
BRANCH   3   4
HETATM    4  N2  UNL     1     -39.430   3.618 -33.018  1.00  0.00    -0.238 NA
BRANCH   4   5
HETATM    5  C7  UNL     1     -40.028   4.883 -32.657  1.00  0.00     0.113 C
BRANCH   5   6
HETATM    6  C6  UNL     1     -40.730   5.503 -33.849  1.00  0.00     0.022 C
BRANCH   6   7
HETATM    7  C5  UNL     1     -42.194   5.786 -33.591  1.00  0.00     0.058 C
BRANCH   7   8
HETATM    8  C4  UNL     1     -42.964   4.694 -34.241  1.00  0.00     0.011 A
HETATM    9  C3  UNL     1     -44.136   4.915 -34.931  1.00  0.00     0.042 A
HETATM   10  C2  UNL     1     -44.828   3.875 -35.531  1.00  0.00     0.093 A
HETATM   11  N1  UNL     1     -44.360   2.612 -35.447  1.00  0.00    -0.357 N
HETATM   12  C1  UNL     1     -45.094   1.508 -36.086  1.00  0.00     0.156 C
HETATM   13  C19 UNL     1     -43.216   2.404 -34.773  1.00  0.00     0.182 A
HETATM   14  N9  UNL     1     -42.531   3.400 -34.184  1.00  0.00    -0.356 N
ATOM     15  H9  UNL     1     -41.668   3.185 -33.684  1.00  0.00     0.166 HD
ENDBRANCH   7   8
ENDBRANCH   6   7
ENDBRANCH   5   6
ENDBRANCH   4   5
BRANCH   4  16
HETATM   16  N3  UNL     1     -39.232   3.491 -34.388  1.00  0.00    -0.363 NA
ATOM     17  H32 UNL     1     -39.967   2.953 -34.848  1.00  0.00     0.171 HD
ATOM     18  H31 UNL     1     -38.299   3.151 -34.621  1.00  0.00     0.171 HD
ENDBRANCH   4  16
ENDBRANCH   3   4
ENDBRANCH   2   3
ENDBRANCH   1   2
BRANCH   1  19
HETATM   19  C11 UNL     1     -34.968   4.821 -33.544  1.00  0.00     0.033 C
BRANCH  19  20
HETATM   20  C12 UNL     1     -34.181   5.993 -33.080  1.00  0.00     0.183 C
BRANCH  20  21
HETATM   21  N4  UNL     1     -32.875   6.040 -33.728  1.00  0.00    -0.075 N
ATOM     22  H43 UNL     1     -32.896   6.610 -34.574  1.00  0.00     0.274 HD
ATOM     23  H42 UNL     1     -32.208   6.590 -33.187  1.00  0.00     0.274 HD
ATOM     24  H41 UNL     1     -32.522   5.102 -33.915  1.00  0.00     0.274 HD
ENDBRANCH  20  21
BRANCH  20  25
HETATM   25  C13 UNL     1     -34.189   6.211 -31.628  1.00  0.00     0.037 C
BRANCH  25  26
HETATM   26  C14 UNL     1     -35.157   7.320 -31.207  1.00  0.00     0.046 C
BRANCH  26  27
HETATM   27  C15 UNL     1     -34.482   8.502 -30.625  1.00  0.00     0.060 C
BRANCH  27  28
HETATM   28  N5  UNL     1     -33.391   9.075 -31.233  1.00  0.00    -0.381 N
ATOM     29  H5  UNL     1     -33.422   9.125 -32.251  1.00  0.00     0.164 HD
BRANCH  28  30
HETATM   30  C16 UNL     1     -32.257   9.593 -30.637  1.00  0.00     0.079 C
BRANCH  30  31
HETATM   31  C17 UNL     1     -30.970   8.983 -31.073  1.00  0.00     0.166 C
BRANCH  31  32
HETATM   32  N6  UNL     1     -30.932   8.465 -32.392  1.00  0.00    -0.362 N
HETATM   33  C18 UNL     1     -30.148   8.522 -33.350  1.00  0.00     0.197 C
HETATM   34  N7  UNL     1     -30.543   7.804 -34.550  1.00  0.00    -0.067 NA
HETATM   35  N8  UNL     1     -28.915   9.231 -33.341  1.00  0.00    -0.067 NA
ATOM     36  H6  UNL     1     -31.757   7.906 -32.607  1.00  0.00     0.162 HD
ENDBRANCH  31  32
ENDBRANCH  30  31
ENDBRANCH  28  30
ENDBRANCH  27  28
ENDBRANCH  26  27
ENDBRANCH  25  26
ENDBRANCH  20  25
ENDBRANCH  19  20
ENDBRANCH   1  19
TORSDOF 18
ENDMDL