MODEL 3
REMARK VINA RESULT: -6.743486485      2.759      5.226
REMARK  15 active torsions:
REMARK  status: ('A' for Active; 'I' for Inactive)
REMARK    1  A    between atoms: N3_4  and  C2_6
REMARK    2  A    between atoms: C2_6  and  C3_7
REMARK    3  A    between atoms: C3_7  and  N4_8
REMARK    4  A    between atoms: N4_8  and  C4_9
REMARK    5  A    between atoms: N4_8  and  C14_26
REMARK    6  A    between atoms: C4_9  and  C5_10
REMARK    7  A    between atoms: C5_10  and  C6_11
REMARK    8  A    between atoms: C6_11  and  C7_12
REMARK    9  A    between atoms: C7_12  and  C8_13
REMARK   10  A    between atoms: C14_26  and  C15_27
REMARK   11  A    between atoms: C15_27  and  N8_28
REMARK   12  A    between atoms: N8_28  and  C16_31
REMARK   13  A    between atoms: C16_31  and  C17_32
REMARK   14  A    between atoms: C17_32  and  N9_33
REMARK   15  A    between atoms: N9_33  and  C18_35
ROOT
HETATM    1  N4  UNL     1     -41.447   2.560 -33.721  1.00  0.00     0.091 N
ENDROOT
BRANCH   1   2
HETATM    2  C3  UNL     1     -41.645   1.495 -32.749  1.00  0.00     0.292 C
BRANCH   2   3
HETATM    3  C2  UNL     1     -40.533   0.518 -32.615  1.00  0.00     0.152 C
BRANCH   3   4
HETATM    4  N3  UNL     1     -41.181  -0.809 -32.693  1.00  0.00    -0.365 N
HETATM    5  C1  UNL     1     -40.568  -1.885 -32.949  1.00  0.00     0.197 C
HETATM    6  N1  UNL     1     -41.317  -3.085 -32.995  1.00  0.00    -0.067 NA
HETATM    7  N2  UNL     1     -39.174  -1.968 -33.190  1.00  0.00    -0.067 NA
ATOM      8  H3  UNL     1     -42.187  -0.860 -32.530  1.00  0.00     0.161 HD
ENDBRANCH   3   4
ENDBRANCH   2   3
ENDBRANCH   1   2
BRANCH   1   9
HETATM    9  C4  UNL     1     -40.049   2.833 -33.831  1.00  0.00     0.272 C
BRANCH   9  10
HETATM   10  C5  UNL     1     -39.553   4.201 -33.707  1.00  0.00     0.030 C
BRANCH  10  11
HETATM   11  C6  UNL     1     -39.100   4.450 -32.263  1.00  0.00     0.008 C
BRANCH  11  12
HETATM   12  C7  UNL     1     -37.833   3.740 -31.902  1.00  0.00     0.057 C
BRANCH  12  13
HETATM   13  C8  UNL     1     -36.680   4.662 -32.128  1.00  0.00     0.012 A
HETATM   14  C9  UNL     1     -35.706   4.553 -33.090  1.00  0.00     0.046 A
HETATM   15  C10 UNL     1     -34.847   5.634 -32.936  1.00  0.00     0.078 A
HETATM   16  C11 UNL     1     -33.705   6.011 -33.638  1.00  0.00     0.260 A
HETATM   17  C13 UNL     1     -35.330   6.367 -31.878  1.00  0.00     0.122 A
HETATM   18  O1  UNL     1     -33.294   5.336 -34.582  1.00  0.00    -0.267 OA
HETATM   19  N5  UNL     1     -33.063   7.133 -33.253  1.00  0.00    -0.319 N
HETATM   20  C12 UNL     1     -33.545   7.855 -32.205  1.00  0.00     0.184 A
ATOM     21  H5  UNL     1     -32.223   7.438 -33.744  1.00  0.00     0.169 HD
HETATM   22  N6  UNL     1     -34.643   7.479 -31.543  1.00  0.00    -0.338 N
ATOM     23  H6  UNL     1     -34.971   8.048 -30.762  1.00  0.00     0.168 HD
HETATM   24  N7  UNL     1     -36.442   5.757 -31.406  1.00  0.00    -0.345 N
ATOM     25  H7  UNL     1     -37.009   6.083 -30.623  1.00  0.00     0.167 HD
ENDBRANCH  12  13
ENDBRANCH  11  12
ENDBRANCH  10  11
ENDBRANCH   9  10
ENDBRANCH   1   9
BRANCH   1  26
HETATM   26  C14 UNL     1     -42.215   2.346 -34.884  1.00  0.00     0.300 C
BRANCH  26  27
HETATM   27  C15 UNL     1     -43.562   1.728 -34.727  1.00  0.00     0.262 C
BRANCH  27  28
HETATM   28  N8  UNL     1     -44.625   2.713 -34.647  1.00  0.00    -0.072 N
ATOM     29  H82 UNL     1     -45.538   2.261 -34.618  1.00  0.00     0.277 HD
ATOM     30  H81 UNL     1     -44.633   3.166 -33.733  1.00  0.00     0.277 HD
BRANCH  28  31
HETATM   31  C16 UNL     1     -44.568   3.676 -35.690  1.00  0.00     0.251 C
BRANCH  31  32
HETATM   32  C17 UNL     1     -45.142   5.032 -35.337  1.00  0.00     0.149 C
BRANCH  32  33
HETATM   33  N9  UNL     1     -44.068   5.896 -34.890  1.00  0.00    -0.367 N
ATOM     34  H9  UNL     1     -43.178   5.843 -35.387  1.00  0.00     0.161 HD
BRANCH  33  35
HETATM   35  C18 UNL     1     -44.166   6.809 -33.811  1.00  0.00     0.348 C
HETATM   36  O2  UNL     1     -44.154   8.065 -34.103  1.00  0.00    -0.284 OA
ENDBRANCH  33  35
ENDBRANCH  32  33
ENDBRANCH  31  32
ENDBRANCH  28  31
ENDBRANCH  27  28
ENDBRANCH  26  27
ENDBRANCH   1  26
TORSDOF 15
ENDMDL