MODEL 3
REMARK VINA RESULT: -6.036364223      1.358      2.064
REMARK  16 active torsions:
REMARK  status: ('A' for Active; 'I' for Inactive)
REMARK       I    between atoms: C2_2  and  N1_4
REMARK    1  A    between atoms: N1_4  and  C3_6
REMARK    2  A    between atoms: C3_6  and  C4_7
REMARK    3  A    between atoms: C7_10  and  C8_11
REMARK    4  A    between atoms: C8_11  and  N2_12
REMARK       I    between atoms: N2_12  and  C9_14
REMARK    5  A    between atoms: N4_16  and  C10_18
REMARK    6  A    between atoms: C10_18  and  C11_19
REMARK    7  A    between atoms: C11_19  and  N5_20
REMARK    8  A    between atoms: N5_20  and  C12_23
REMARK    9  A    between atoms: C12_23  and  C13_24
REMARK   10  A    between atoms: C13_24  and  O2_25
REMARK   11  A    between atoms: O2_25  and  C14_26
REMARK   12  A    between atoms: C14_26  and  C15_27
REMARK   13  A    between atoms: C15_27  and  N6_28
REMARK   14  A    between atoms: N6_28  and  C16_30
REMARK   15  A    between atoms: C16_30  and  C17_31
REMARK   16  A    between atoms: C17_31  and  N7_32
ROOT
HETATM    1  N2  UNL     1     -45.891   0.421 -36.050  1.00  0.00    -0.360 N
ATOM      2  H2  UNL     1     -46.763   0.944 -35.975  1.00  0.00     0.162 HD
HETATM    3  C9  UNL     1     -46.012  -0.963 -36.197  1.00  0.00     0.184 C
HETATM    4  N3  UNL     1     -47.235  -1.496 -36.750  1.00  0.00    -0.064 NA
HETATM    5  N4  UNL     1     -45.144  -1.819 -35.891  1.00  0.00    -0.363 N
ATOM      6  H4  UNL     1     -45.432  -2.780 -36.076  1.00  0.00     0.162 HD
ENDROOT
BRANCH   5   7
HETATM    7  C10 UNL     1     -43.839  -1.709 -35.337  1.00  0.00     0.150 C
BRANCH   7   8
HETATM    8  C11 UNL     1     -43.977  -1.946 -33.837  1.00  0.00     0.252 C
BRANCH   8   9
HETATM    9  N5  UNL     1     -43.603  -0.832 -33.034  1.00  0.00    -0.072 N
ATOM     10  H52 UNL     1     -44.325  -0.111 -33.025  1.00  0.00     0.277 HD
ATOM     11  H51 UNL     1     -43.606  -1.063 -32.041  1.00  0.00     0.277 HD
BRANCH   9  12
HETATM   12  C12 UNL     1     -42.324  -0.306 -33.460  1.00  0.00     0.258 C
BRANCH  12  13
HETATM   13  C13 UNL     1     -41.783   0.718 -32.485  1.00  0.00     0.195 C
BRANCH  13  14
HETATM   14  O2  UNL     1     -40.917   1.624 -33.004  1.00  0.00    -0.385 OA
BRANCH  14  15
HETATM   15  C14 UNL     1     -41.361   2.371 -34.044  1.00  0.00     0.212 C
BRANCH  15  16
HETATM   16  C15 UNL     1     -41.530   3.839 -33.736  1.00  0.00     0.086 C
BRANCH  16  17
HETATM   17  N6  UNL     1     -40.432   4.657 -34.003  1.00  0.00    -0.379 N
ATOM     18  H6  UNL     1     -40.596   5.642 -34.213  1.00  0.00     0.164 HD
BRANCH  17  19
HETATM   19  C16 UNL     1     -39.124   4.188 -33.998  1.00  0.00     0.087 C
BRANCH  19  20
HETATM   20  C17 UNL     1     -38.425   4.100 -32.674  1.00  0.00     0.274 C
BRANCH  20  21
HETATM   21  N7  UNL     1     -38.047   2.719 -32.457  1.00  0.00    -0.075 N
ATOM     22  H73 UNL     1     -38.775   2.179 -31.990  1.00  0.00     0.274 HD
ATOM     23  H72 UNL     1     -38.011   2.181 -33.323  1.00  0.00     0.274 HD
ATOM     24  H71 UNL     1     -37.163   2.711 -31.950  1.00  0.00     0.274 HD
ENDBRANCH  20  21
ENDBRANCH  19  20
ENDBRANCH  17  19
ENDBRANCH  16  17
ENDBRANCH  15  16
ENDBRANCH  14  15
ENDBRANCH  13  14
ENDBRANCH  12  13
ENDBRANCH   9  12
ENDBRANCH   8   9
ENDBRANCH   7   8
ENDBRANCH   5   7
BRANCH   1  25
HETATM   25  C8  UNL     1     -44.685   1.192 -35.993  1.00  0.00     0.160 C
BRANCH  25  26
HETATM   26  C7  UNL     1     -44.866   2.453 -35.211  1.00  0.00    -0.041 A
HETATM   27  C6  UNL     1     -45.128   2.362 -33.873  1.00  0.00     0.009 A
HETATM   28  C5  UNL     1     -45.305   3.507 -33.108  1.00  0.00     0.009 A
HETATM   29  C4  UNL     1     -45.218   4.745 -33.691  1.00  0.00    -0.041 A
HETATM   30  C19 UNL     1     -44.954   4.814 -35.045  1.00  0.00     0.009 A
HETATM   31  C18 UNL     1     -44.776   3.672 -35.813  1.00  0.00     0.009 A
BRANCH  29  32
HETATM   32  C3  UNL     1     -45.401   5.975 -32.884  1.00  0.00     0.161 C
BRANCH  32  33
HETATM   33  N1  UNL     1     -44.150   6.254 -32.208  1.00  0.00    -0.357 N
HETATM   34  C2  UNL     1     -43.203   7.177 -32.668  1.00  0.00     0.213 C
HETATM   35  C1  UNL     1     -41.952   7.403 -31.918  1.00  0.00     0.117 C
HETATM   36  O1  UNL     1     -43.405   7.820 -33.718  1.00  0.00    -0.274 OA
ATOM     37  H1  UNL     1     -43.947   5.748 -31.346  1.00  0.00     0.162 HD
ENDBRANCH  32  33
ENDBRANCH  29  32
ENDBRANCH  25  26
ENDBRANCH   1  25
TORSDOF 16
ENDMDL