MODEL 5
REMARK VINA RESULT: -6.102932961      2.754      6.197
REMARK  17 active torsions:
REMARK  status: ('A' for Active; 'I' for Inactive)
REMARK    1  A    between atoms: N1_1  and  C1_4
REMARK    2  A    between atoms: C3_6  and  C4_7
REMARK    3  A    between atoms: C4_7  and  C5_8
REMARK    4  A    between atoms: C5_8  and  C6_9
REMARK    5  A    between atoms: C6_9  and  O1_10
REMARK    6  A    between atoms: O1_10  and  C7_11
REMARK    7  A    between atoms: C7_11  and  C8_12
REMARK    8  A    between atoms: C8_12  and  N2_13
REMARK    9  A    between atoms: N2_13  and  C9_15
REMARK   10  A    between atoms: C9_15  and  C10_16
REMARK   11  A    between atoms: C10_16  and  O2_17
REMARK   12  A    between atoms: N4_23  and  C12_24
REMARK   13  A    between atoms: C12_24  and  C13_25
REMARK   14  A    between atoms: C13_25  and  C14_26
REMARK   15  A    between atoms: C14_26  and  C15_27
REMARK   16  A    between atoms: C15_27  and  C16_28
REMARK   17  A    between atoms: C16_28  and  N5_29
ROOT
HETATM    1  C1  UNL     1     -42.259   6.661 -33.071  1.00  0.00     0.106 A
HETATM    2  C2  UNL     1     -41.065   5.993 -32.849  1.00  0.00     0.073 A
HETATM    3  C3  UNL     1     -40.818   4.792 -33.453  1.00  0.00     0.017 A
HETATM    4  N3  UNL     1     -41.778   4.286 -34.270  1.00  0.00    -0.312 N
ATOM      5  H3  UNL     1     -41.624   3.392 -34.737  1.00  0.00     0.170 HD
HETATM    6  C11 UNL     1     -42.950   4.965 -34.474  1.00  0.00     0.328 A
HETATM    7  O3  UNL     1     -43.826   4.489 -35.228  1.00  0.00    -0.246 OA
HETATM    8  N4  UNL     1     -43.173   6.131 -33.877  1.00  0.00    -0.286 N
ENDROOT
BRANCH   3   9
HETATM    9  C4  UNL     1     -39.542   4.005 -33.238  1.00  0.00     0.059 C
BRANCH   9  10
HETATM   10  C5  UNL     1     -39.781   2.636 -33.712  1.00  0.00     0.032 C
BRANCH  10  11
HETATM   11  C6  UNL     1     -39.673   1.509 -32.743  1.00  0.00     0.168 C
BRANCH  11  12
HETATM   12  O1  UNL     1     -40.773   0.908 -32.363  1.00  0.00    -0.386 OA
BRANCH  12  13
HETATM   13  C7  UNL     1     -41.207  -0.314 -32.582  1.00  0.00     0.211 C
BRANCH  13  14
HETATM   14  C8  UNL     1     -42.655  -0.343 -33.084  1.00  0.00     0.081 C
BRANCH  14  15
HETATM   15  N2  UNL     1     -43.016  -1.430 -33.891  1.00  0.00    -0.398 N
ATOM     16  H2  UNL     1     -43.283  -1.300 -34.867  1.00  0.00     0.158 HD
BRANCH  15  17
HETATM   17  C9  UNL     1     -42.993  -2.715 -33.296  1.00  0.00     0.144 C
BRANCH  17  18
HETATM   18  C10 UNL     1     -44.053  -2.801 -32.189  1.00  0.00     0.183 C
BRANCH  18  19
HETATM   19  O2  UNL     1     -44.131  -4.131 -31.779  1.00  0.00    -0.399 OA
ATOM     20  H2  UNL     1     -44.517  -4.143 -30.911  1.00  0.00     0.209 HD
ENDBRANCH  18  19
ENDBRANCH  17  18
ENDBRANCH  15  17
ENDBRANCH  14  15
ENDBRANCH  13  14
ENDBRANCH  12  13
ENDBRANCH  11  12
ENDBRANCH  10  11
ENDBRANCH   9  10
ENDBRANCH   3   9
BRANCH   1  21
HETATM   21  N1  UNL     1     -42.468   7.813 -32.476  1.00  0.00    -0.385 N
ATOM     22  H12 UNL     1     -42.569   7.870 -31.463  1.00  0.00     0.157 HD
ATOM     23  H11 UNL     1     -42.528   8.660 -33.040  1.00  0.00     0.157 HD
ENDBRANCH   1  21
BRANCH   8  24
HETATM   24  C12 UNL     1     -44.442   6.867 -34.094  1.00  0.00     0.135 C
BRANCH  24  25
HETATM   25  C13 UNL     1     -45.403   6.336 -33.112  1.00  0.00     0.020 C
BRANCH  25  26
HETATM   26  C14 UNL     1     -46.131   7.209 -32.181  1.00  0.00     0.003 C
BRANCH  26  27
HETATM   27  C15 UNL     1     -45.943   8.668 -32.241  1.00  0.00     0.022 C
BRANCH  27  28
HETATM   28  C16 UNL     1     -46.250   9.502 -31.062  1.00  0.00     0.148 C
BRANCH  28  29
HETATM   29  N5  UNL     1     -46.294  10.936 -31.435  1.00  0.00    -0.304 N
HETATM   30  C17 UNL     1     -47.139  11.825 -30.888  1.00  0.00     0.111 A
HETATM   31  C18 UNL     1     -46.925  13.059 -31.452  1.00  0.00     0.037 A
HETATM   32  C19 UNL     1     -45.914  12.866 -32.361  1.00  0.00     0.108 A
HETATM   33  N6  UNL     1     -45.569  11.568 -32.312  1.00  0.00    -0.310 N
ATOM     34  H6  UNL     1     -44.841  11.138 -32.883  1.00  0.00     0.186 HD
ENDBRANCH  28  29
ENDBRANCH  27  28
ENDBRANCH  26  27
ENDBRANCH  25  26
ENDBRANCH  24  25
ENDBRANCH   8  24
TORSDOF 17
ENDMDL