MODEL 4
REMARK VINA RESULT: -6.782380934      4.555      7.930
REMARK  16 active torsions:
REMARK  status: ('A' for Active; 'I' for Inactive)
REMARK    1  A    between atoms: C2_2  and  C3_3
REMARK    2  A    between atoms: C2_2  and  N3_29
REMARK    3  A    between atoms: C3_3  and  O1_4
REMARK    4  A    between atoms: O1_4  and  C4_5
REMARK    5  A    between atoms: C4_5  and  C5_6
REMARK    6  A    between atoms: C5_6  and  O2_7
REMARK    7  A    between atoms: O2_7  and  C6_8
REMARK    8  A    between atoms: C6_8  and  C7_9
REMARK    9  A    between atoms: C7_9  and  O3_10
REMARK   10  A    between atoms: C7_9  and  N1_12
REMARK   11  A    between atoms: N1_12  and  C8_14
REMARK   12  A    between atoms: C8_14  and  C9_15
REMARK   13  A    between atoms: C9_15  and  C11_17
REMARK   14  A    between atoms: C11_17  and  C12_18
REMARK   15  A    between atoms: C12_18  and  C13_19
REMARK   16  A    between atoms: N2_25  and  C19_27
ROOT
HETATM    1  N1  UNL     1     -40.322   4.105 -32.788  1.00  0.00    -0.374 N
ATOM      2  H1  UNL     1     -40.760   3.766 -31.932  1.00  0.00     0.161 HD
ENDROOT
BRANCH   1   3
HETATM    3  C7  UNL     1     -39.131   3.516 -33.248  1.00  0.00     0.241 C
BRANCH   3   4
HETATM    4  C6  UNL     1     -38.656   2.346 -32.407  1.00  0.00     0.221 C
BRANCH   4   5
HETATM    5  O2  UNL     1     -38.992   1.119 -32.904  1.00  0.00    -0.385 OA
BRANCH   5   6
HETATM    6  C5  UNL     1     -39.442   0.187 -32.013  1.00  0.00     0.194 C
BRANCH   6   7
HETATM    7  C4  UNL     1     -39.506  -1.221 -32.554  1.00  0.00     0.193 C
BRANCH   7   8
HETATM    8  O1  UNL     1     -40.752  -1.539 -33.047  1.00  0.00    -0.387 OA
BRANCH   8   9
HETATM    9  C3  UNL     1     -41.792  -1.329 -32.158  1.00  0.00     0.192 C
BRANCH   9  10
HETATM   10  C2  UNL     1     -43.001  -0.671 -32.798  1.00  0.00     0.103 C
HETATM   11  C1  UNL     1     -43.831  -1.815 -33.392  1.00  0.00     0.034 C
BRANCH  10  12
HETATM   12  N3  UNL     1     -42.609   0.202 -33.876  1.00  0.00    -0.361 N
HETATM   13  C20 UNL     1     -42.468   1.469 -33.725  1.00  0.00     0.197 C
HETATM   14  N4  UNL     1     -42.072   2.229 -34.878  1.00  0.00    -0.067 NA
HETATM   15  N5  UNL     1     -42.696   2.085 -32.474  1.00  0.00    -0.067 NA
ATOM     16  H3  UNL     1     -42.435  -0.204 -34.796  1.00  0.00     0.162 HD
ENDBRANCH  10  12
ENDBRANCH   9  10
ENDBRANCH   8   9
ENDBRANCH   7   8
ENDBRANCH   6   7
ENDBRANCH   5   6
ENDBRANCH   4   5
ENDBRANCH   3   4
BRANCH   3  17
HETATM   17  O3  UNL     1     -39.183   3.094 -34.554  1.00  0.00    -0.375 OA
ATOM     18  H3  UNL     1     -39.912   3.538 -34.969  1.00  0.00     0.212 HD
ENDBRANCH   3  17
ENDBRANCH   1   3
BRANCH   1  19
HETATM   19  C8  UNL     1     -40.911   5.159 -33.508  1.00  0.00     0.068 C
BRANCH  19  20
HETATM   20  C9  UNL     1     -42.026   5.924 -32.875  1.00  0.00     0.066 C
HETATM   21  C10 UNL     1     -41.776   7.401 -33.074  1.00  0.00     0.022 C
BRANCH  20  22
HETATM   22  C11 UNL     1     -43.361   5.562 -33.349  1.00  0.00     0.002 C
HETATM   23  N2  UNL     1     -43.481   5.264 -34.627  1.00  0.00    -0.341 N
ATOM     24  H2  UNL     1     -42.636   5.308 -35.196  1.00  0.00     0.167 HD
BRANCH  22  25
HETATM   25  C12 UNL     1     -44.578   5.465 -32.559  1.00  0.00     0.091 C
BRANCH  25  26
HETATM   26  C13 UNL     1     -45.136   6.673 -31.980  1.00  0.00    -0.053 A
HETATM   27  C14 UNL     1     -45.388   6.777 -30.637  1.00  0.00     0.007 A
HETATM   28  C15 UNL     1     -45.913   7.955 -30.088  1.00  0.00     0.001 A
HETATM   29  C16 UNL     1     -46.185   9.034 -30.906  1.00  0.00     0.000 A
HETATM   30  C17 UNL     1     -45.932   8.936 -32.270  1.00  0.00     0.001 A
HETATM   31  C18 UNL     1     -45.415   7.762 -32.771  1.00  0.00     0.007 A
ENDBRANCH  25  26
ENDBRANCH  22  25
BRANCH  23  32
HETATM   32  C19 UNL     1     -44.656   4.896 -35.266  1.00  0.00     0.352 C
HETATM   33  O4  UNL     1     -44.649   3.871 -36.027  1.00  0.00    -0.283 OA
ENDBRANCH  23  32
ENDBRANCH  20  22
ENDBRANCH  19  20
ENDBRANCH   1  19
TORSDOF 16
ENDMDL