MODEL 4
REMARK VINA RESULT: -5.317098703      3.699     11.101
REMARK  18 active torsions:
REMARK  status: ('A' for Active; 'I' for Inactive)
REMARK    1  A    between atoms: N1_2  and  C3_4
REMARK    2  A    between atoms: C3_4  and  N2_6
REMARK    3  A    between atoms: N2_6  and  C4_8
REMARK    4  A    between atoms: C4_8  and  C5_9
REMARK    5  A    between atoms: C5_9  and  N3_10
REMARK    6  A    between atoms: N3_10  and  C6_12
REMARK    7  A    between atoms: C6_12  and  C7_13
REMARK    8  A    between atoms: C7_13  and  C8_14
REMARK    9  A    between atoms: C8_14  and  C9_15
REMARK   10  A    between atoms: C9_15  and  N4_16
REMARK   11  A    between atoms: N4_16  and  C10_19
REMARK   12  A    between atoms: C10_19  and  C11_20
REMARK   13  A    between atoms: C11_20  and  C12_21
REMARK   14  A    between atoms: C12_21  and  N5_22
REMARK   15  A    between atoms: N5_22  and  C13_24
REMARK   16  A    between atoms: C13_24  and  C14_25
REMARK   17  A    between atoms: C14_25  and  N6_26
REMARK   18  A    between atoms: N6_26  and  C15_28
ROOT
HETATM    1  N4  UNL     1     -34.982   6.392 -31.875  1.00  0.00    -0.075 N
ATOM      2  H41 UNL     1     -34.462   6.487 -31.004  1.00  0.00     0.277 HD
ATOM      3  H42 UNL     1     -35.035   7.381 -32.119  1.00  0.00     0.277 HD
ENDROOT
BRANCH   1   4
HETATM    4  C9  UNL     1     -36.300   5.797 -31.674  1.00  0.00     0.232 C
BRANCH   4   5
HETATM    5  C8  UNL     1     -36.495   4.680 -32.636  1.00  0.00     0.029 C
BRANCH   5   6
HETATM    6  C7  UNL     1     -37.601   3.704 -32.230  1.00  0.00     0.021 C
BRANCH   6   7
HETATM    7  C6  UNL     1     -38.846   4.046 -33.014  1.00  0.00     0.113 C
BRANCH   7   8
HETATM    8  N3  UNL     1     -39.220   2.913 -33.787  1.00  0.00    -0.420 N
ATOM      9  H3  UNL     1     -38.685   2.624 -34.606  1.00  0.00     0.153 HD
BRANCH   8  10
HETATM   10  C5  UNL     1     -40.386   2.196 -33.362  1.00  0.00     0.133 C
BRANCH  10  11
HETATM   11  C4  UNL     1     -41.433   2.454 -34.471  1.00  0.00     0.141 C
BRANCH  11  12
HETATM   12  N2  UNL     1     -42.528   3.157 -33.817  1.00  0.00    -0.366 N
ATOM     13  H2  UNL     1     -42.692   3.043 -32.816  1.00  0.00     0.161 HD
BRANCH  12  14
HETATM   14  C3  UNL     1     -43.361   4.000 -34.590  1.00  0.00     0.169 C
HETATM   15  S1  UNL     1     -44.398   3.338 -35.664  1.00  0.00    -0.041 SA
BRANCH  14  16
HETATM   16  N1  UNL     1     -43.257   5.397 -34.403  1.00  0.00    -0.367 N
HETATM   17  C1  UNL     1     -42.020   5.957 -33.908  1.00  0.00     0.151 C
HETATM   18  C2  UNL     1     -44.377   6.248 -34.688  1.00  0.00     0.151 C
ENDBRANCH  14  16
ENDBRANCH  12  14
ENDBRANCH  11  12
ENDBRANCH  10  11
ENDBRANCH   8  10
ENDBRANCH   7   8
ENDBRANCH   6   7
ENDBRANCH   5   6
ENDBRANCH   4   5
ENDBRANCH   1   4
BRANCH   1  19
HETATM   19  C10 UNL     1     -34.265   5.622 -32.862  1.00  0.00     0.234 C
BRANCH  19  20
HETATM   20  C11 UNL     1     -33.222   6.469 -33.504  1.00  0.00     0.047 C
BRANCH  20  21
HETATM   21  C12 UNL     1     -32.969   7.793 -32.783  1.00  0.00     0.120 C
BRANCH  21  22
HETATM   22  N5  UNL     1     -32.193   8.650 -33.597  1.00  0.00    -0.401 N
ATOM     23  H5  UNL     1     -32.646   9.409 -34.105  1.00  0.00     0.158 HD
BRANCH  22  24
HETATM   24  C13 UNL     1     -30.801   8.468 -33.714  1.00  0.00     0.075 C
BRANCH  24  25
HETATM   25  C14 UNL     1     -29.935   9.118 -32.685  1.00  0.00     0.165 C
BRANCH  25  26
HETATM   26  N6  UNL     1     -28.998   8.265 -32.025  1.00  0.00    -0.370 N
ATOM     27  H6  UNL     1     -28.452   7.626 -32.604  1.00  0.00     0.161 HD
BRANCH  26  28
HETATM   28  C15 UNL     1     -28.788   8.241 -30.738  1.00  0.00     0.117 A
HETATM   29  C16 UNL     1     -27.868   9.068 -30.094  1.00  0.00     0.068 A
HETATM   30  C17 UNL     1     -27.936   8.740 -28.765  1.00  0.00     0.111 A
HETATM   31  N7  UNL     1     -28.851   7.762 -28.589  1.00  0.00    -0.310 N
HETATM   32  N8  UNL     1     -29.336   7.492 -29.784  1.00  0.00    -0.286 N
ATOM     33  H7  UNL     1     -29.113   7.320 -27.708  1.00  0.00     0.186 HD
ATOM     34  H8  UNL     1     -30.052   6.786 -29.959  1.00  0.00     0.188 HD
ENDBRANCH  26  28
ENDBRANCH  25  26
ENDBRANCH  24  25
ENDBRANCH  22  24
ENDBRANCH  21  22
ENDBRANCH  20  21
ENDBRANCH  19  20
ENDBRANCH   1  19
TORSDOF 18
ENDMDL