MODEL 5
REMARK VINA RESULT: -6.157234614      5.497     11.254
REMARK  15 active torsions:
REMARK  status: ('A' for Active; 'I' for Inactive)
REMARK    1  A    between atoms: C2_2  and  C4_4
REMARK    2  A    between atoms: C4_4  and  N1_5
REMARK    3  A    between atoms: C4_4  and  C13_23
REMARK    4  A    between atoms: N1_5  and  C5_7
REMARK    5  A    between atoms: C5_7  and  C6_8
REMARK    6  A    between atoms: C5_7  and  C7_10
REMARK    7  A    between atoms: C7_10  and  C8_11
REMARK    8  A    between atoms: C7_10  and  N4_19
REMARK    9  A    between atoms: C8_11  and  C9_12
REMARK   10  A    between atoms: N4_19  and  C12_21
REMARK   11  A    between atoms: C13_23  and  C14_24
REMARK   12  A    between atoms: C13_23  and  C15_26
REMARK   13  A    between atoms: C15_26  and  C16_27
REMARK   14  A    between atoms: C16_27  and  C17_28
REMARK   15  A    between atoms: C17_28  and  N5_29
ROOT
HETATM    1  N1  UNL     1     -42.395   4.220 -33.154  1.00  0.00    -0.404 N
ATOM      2  H1  UNL     1     -42.412   4.556 -34.117  1.00  0.00     0.154 HD
ENDROOT
BRANCH   1   3
HETATM    3  C4  UNL     1     -41.305   4.562 -32.386  1.00  0.00     0.091 C
BRANCH   3   4
HETATM    4  C2  UNL     1     -41.107   6.090 -32.422  1.00  0.00     0.001 C
HETATM    5  C1  UNL     1     -41.754   6.744 -31.194  1.00  0.00     0.011 C
HETATM    6  C3  UNL     1     -41.801   6.722 -33.604  1.00  0.00     0.011 C
ENDBRANCH   3   4
BRANCH   3   7
HETATM    7  C13 UNL     1     -40.007   3.869 -32.512  1.00  0.00     0.070 C
BRANCH   7   8
HETATM    8  C14 UNL     1     -39.565   3.546 -33.881  1.00  0.00     0.237 C
HETATM    9  O3  UNL     1     -40.290   3.031 -34.713  1.00  0.00    -0.306 OA
ENDBRANCH   7   8
BRANCH   7  10
HETATM   10  C15 UNL     1     -38.830   4.477 -31.811  1.00  0.00     0.015 C
BRANCH  10  11
HETATM   11  C16 UNL     1     -37.554   3.745 -32.291  1.00  0.00     0.020 C
BRANCH  11  12
HETATM   12  C17 UNL     1     -36.452   4.811 -32.222  1.00  0.00     0.122 C
BRANCH  12  13
HETATM   13  N5  UNL     1     -35.571   4.612 -33.337  1.00  0.00    -0.367 N
HETATM   14  C18 UNL     1     -34.574   5.400 -33.525  1.00  0.00     0.196 C
HETATM   15  N6  UNL     1     -34.357   6.464 -32.614  1.00  0.00    -0.067 NA
HETATM   16  N7  UNL     1     -33.671   5.246 -34.613  1.00  0.00    -0.067 NA
ATOM     17  H5  UNL     1     -35.738   3.842 -33.984  1.00  0.00     0.161 HD
ENDBRANCH  12  13
ENDBRANCH  11  12
ENDBRANCH  10  11
ENDBRANCH   7  10
ENDBRANCH   3   7
ENDBRANCH   1   3
BRANCH   1  18
HETATM   18  C5  UNL     1     -43.485   3.449 -32.724  1.00  0.00     0.162 C
BRANCH  18  19
HETATM   19  C6  UNL     1     -44.778   4.141 -32.537  1.00  0.00     0.257 C
HETATM   20  O1  UNL     1     -45.436   4.692 -33.392  1.00  0.00    -0.305 OA
ENDBRANCH  18  19
BRANCH  18  21
HETATM   21  C7  UNL     1     -43.607   2.298 -33.713  1.00  0.00     0.118 C
BRANCH  21  22
HETATM   22  C8  UNL     1     -42.808   1.105 -33.453  1.00  0.00     0.086 C
BRANCH  22  23
HETATM   23  C9  UNL     1     -43.361  -0.188 -33.930  1.00  0.00     0.027 A
HETATM   24  C10 UNL     1     -43.671  -1.236 -33.045  1.00  0.00     0.114 A
HETATM   25  N2  UNL     1     -44.158  -2.266 -33.744  1.00  0.00    -0.360 N
HETATM   26  C11 UNL     1     -44.154  -1.876 -35.024  1.00  0.00     0.180 A
ATOM     27  H2  UNL     1     -44.468  -3.165 -33.376  1.00  0.00     0.166 HD
HETATM   28  N3  UNL     1     -43.676  -0.628 -35.138  1.00  0.00    -0.355 N
ATOM     29  H3  UNL     1     -43.573  -0.106 -36.008  1.00  0.00     0.166 HD
ENDBRANCH  22  23
ENDBRANCH  21  22
BRANCH  21  30
HETATM   30  N4  UNL     1     -43.320   2.790 -35.052  1.00  0.00    -0.361 N
ATOM     31  H4  UNL     1     -42.380   3.123 -35.265  1.00  0.00     0.162 HD
BRANCH  30  32
HETATM   32  C12 UNL     1     -44.302   2.819 -36.064  1.00  0.00     0.348 C
HETATM   33  O2  UNL     1     -45.131   1.885 -36.127  1.00  0.00    -0.284 OA
ENDBRANCH  30  32
ENDBRANCH  21  30
ENDBRANCH  18  21
ENDBRANCH   1  18
TORSDOF 15
ENDMDL