MODEL 1
REMARK VINA RESULT: -6.705776242      0.000      0.000
REMARK  16 active torsions:
REMARK  status: ('A' for Active; 'I' for Inactive)
REMARK    1  A    between atoms: C3_3  and  C4_4
REMARK    2  A    between atoms: C3_3  and  C12_22
REMARK    3  A    between atoms: C4_4  and  C5_5
REMARK    4  A    between atoms: N2_7  and  C6_9
REMARK    5  A    between atoms: C6_9  and  C7_10
REMARK    6  A    between atoms: C7_10  and  N3_11
REMARK    7  A    between atoms: N3_11  and  C8_14
REMARK    8  A    between atoms: C8_14  and  C9_15
REMARK    9  A    between atoms: C9_15  and  C10_16
REMARK   10  A    between atoms: C10_16  and  N4_17
REMARK   11  A    between atoms: C12_22  and  C13_23
REMARK   12  A    between atoms: N7_27  and  C17_28
REMARK   13  A    between atoms: C17_28  and  C18_29
REMARK   14  A    between atoms: C18_29  and  C19_30
REMARK   15  A    between atoms: C19_30  and  C20_31
REMARK   16  A    between atoms: C20_31  and  O1_32
ROOT
HETATM    1  C1  UNL     1     -44.624   3.263 -35.919  1.00  0.00     0.097 C
HETATM    2  C2  UNL     1     -43.712   2.871 -35.199  1.00  0.00    -0.182 C
HETATM    3  C3  UNL     1     -42.644   2.378 -34.335  1.00  0.00     0.060 C
ENDROOT
BRANCH   3   4
HETATM    4  C4  UNL     1     -41.975   3.460 -33.553  1.00  0.00     0.089 C
BRANCH   4   5
HETATM    5  C5  UNL     1     -40.516   3.186 -33.495  1.00  0.00     0.090 C
HETATM    6  N1  UNL     1     -39.662   3.342 -34.621  1.00  0.00    -0.088 NA
HETATM    7  N2  UNL     1     -39.953   2.787 -32.396  1.00  0.00    -0.380 N
ATOM      8  H2  UNL     1     -40.523   2.660 -31.559  1.00  0.00     0.160 HD
BRANCH   7   9
HETATM    9  C6  UNL     1     -38.537   2.519 -32.335  1.00  0.00     0.148 C
BRANCH   9  10
HETATM   10  C7  UNL     1     -37.732   3.693 -31.888  1.00  0.00     0.251 C
BRANCH  10  11
HETATM   11  N3  UNL     1     -36.884   4.169 -32.958  1.00  0.00    -0.074 N
ATOM     12  H32 UNL     1     -36.442   3.393 -33.453  1.00  0.00     0.277 HD
ATOM     13  H31 UNL     1     -37.437   4.555 -33.723  1.00  0.00     0.277 HD
BRANCH  11  14
HETATM   14  C8  UNL     1     -35.898   5.121 -32.490  1.00  0.00     0.234 C
BRANCH  14  15
HETATM   15  C9  UNL     1     -34.716   5.232 -33.392  1.00  0.00     0.047 C
BRANCH  15  16
HETATM   16  C10 UNL     1     -33.759   6.244 -32.800  1.00  0.00     0.123 C
BRANCH  16  17
HETATM   17  N4  UNL     1     -32.643   6.448 -33.682  1.00  0.00    -0.367 N
HETATM   18  C11 UNL     1     -31.929   7.521 -33.566  1.00  0.00     0.196 C
HETATM   19  N5  UNL     1     -30.815   7.769 -34.414  1.00  0.00    -0.067 NA
HETATM   20  N6  UNL     1     -32.236   8.489 -32.587  1.00  0.00    -0.067 NA
ATOM     21  H4  UNL     1     -32.416   5.754 -34.394  1.00  0.00     0.161 HD
ENDBRANCH  16  17
ENDBRANCH  15  16
ENDBRANCH  14  15
ENDBRANCH  11  14
ENDBRANCH  10  11
ENDBRANCH   9  10
ENDBRANCH   7   9
ENDBRANCH   4   5
ENDBRANCH   3   4
BRANCH   3  22
HETATM   22  C12 UNL     1     -43.167   1.262 -33.426  1.00  0.00     0.052 C
BRANCH  22  23
HETATM   23  C13 UNL     1     -42.441   0.025 -33.795  1.00  0.00     0.224 C
HETATM   24  C14 UNL     1     -41.603  -0.426 -32.618  1.00  0.00     0.037 C
HETATM   25  C15 UNL     1     -41.484  -1.922 -32.810  1.00  0.00     0.032 C
HETATM   26  C16 UNL     1     -42.480  -2.255 -33.887  1.00  0.00     0.273 C
HETATM   27  N7  UNL     1     -43.238  -1.096 -34.189  1.00  0.00     0.093 N
BRANCH  27  28
HETATM   28  C17 UNL     1     -43.784  -1.010 -35.495  1.00  0.00     0.273 C
BRANCH  28  29
HETATM   29  C18 UNL     1     -45.244  -1.315 -35.536  1.00  0.00     0.032 C
BRANCH  29  30
HETATM   30  C19 UNL     1     -45.999  -0.166 -36.202  1.00  0.00     0.028 C
BRANCH  30  31
HETATM   31  C20 UNL     1     -46.858  -0.670 -37.340  1.00  0.00     0.164 C
BRANCH  31  32
HETATM   32  O1  UNL     1     -47.126  -2.044 -37.173  1.00  0.00    -0.401 OA
ATOM     33  H1  UNL     1     -46.316  -2.540 -37.195  1.00  0.00     0.209 HD
ENDBRANCH  31  32
ENDBRANCH  30  31
ENDBRANCH  29  30
ENDBRANCH  28  29
ENDBRANCH  27  28
ENDBRANCH  22  23
ENDBRANCH   3  22
TORSDOF 16
ENDMDL