MODEL 4
REMARK VINA RESULT: -5.378696572      4.616      9.712
REMARK  8 active torsions:
REMARK  status: ('A' for Active; 'I' for Inactive)
REMARK    1  A    between atoms: C2_5  and  N3_6
REMARK       I    between atoms: N3_6  and  C3_8
REMARK    2  A    between atoms: C3_8  and  C4_10
REMARK    3  A    between atoms: C4_10  and  S1_11
REMARK    4  A    between atoms: S1_11  and  C5_12
REMARK    5  A    between atoms: C8_15  and  N4_16
REMARK       I    between atoms: N4_16  and  C9_18
REMARK    6  A    between atoms: C9_18  and  C10_20
REMARK    7  A    between atoms: C13_23  and  C14_24
REMARK    8  A    between atoms: C20_34  and  C21_35
ROOT
HETATM    1  C5  UNL     1      -1.889  12.989  -7.322  1.00  0.00     0.001 A
HETATM    2  C6  UNL     1      -3.196  12.740  -6.961  1.00  0.00     0.021 A
HETATM    3  C7  UNL     1      -3.471  12.125  -5.758  1.00  0.00     0.031 A
HETATM    4  C8  UNL     1      -2.456  11.735  -4.869  1.00  0.00     0.035 A
HETATM    5  C17 UNL     1      -1.171  11.976  -5.216  1.00  0.00     0.031 A
HETATM    6  C18 UNL     1      -0.904  12.602  -6.442  1.00  0.00     0.021 A
ENDROOT
BRANCH   1   7
HETATM    7  S1  UNL     1      -1.459  13.775  -8.868  1.00  0.00    -0.121 SA
BRANCH   7   8
HETATM    8  C4  UNL     1      -0.530  15.281  -8.498  1.00  0.00     0.182 C
BRANCH   8   9
HETATM    9  C3  UNL     1      -1.408  16.416  -8.101  1.00  0.00     0.232 C
HETATM   10  N3  UNL     1      -2.244  16.209  -6.971  1.00  0.00    -0.311 N
ATOM     11  H3  UNL     1      -3.128  15.717  -7.091  1.00  0.00     0.170 HD
HETATM   12  O1  UNL     1      -1.445  17.511  -8.697  1.00  0.00    -0.272 OA
BRANCH  10  13
HETATM   13  C2  UNL     1      -1.910  16.630  -5.795  1.00  0.00     0.125 A
HETATM   14  N2  UNL     1      -1.902  17.978  -5.597  1.00  0.00    -0.269 N
HETATM   15  N1  UNL     1      -1.575  18.470  -4.434  1.00  0.00    -0.237 N
ATOM     16  H2  UNL     1      -2.153  18.606  -6.361  1.00  0.00     0.190 HD
HETATM   17  C1  UNL     1      -1.574  19.924  -4.247  1.00  0.00     0.200 C
HETATM   18  N7  UNL     1      -1.250  17.653  -3.448  1.00  0.00    -0.284 N
HETATM   19  C20 UNL     1      -1.229  16.301  -3.549  1.00  0.00     0.063 A
ATOM     20  H7  UNL     1      -0.998  18.067  -2.550  1.00  0.00     0.188 HD
HETATM   21  C19 UNL     1      -1.574  15.779  -4.772  1.00  0.00     0.081 A
BRANCH  19  22
HETATM   22  C21 UNL     1      -0.861  15.452  -2.421  1.00  0.00    -0.008 A
HETATM   23  C22 UNL     1      -0.042  15.876  -1.403  1.00  0.00     0.014 A
HETATM   24  C23 UNL     1       0.286  15.027  -0.337  1.00  0.00     0.001 A
HETATM   25  C24 UNL     1      -0.187  13.743  -0.255  1.00  0.00     0.000 A
HETATM   26  C25 UNL     1      -1.007  13.310  -1.268  1.00  0.00     0.001 A
HETATM   27  C26 UNL     1      -1.334  14.162  -2.334  1.00  0.00     0.014 A
ENDBRANCH  19  22
ENDBRANCH  10  13
ENDBRANCH   8   9
ENDBRANCH   7   8
ENDBRANCH   1   7
BRANCH   4  28
HETATM   28  N4  UNL     1      -2.876  11.138  -3.680  1.00  0.00    -0.323 N
HETATM   29  C9  UNL     1      -2.646   9.821  -3.267  1.00  0.00     0.256 C
HETATM   30  O2  UNL     1      -2.000   9.025  -3.988  1.00  0.00    -0.267 OA
ATOM     31  H4  UNL     1      -3.410  11.726  -3.041  1.00  0.00     0.169 HD
BRANCH  29  32
HETATM   32  C10 UNL     1      -3.159   9.338  -1.966  1.00  0.00     0.032 A
HETATM   33  C11 UNL     1      -4.147   8.375  -1.925  1.00  0.00     0.018 A
HETATM   34  C12 UNL     1      -4.648   7.917  -0.748  1.00  0.00     0.016 A
HETATM   35  C13 UNL     1      -4.181   8.403   0.473  1.00  0.00     0.004 A
HETATM   36  C15 UNL     1      -3.194   9.364   0.412  1.00  0.00     0.016 A
HETATM   37  C16 UNL     1      -2.676   9.839  -0.794  1.00  0.00     0.018 A
BRANCH  35  38
HETATM   38  C14 UNL     1      -4.721   7.911   1.725  1.00  0.00     0.120 C
HETATM   39  N5  UNL     1      -4.531   6.722   2.111  1.00  0.00    -0.387 N
ATOM     40  H52 UNL     1      -3.984   6.092   1.525  1.00  0.00     0.157 HD
ATOM     41  H51 UNL     1      -4.911   6.375   2.992  1.00  0.00     0.157 HD
HETATM   42  N6  UNL     1      -5.483   8.787   2.541  1.00  0.00    -0.082 NA
ENDBRANCH  35  38
ENDBRANCH  29  32
ENDBRANCH   4  28
TORSDOF 8
ENDMDL