MODEL 4
REMARK VINA RESULT: -6.155351301      6.352      9.657
REMARK  10 active torsions:
REMARK  status: ('A' for Active; 'I' for Inactive)
REMARK    1  A    between atoms: N1_2  and  C2_4
REMARK    2  A    between atoms: C3_7  and  N3_8
REMARK    3  A    between atoms: N3_8  and  N4_10
REMARK    4  A    between atoms: C4_12  and  C5_13
REMARK    5  A    between atoms: C8_16  and  N5_17
REMARK    6  A    between atoms: C13_24  and  N7_25
REMARK    7  A    between atoms: N7_25  and  C14_27
REMARK    8  A    between atoms: C14_27  and  C15_28
REMARK    9  A    between atoms: C14_27  and  C22_35
REMARK   10  A    between atoms: C15_28  and  C16_29
ROOT
HETATM    1  C2  UNL     1      -3.808  21.228  -3.398  1.00  0.00     0.706 A
HETATM    2  N2  UNL     1      -3.685  20.151  -4.215  1.00  0.00    -0.020 N
ATOM      3  H2  UNL     1      -4.258  20.086  -5.057  1.00  0.00     0.203 HD
HETATM    4  C3  UNL     1      -2.816  19.168  -3.924  1.00  0.00     0.726 A
HETATM    5  N6  UNL     1      -2.055  19.254  -2.801  1.00  0.00    -0.020 N
ATOM      6  H6  UNL     1      -1.398  18.504  -2.585  1.00  0.00     0.203 HD
HETATM    7  C13 UNL     1      -2.152  20.331  -1.951  1.00  0.00     0.707 A
HETATM    8  N9  UNL     1      -3.035  21.263  -2.307  1.00  0.00    -0.022 N
ATOM      9  H9  UNL     1      -3.131  22.073  -1.694  1.00  0.00     0.203 HD
ENDROOT
BRANCH   7  10
HETATM   10  N7  UNL     1      -1.446  20.350  -0.987  1.00  0.00    -0.216 N
ATOM     11  H7  UNL     1      -1.146  21.323  -0.940  1.00  0.00     0.178 HD
BRANCH  10  12
HETATM   12  C14 UNL     1      -0.810  19.774   0.102  1.00  0.00     0.139 C
BRANCH  12  13
HETATM   13  C15 UNL     1       0.566  19.197  -0.198  1.00  0.00     0.069 C
BRANCH  13  14
HETATM   14  C16 UNL     1       0.528  17.717  -0.118  1.00  0.00    -0.056 A
HETATM   15  C17 UNL     1       0.024  17.024  -1.233  1.00  0.00     0.007 A
HETATM   16  C18 UNL     1      -0.017  15.657  -1.292  1.00  0.00     0.001 A
HETATM   17  C19 UNL     1       0.447  14.928  -0.233  1.00  0.00     0.000 A
HETATM   18  C20 UNL     1       0.955  15.558   0.890  1.00  0.00     0.001 A
HETATM   19  C21 UNL     1       0.980  16.958   0.908  1.00  0.00     0.007 A
ENDBRANCH  13  14
ENDBRANCH  12  13
BRANCH  12  20
HETATM   20  C22 UNL     1      -0.747  20.804   1.218  1.00  0.00    -0.007 A
HETATM   21  C23 UNL     1      -0.565  22.151   1.177  1.00  0.00     0.098 A
HETATM   22  N8  UNL     1      -0.701  22.665   2.441  1.00  0.00    -0.365 N
HETATM   23  C24 UNL     1      -0.968  21.672   3.294  1.00  0.00     0.043 A
ATOM     24  H8  UNL     1      -0.613  23.650   2.691  1.00  0.00     0.165 HD
HETATM   25  C25 UNL     1      -1.189  21.616   4.660  1.00  0.00     0.030 A
HETATM   26  C29 UNL     1      -0.999  20.524   2.557  1.00  0.00     0.000 A
HETATM   27  C26 UNL     1      -1.446  20.397   5.299  1.00  0.00     0.002 A
HETATM   28  C27 UNL     1      -1.472  19.250   4.530  1.00  0.00     0.001 A
HETATM   29  C28 UNL     1      -1.248  19.311   3.151  1.00  0.00     0.014 A
ENDBRANCH  12  20
ENDBRANCH  10  12
ENDBRANCH   7  10
BRANCH   4  30
HETATM   30  N3  UNL     1      -2.707  18.176  -4.705  1.00  0.00    -0.131 N
ATOM     31  H3  UNL     1      -2.733  18.460  -5.684  1.00  0.00     0.205 HD
BRANCH  30  32
HETATM   32  N4  UNL     1      -2.569  16.860  -4.574  1.00  0.00    -0.297 N
HETATM   33  C4  UNL     1      -3.444  15.933  -4.511  1.00  0.00     0.119 C
ATOM     34  H4  UNL     1      -1.603  16.538  -4.514  1.00  0.00     0.186 HD
BRANCH  33  35
HETATM   35  C5  UNL     1      -3.154  14.517  -4.368  1.00  0.00    -0.019 A
HETATM   36  C6  UNL     1      -2.910  13.963  -3.109  1.00  0.00     0.015 A
HETATM   37  C7  UNL     1      -2.649  12.621  -2.933  1.00  0.00     0.030 A
HETATM   38  C8  UNL     1      -2.620  11.755  -4.021  1.00  0.00     0.029 A
HETATM   39  C11 UNL     1      -2.858  12.286  -5.266  1.00  0.00     0.030 A
HETATM   40  C12 UNL     1      -3.122  13.651  -5.438  1.00  0.00     0.015 A
BRANCH  38  41
HETATM   41  N5  UNL     1      -2.360  10.372  -3.793  1.00  0.00    -0.390 N
HETATM   42  C9  UNL     1      -2.752   9.737  -2.534  1.00  0.00     0.149 C
HETATM   43  C10 UNL     1      -1.685   9.572  -4.792  1.00  0.00     0.149 C
ENDBRANCH  38  41
ENDBRANCH  33  35
ENDBRANCH  30  32
ENDBRANCH   4  30
BRANCH   1  44
HETATM   44  N1  UNL     1      -4.649  22.127  -3.733  1.00  0.00    -0.229 N
HETATM   45  C1  UNL     1      -5.180  22.308  -5.051  1.00  0.00     0.165 C
ATOM     46  H1  UNL     1      -4.969  22.767  -3.005  1.00  0.00     0.177 HD
ENDBRANCH   1  44
TORSDOF 10
ENDMDL