MODEL 4
REMARK VINA RESULT: -6.381889208      2.643     10.520
REMARK  9 active torsions:
REMARK  status: ('A' for Active; 'I' for Inactive)
REMARK    1  A    between atoms: C2_2  and  C3_3
REMARK    2  A    between atoms: C3_3  and  N1_4
REMARK    3  A    between atoms: N1_4  and  C4_6
REMARK    4  A    between atoms: C5_9  and  N3_10
REMARK    5  A    between atoms: N3_10  and  C6_11
REMARK    6  A    between atoms: C6_11  and  C7_12
REMARK    7  A    between atoms: C15_23  and  C16_24
REMARK    8  A    between atoms: C16_24  and  C17_25
REMARK    9  A    between atoms: C20_28  and  C21_29
ROOT
HETATM    1  C4  UNL     1      -4.190   8.241  -0.917  1.00  0.00     0.681 A
HETATM    2  N2  UNL     1      -3.947   7.375  -1.879  1.00  0.00    -0.162 N
ATOM      3  H2  UNL     1      -4.405   6.466  -1.807  1.00  0.00     0.187 HD
HETATM    4  C5  UNL     1      -3.130   7.579  -2.975  1.00  0.00     0.223 A
HETATM    5  C13 UNL     1      -2.510   8.843  -3.050  1.00  0.00     0.138 A
HETATM    6  C14 UNL     1      -2.766   9.733  -2.044  1.00  0.00     0.106 A
HETATM    7  N5  UNL     1      -3.591   9.440  -0.997  1.00  0.00    -0.187 N
ATOM      8  H5  UNL     1      -3.755  10.137  -0.270  1.00  0.00     0.184 HD
HETATM    9  C15 UNL     1      -1.979  10.864  -2.303  1.00  0.00     0.060 A
HETATM   10  N7  UNL     1      -1.336  10.570  -3.427  1.00  0.00    -0.300 N
ATOM     11  H7  UNL     1      -0.680  11.209  -3.876  1.00  0.00     0.187 HD
HETATM   12  N8  UNL     1      -1.621   9.380  -3.910  1.00  0.00    -0.290 N
HETATM   13  C30 UNL     1      -1.120   8.796  -5.147  1.00  0.00     0.178 C
ENDROOT
BRANCH   9  14
HETATM   14  C16 UNL     1      -1.935  12.073  -1.466  1.00  0.00     0.100 C
BRANCH  14  15
HETATM   15  C17 UNL     1      -1.837  13.334  -2.206  1.00  0.00    -0.042 A
HETATM   16  C18 UNL     1      -2.669  13.601  -3.256  1.00  0.00     0.009 A
HETATM   17  C19 UNL     1      -2.591  14.804  -3.949  1.00  0.00     0.014 A
HETATM   18  C20 UNL     1      -1.655  15.742  -3.568  1.00  0.00    -0.014 A
HETATM   19  C26 UNL     1      -0.808  15.460  -2.495  1.00  0.00    -0.024 A
HETATM   20  C27 UNL     1       0.026  16.415  -2.145  1.00  0.00     0.025 C
HETATM   21  C28 UNL     1      -0.881  14.279  -1.808  1.00  0.00    -0.029 A
HETATM   22  C29 UNL     1      -0.122  14.072  -0.753  1.00  0.00     0.025 C
BRANCH  18  23
HETATM   23  C21 UNL     1      -1.565  16.968  -4.339  1.00  0.00    -0.002 A
HETATM   24  C22 UNL     1      -2.202  18.174  -4.148  1.00  0.00     0.031 A
HETATM   25  C23 UNL     1      -1.795  19.070  -5.093  1.00  0.00     0.089 A
HETATM   26  N6  UNL     1      -0.911  18.422  -5.861  1.00  0.00    -0.369 N
HETATM   27  C24 UNL     1      -0.742  17.172  -5.452  1.00  0.00     0.016 A
ATOM     28  H6  UNL     1      -0.429  18.836  -6.659  1.00  0.00     0.165 HD
HETATM   29  C25 UNL     1       0.138  16.134  -6.047  1.00  0.00     0.069 C
ENDBRANCH  18  23
ENDBRANCH  14  15
ENDBRANCH   9  14
BRANCH   4  30
HETATM   30  N3  UNL     1      -2.884   6.726  -3.757  1.00  0.00    -0.396 NA
BRANCH  30  31
HETATM   31  C6  UNL     1      -2.620   5.762  -4.612  1.00  0.00     0.196 C
BRANCH  31  32
HETATM   32  C7  UNL     1      -3.644   5.498  -5.706  1.00  0.00    -0.005 A
HETATM   33  C8  UNL     1      -4.322   4.320  -5.728  1.00  0.00     0.014 A
HETATM   34  C9  UNL     1      -5.291   4.022  -6.686  1.00  0.00     0.003 A
HETATM   35  C10 UNL     1      -5.542   4.998  -7.636  1.00  0.00     0.026 A
HETATM   36  C11 UNL     1      -4.869   6.199  -7.638  1.00  0.00     0.047 A
HETATM   37  N4  UNL     1      -5.185   7.143  -8.650  1.00  0.00    -0.102 NA
HETATM   38  C12 UNL     1      -3.904   6.457  -6.656  1.00  0.00     0.040 A
ENDBRANCH  31  32
ENDBRANCH  30  31
ENDBRANCH   4  30
BRANCH   1  39
HETATM   39  N1  UNL     1      -4.915   7.962   0.136  1.00  0.00    -0.223 N
ATOM     40  H1  UNL     1      -5.876   7.635   0.034  1.00  0.00     0.178 HD
BRANCH  39  41
HETATM   41  C3  UNL     1      -4.331   8.124   1.441  1.00  0.00     0.164 C
BRANCH  41  42
HETATM   42  C2  UNL     1      -5.076   9.152   2.237  1.00  0.00    -0.017 C
HETATM   43  C1  UNL     1      -4.679  10.382   2.255  1.00  0.00     0.008 C
ENDBRANCH  41  42
ENDBRANCH  39  41
ENDBRANCH   1  39
TORSDOF 9
ENDMDL