MODEL 3
REMARK VINA RESULT: -6.248149198      4.723      7.208
REMARK  11 active torsions:
REMARK  status: ('A' for Active; 'I' for Inactive)
REMARK    1  A    between atoms: C5_5  and  C6_6
REMARK    2  A    between atoms: C6_6  and  N1_7
REMARK    3  A    between atoms: N1_7  and  C7_9
REMARK    4  A    between atoms: C12_16  and  N3_17
REMARK    5  A    between atoms: N3_17  and  C13_19
REMARK    6  A    between atoms: C13_19  and  C14_20
REMARK    7  A    between atoms: C14_20  and  O1_21
REMARK    8  A    between atoms: C15_25  and  N5_26
REMARK    9  A    between atoms: N5_26  and  C16_28
REMARK   10  A    between atoms: C16_28  and  C17_29
REMARK   11  A    between atoms: C20_32  and  C21_33
ROOT
HETATM    1  C7  UNL     1      -4.472   7.909   0.695  1.00  0.00     0.130 A
HETATM    2  N2  UNL     1      -4.767   6.675   1.125  1.00  0.00    -0.345 N
ATOM      3  H2  UNL     1      -5.140   6.534   2.064  1.00  0.00     0.167 HD
HETATM    4  C8  UNL     1      -4.567   5.617   0.308  1.00  0.00     0.008 A
HETATM    5  C9  UNL     1      -4.907   4.267   0.827  1.00  0.00     0.068 C
HETATM    6  C10 UNL     1      -4.059   5.825  -0.967  1.00  0.00     0.042 A
HETATM    7  C11 UNL     1      -3.752   7.082  -1.426  1.00  0.00     0.041 A
HETATM    8  C12 UNL     1      -3.246   7.339  -2.684  1.00  0.00     0.129 A
HETATM    9  N4  UNL     1      -2.960   8.583  -3.095  1.00  0.00    -0.176 N
ATOM     10  H4  UNL     1      -2.588   8.745  -4.030  1.00  0.00     0.186 HD
HETATM   11  C15 UNL     1      -3.171   9.617  -2.255  1.00  0.00     0.680 A
HETATM   12  N6  UNL     1      -3.666   9.372  -1.019  1.00  0.00    -0.187 N
ATOM     13  H6  UNL     1      -3.820  10.161  -0.392  1.00  0.00     0.184 HD
HETATM   14  C29 UNL     1      -3.962   8.138  -0.581  1.00  0.00     0.106 A
ENDROOT
BRANCH  11  15
HETATM   15  N5  UNL     1      -2.920  10.828  -2.588  1.00  0.00    -0.222 N
ATOM     16  H5  UNL     1      -3.701  11.483  -2.586  1.00  0.00     0.178 HD
BRANCH  15  17
HETATM   17  C16 UNL     1      -1.636  11.339  -2.961  1.00  0.00     0.176 C
BRANCH  17  18
HETATM   18  C17 UNL     1      -1.050  12.011  -1.783  1.00  0.00    -0.040 A
HETATM   19  C18 UNL     1      -0.957  13.386  -1.793  1.00  0.00     0.009 A
HETATM   20  C19 UNL     1      -0.408  14.035  -0.697  1.00  0.00     0.013 A
HETATM   21  C20 UNL     1       0.053  13.353   0.411  1.00  0.00    -0.026 A
HETATM   22  C27 UNL     1      -0.059  11.971   0.379  1.00  0.00     0.013 A
HETATM   23  C28 UNL     1      -0.600  11.296  -0.693  1.00  0.00     0.009 A
BRANCH  21  24
HETATM   24  C21 UNL     1       0.624  14.067   1.548  1.00  0.00    -0.026 A
HETATM   25  C22 UNL     1       0.697  13.511   2.807  1.00  0.00     0.012 A
HETATM   26  C23 UNL     1       1.240  14.195   3.884  1.00  0.00     0.001 A
HETATM   27  C24 UNL     1       1.734  15.472   3.726  1.00  0.00     0.000 A
HETATM   28  C25 UNL     1       1.665  16.036   2.469  1.00  0.00     0.001 A
HETATM   29  C26 UNL     1       1.117  15.345   1.387  1.00  0.00     0.012 A
ENDBRANCH  21  24
ENDBRANCH  17  18
ENDBRANCH  15  17
ENDBRANCH  11  15
BRANCH   8  30
HETATM   30  N3  UNL     1      -3.048   6.356  -3.476  1.00  0.00    -0.373 N
ATOM     31  H3  UNL     1      -2.279   5.710  -3.300  1.00  0.00     0.161 HD
BRANCH  30  32
HETATM   32  C13 UNL     1      -3.909   6.157  -4.617  1.00  0.00     0.147 C
BRANCH  32  33
HETATM   33  C14 UNL     1      -3.143   6.491  -5.900  1.00  0.00     0.183 C
BRANCH  33  34
HETATM   34  O1  UNL     1      -3.263   7.843  -6.176  1.00  0.00    -0.399 OA
ATOM     35  H1  UNL     1      -2.599   8.327  -5.698  1.00  0.00     0.209 HD
ENDBRANCH  33  34
ENDBRANCH  32  33
ENDBRANCH  30  32
ENDBRANCH   8  30
BRANCH   1  36
HETATM   36  N1  UNL     1      -4.638   8.943   1.418  1.00  0.00    -0.370 N
ATOM     37  H1  UNL     1      -4.421   9.834   0.973  1.00  0.00     0.161 HD
BRANCH  36  38
HETATM   38  C6  UNL     1      -5.086   9.020   2.768  1.00  0.00     0.161 C
BRANCH  38  39
HETATM   39  C5  UNL     1      -4.260  10.003   3.544  1.00  0.00    -0.025 A
HETATM   40  C4  UNL     1      -3.046  10.399   3.023  1.00  0.00     0.012 A
HETATM   41  C3  UNL     1      -2.282  11.306   3.731  1.00  0.00     0.025 A
HETATM   42  C2  UNL     1      -2.685  11.832   4.941  1.00  0.00     0.005 A
HETATM   43  C1  UNL     1      -1.836  12.803   5.670  1.00  0.00     0.068 C
HETATM   44  N7  UNL     1      -3.881  11.420   5.419  1.00  0.00    -0.369 N
HETATM   45  C30 UNL     1      -4.649  10.530   4.740  1.00  0.00     0.096 A
ATOM     46  H7  UNL     1      -4.214  11.787   6.311  1.00  0.00     0.165 HD
ENDBRANCH  38  39
ENDBRANCH  36  38
ENDBRANCH   1  36
TORSDOF 11
ENDMDL