MODEL 5
REMARK VINA RESULT: -6.140737092      1.063      1.827
REMARK  7 active torsions:
REMARK  status: ('A' for Active; 'I' for Inactive)
REMARK    1  A    between atoms: C4_4  and  C5_5
REMARK    2  A    between atoms: C7_9  and  O1_10
REMARK    3  A    between atoms: O1_10  and  C8_11
REMARK    4  A    between atoms: C11_14  and  C12_15
REMARK    5  A    between atoms: C12_15  and  N2_16
REMARK    6  A    between atoms: N3_19  and  C15_20
REMARK    7  A    between atoms: C15_20  and  C16_21
REMARK       I    between atoms: N5_34  and  C27_36
ROOT
HETATM    1  O1  UNL     1      -0.195  11.448   0.396  1.00  0.00    -0.294 OA
ENDROOT
BRANCH   1   2
HETATM    2  C7  UNL     1      -0.943  11.134   1.490  1.00  0.00     0.150 A
HETATM    3  N1  UNL     1      -0.652  11.672   2.679  1.00  0.00    -0.346 N
HETATM    4  C6  UNL     1      -1.415  11.333   3.728  1.00  0.00     0.104 A
ATOM      5  H1  UNL     1       0.127  12.322   2.784  1.00  0.00     0.167 HD
HETATM    6  C5  UNL     1      -2.481  10.470   3.687  1.00  0.00     0.018 A
HETATM    7  C26 UNL     1      -2.790   9.903   2.438  1.00  0.00     0.051 A
HETATM    8  C25 UNL     1      -2.014  10.242   1.353  1.00  0.00     0.086 A
HETATM    9  N5  UNL     1      -3.762   9.087   2.428  1.00  0.00    -0.330 N
HETATM   10  C27 UNL     1      -4.265   8.401   1.323  1.00  0.00     0.186 C
ATOM     11  H5  UNL     1      -4.225   8.916   3.321  1.00  0.00     0.168 HD
HETATM   12  N6  UNL     1      -4.554   9.025   0.236  1.00  0.00    -0.373 N
HETATM   13  N7  UNL     1      -4.456   6.976   1.462  1.00  0.00    -0.064 NA
ATOM     14  H62 UNL     1      -4.418  10.031   0.138  1.00  0.00     0.158 HD
ATOM     15  H61 UNL     1      -4.921   8.523  -0.572  1.00  0.00     0.158 HD
BRANCH   6  16
HETATM   16  C4  UNL     1      -3.279  10.142   4.862  1.00  0.00    -0.005 A
HETATM   17  C3  UNL     1      -4.516  10.665   5.130  1.00  0.00     0.038 A
HETATM   18  C2  UNL     1      -5.008  10.153   6.328  1.00  0.00     0.005 A
HETATM   19  C1  UNL     1      -6.320  10.491   6.942  1.00  0.00     0.068 C
HETATM   20  N8  UNL     1      -4.058   9.317   6.779  1.00  0.00    -0.369 N
HETATM   21  C28 UNL     1      -3.003   9.292   5.913  1.00  0.00     0.100 A
ATOM     22  H8  UNL     1      -4.116   8.779   7.643  1.00  0.00     0.165 HD
ENDBRANCH   6  16
ENDBRANCH   1   2
BRANCH   1  23
HETATM   23  C8  UNL     1      -0.456  12.533  -0.439  1.00  0.00     0.077 A
HETATM   24  C9  UNL     1      -1.345  12.379  -1.480  1.00  0.00     0.038 A
HETATM   25  C10 UNL     1      -1.623  13.454  -2.332  1.00  0.00     0.015 A
HETATM   26  C11 UNL     1      -1.032  14.685  -2.170  1.00  0.00    -0.021 A
HETATM   27  C23 UNL     1      -0.136  14.814  -1.112  1.00  0.00     0.015 A
HETATM   28  C24 UNL     1       0.140  13.755  -0.270  1.00  0.00     0.038 A
BRANCH  26  29
HETATM   29  C12 UNL     1      -1.323  15.825  -3.050  1.00  0.00     0.102 C
BRANCH  29  30
HETATM   30  N2  UNL     1      -1.920  15.508  -4.280  1.00  0.00    -0.360 N
HETATM   31  C13 UNL     1      -1.160  15.001  -5.331  1.00  0.00     0.108 C
HETATM   32  C14 UNL     1      -1.876  13.891  -6.021  1.00  0.00     0.107 C
HETATM   33  N3  UNL     1      -3.239  14.085  -6.236  1.00  0.00    -0.363 N
HETATM   34  C21 UNL     1      -4.005  14.959  -5.470  1.00  0.00     0.084 C
HETATM   35  C22 UNL     1      -3.280  15.818  -4.484  1.00  0.00     0.172 C
BRANCH  33  36
HETATM   36  C15 UNL     1      -3.774  13.519  -7.414  1.00  0.00     0.166 C
BRANCH  36  37
HETATM   37  C16 UNL     1      -3.437  14.177  -8.672  1.00  0.00    -0.037 A
HETATM   38  C17 UNL     1      -3.831  15.464  -8.963  1.00  0.00     0.026 A
HETATM   39  C18 UNL     1      -3.490  16.037 -10.173  1.00  0.00     0.088 A
HETATM   40  N4  UNL     1      -2.766  15.367 -11.108  1.00  0.00    -0.375 N
HETATM   41  C19 UNL     1      -2.384  14.129 -10.834  1.00  0.00     0.088 A
ATOM     42  H4  UNL     1      -2.524  15.806 -11.997  1.00  0.00     0.164 HD
HETATM   43  C20 UNL     1      -2.704  13.504  -9.623  1.00  0.00     0.026 A
ENDBRANCH  36  37
ENDBRANCH  33  36
ENDBRANCH  29  30
ENDBRANCH  26  29
ENDBRANCH   1  23
TORSDOF 7
ENDMDL