MODEL 2
REMARK VINA RESULT: -7.189350769      0.795      1.641
REMARK  7 active torsions:
REMARK  status: ('A' for Active; 'I' for Inactive)
REMARK    1  A    between atoms: N1_2  and  C2_4
REMARK    2  A    between atoms: C5_13  and  C6_14
REMARK    3  A    between atoms: C10_18  and  C11_19
REMARK       I    between atoms: C11_19  and  N5_21
REMARK    4  A    between atoms: N5_21  and  C12_23
REMARK    5  A    between atoms: C12_23  and  C13_24
REMARK    6  A    between atoms: C12_23  and  C20_31
REMARK    7  A    between atoms: C13_24  and  C14_25
REMARK       I    between atoms: C20_31  and  N6_33
ROOT
HETATM    1  C11 UNL     1      -2.173   9.786  -0.509  1.00  0.00     0.252 C
HETATM    2  O1  UNL     1      -1.373   8.838  -0.258  1.00  0.00    -0.268 OA
HETATM    3  N5  UNL     1      -3.532   9.472  -0.609  1.00  0.00    -0.343 N
ATOM      4  H5  UNL     1      -4.193  10.223  -0.808  1.00  0.00     0.163 HD
ENDROOT
BRANCH   1   5
HETATM    5  C10 UNL     1      -1.675  11.148  -0.680  1.00  0.00     0.032 A
HETATM    6  C9  UNL     1      -0.866  11.691   0.297  1.00  0.00     0.017 A
HETATM    7  C8  UNL     1      -0.395  12.973   0.132  1.00  0.00     0.002 A
HETATM    8  C7  UNL     1      -0.721  13.715  -0.997  1.00  0.00     0.014 A
HETATM    9  C6  UNL     1      -1.526  13.194  -1.987  1.00  0.00    -0.008 A
HETATM   10  C26 UNL     1      -1.989  11.894  -1.792  1.00  0.00     0.030 A
BRANCH   9  11
HETATM   11  C5  UNL     1      -1.887  13.942  -3.179  1.00  0.00     0.045 A
HETATM   12  N4  UNL     1      -2.581  13.471  -4.232  1.00  0.00    -0.341 N
HETATM   13  C4  UNL     1      -2.738  14.418  -5.154  1.00  0.00     0.120 A
ATOM     14  H4  UNL     1      -2.937  12.519  -4.312  1.00  0.00     0.167 HD
HETATM   15  N3  UNL     1      -3.344  14.417  -6.343  1.00  0.00    -0.338 N
HETATM   16  C28 UNL     1      -2.121  15.574  -4.695  1.00  0.00     0.054 A
HETATM   17  C3  UNL     1      -3.371  15.537  -7.124  1.00  0.00     0.183 A
ATOM     18  H3  UNL     1      -3.795  13.565  -6.675  1.00  0.00     0.168 HD
HETATM   19  N2  UNL     1      -2.778  16.639  -6.679  1.00  0.00    -0.338 N
HETATM   20  C2  UNL     1      -2.148  16.703  -5.486  1.00  0.00     0.115 A
ATOM     21  H2  UNL     1      -2.798  17.475  -7.264  1.00  0.00     0.168 HD
HETATM   22  C27 UNL     1      -1.601  15.240  -3.460  1.00  0.00     0.049 A
BRANCH  20  23
HETATM   23  N1  UNL     1      -1.528  17.896  -5.033  1.00  0.00    -0.380 N
HETATM   24  C1  UNL     1      -2.252  18.739  -4.105  1.00  0.00     0.147 C
ATOM     25  H1  UNL     1      -0.595  18.153  -5.353  1.00  0.00     0.160 HD
ENDBRANCH  20  23
ENDBRANCH   9  11
ENDBRANCH   1   5
BRANCH   3  26
HETATM   26  C12 UNL     1      -4.049   8.113  -0.441  1.00  0.00     0.181 C
BRANCH  26  27
HETATM   27  C13 UNL     1      -5.042   7.837  -1.547  1.00  0.00     0.073 C
BRANCH  27  28
HETATM   28  C14 UNL     1      -4.637   6.572  -2.255  1.00  0.00    -0.056 A
HETATM   29  C15 UNL     1      -4.091   6.666  -3.510  1.00  0.00     0.007 A
HETATM   30  C16 UNL     1      -3.717   5.529  -4.187  1.00  0.00     0.001 A
HETATM   31  C17 UNL     1      -3.876   4.270  -3.628  1.00  0.00     0.000 A
HETATM   32  C18 UNL     1      -4.418   4.196  -2.380  1.00  0.00     0.001 A
HETATM   33  C19 UNL     1      -4.804   5.328  -1.678  1.00  0.00     0.007 A
ENDBRANCH  27  28
ENDBRANCH  26  27
BRANCH  26  34
HETATM   34  C20 UNL     1      -4.621   7.988   0.914  1.00  0.00     0.246 C
HETATM   35  O2  UNL     1      -5.064   9.073   1.457  1.00  0.00    -0.271 OA
HETATM   36  N6  UNL     1      -4.713   6.830   1.615  1.00  0.00    -0.311 N
HETATM   37  C21 UNL     1      -4.053   5.845   1.967  1.00  0.00     0.107 A
ATOM     38  H6  UNL     1      -5.660   6.741   1.981  1.00  0.00     0.170 HD
HETATM   39  C22 UNL     1      -2.741   5.633   1.657  1.00  0.00     0.048 A
HETATM   40  N7  UNL     1      -4.738   4.909   2.716  1.00  0.00    -0.352 N
HETATM   41  C23 UNL     1      -2.096   4.468   2.101  1.00  0.00     0.005 A
HETATM   42  C24 UNL     1      -2.816   3.563   2.844  1.00  0.00     0.017 A
HETATM   43  C25 UNL     1      -4.146   3.810   3.141  1.00  0.00     0.089 A
ATOM     44  H7  UNL     1      -5.718   5.071   2.945  1.00  0.00     0.166 HD
ENDBRANCH  26  34
ENDBRANCH   3  26
TORSDOF 7
ENDMDL