MODEL 1
REMARK VINA RESULT: -6.651927566      0.000      0.000
REMARK  10 active torsions:
REMARK  status: ('A' for Active; 'I' for Inactive)
REMARK       I    between atoms: C1_2  and  N1_3
REMARK    1  A    between atoms: C1_2  and  C8_13
REMARK    2  A    between atoms: N1_3  and  C2_5
REMARK    3  A    between atoms: C2_5  and  C3_6
REMARK    4  A    between atoms: C12_17  and  N3_18
REMARK    5  A    between atoms: N3_18  and  C13_20
REMARK    6  A    between atoms: C14_23  and  N5_24
REMARK    7  A    between atoms: N5_24  and  C15_26
REMARK    8  A    between atoms: C15_26  and  C16_27
REMARK    9  A    between atoms: C22_35  and  N7_36
REMARK   10  A    between atoms: N7_36  and  C23_38
ROOT
HETATM    1  C13 UNL     1      -2.228  10.685  -4.075  1.00  0.00     0.711 A
HETATM    2  N4  UNL     1      -1.409  11.526  -3.443  1.00  0.00    -0.021 N
ATOM      3  H4  UNL     1      -0.755  11.183  -2.739  1.00  0.00     0.203 HD
HETATM    4  C14 UNL     1      -1.462  12.843  -3.752  1.00  0.00     0.707 A
HETATM    5  N6  UNL     1      -2.318  13.291  -4.674  1.00  0.00    -0.021 N
ATOM      6  H6  UNL     1      -2.333  14.289  -4.885  1.00  0.00     0.203 HD
HETATM    7  C22 UNL     1      -3.166  12.473  -5.340  1.00  0.00     0.711 A
HETATM    8  N8  UNL     1      -3.102  11.184  -5.023  1.00  0.00    -0.021 N
ATOM      9  H8  UNL     1      -3.724  10.533  -5.501  1.00  0.00     0.203 HD
ENDROOT
BRANCH   1  10
HETATM   10  N3  UNL     1      -2.235   9.449  -3.851  1.00  0.00    -0.191 N
ATOM     11  H3  UNL     1      -1.513   8.962  -4.381  1.00  0.00     0.184 HD
BRANCH  10  12
HETATM   12  C12 UNL     1      -2.968   8.587  -3.073  1.00  0.00     0.050 A
HETATM   13  C11 UNL     1      -3.372   7.341  -3.548  1.00  0.00     0.030 A
HETATM   14  C10 UNL     1      -4.131   6.507  -2.762  1.00  0.00     0.003 A
HETATM   15  C9  UNL     1      -4.506   6.885  -1.493  1.00  0.00     0.017 A
HETATM   16  C8  UNL     1      -4.127   8.106  -0.988  1.00  0.00     0.034 A
HETATM   17  C29 UNL     1      -3.373   8.931  -1.771  1.00  0.00     0.047 A
BRANCH  16  18
HETATM   18  C1  UNL     1      -4.512   8.568   0.359  1.00  0.00     0.252 C
HETATM   19  O1  UNL     1      -5.067   7.764   1.154  1.00  0.00    -0.268 OA
HETATM   20  N1  UNL     1      -4.269   9.905   0.784  1.00  0.00    -0.351 N
ATOM     21  H1  UNL     1      -3.818  10.580   0.166  1.00  0.00     0.163 HD
BRANCH  20  22
HETATM   22  C2  UNL     1      -4.685  10.280   2.132  1.00  0.00     0.179 C
BRANCH  22  23
HETATM   23  C3  UNL     1      -3.605  10.771   2.979  1.00  0.00     0.026 A
HETATM   24  C4  UNL     1      -2.292  10.645   2.602  1.00  0.00     0.027 A
HETATM   25  C5  UNL     1      -1.262  11.121   3.424  1.00  0.00     0.003 A
HETATM   26  C6  UNL     1      -1.580  11.721   4.620  1.00  0.00     0.017 A
HETATM   27  C7  UNL     1      -2.907  11.837   4.977  1.00  0.00     0.088 A
HETATM   28  N2  UNL     1      -3.875  11.369   4.165  1.00  0.00    -0.368 N
ATOM     29  H2  UNL     1      -4.848  11.467   4.454  1.00  0.00     0.165 HD
ENDBRANCH  22  23
ENDBRANCH  20  22
ENDBRANCH  16  18
ENDBRANCH  10  12
ENDBRANCH   1  10
BRANCH   4  30
HETATM   30  N5  UNL     1      -0.667  13.611  -3.127  1.00  0.00    -0.221 N
ATOM     31  H5  UNL     1       0.316  13.337  -3.157  1.00  0.00     0.178 HD
BRANCH  30  32
HETATM   32  C15 UNL     1      -0.945  14.796  -2.391  1.00  0.00     0.176 C
BRANCH  32  33
HETATM   33  C16 UNL     1      -0.279  14.694  -1.044  1.00  0.00    -0.040 A
HETATM   34  C17 UNL     1      -0.369  13.510  -0.325  1.00  0.00     0.009 A
HETATM   35  C18 UNL     1       0.248  13.405   0.911  1.00  0.00     0.001 A
HETATM   36  C19 UNL     1       0.960  14.452   1.462  1.00  0.00     0.000 A
HETATM   37  C20 UNL     1       1.041  15.615   0.741  1.00  0.00     0.001 A
HETATM   38  C21 UNL     1       0.429  15.731  -0.494  1.00  0.00     0.009 A
ENDBRANCH  32  33
ENDBRANCH  30  32
ENDBRANCH   4  30
BRANCH   7  39
HETATM   39  N7  UNL     1      -3.937  12.971  -6.189  1.00  0.00    -0.191 N
ATOM     40  H7  UNL     1      -4.887  13.118  -5.847  1.00  0.00     0.184 HD
BRANCH  39  41
HETATM   41  C23 UNL     1      -3.752  13.363  -7.508  1.00  0.00     0.049 A
HETATM   42  C24 UNL     1      -4.707  14.129  -8.147  1.00  0.00     0.030 A
HETATM   43  C25 UNL     1      -4.583  14.547  -9.461  1.00  0.00     0.002 A
HETATM   44  C26 UNL     1      -3.453  14.183 -10.164  1.00  0.00     0.000 A
HETATM   45  C27 UNL     1      -2.465  13.416  -9.567  1.00  0.00     0.002 A
HETATM   46  C28 UNL     1      -2.631  13.021  -8.255  1.00  0.00     0.030 A
ENDBRANCH  39  41
ENDBRANCH   7  39
TORSDOF 10
ENDMDL