MODEL 3
REMARK VINA RESULT: -6.176424106      1.951      3.354
REMARK  10 active torsions:
REMARK  status: ('A' for Active; 'I' for Inactive)
REMARK    1  A    between atoms: N1_2  and  C2_3
REMARK    2  A    between atoms: N1_2  and  C8_11
REMARK    3  A    between atoms: C2_3  and  C3_4
REMARK    4  A    between atoms: C8_11  and  O1_12
REMARK    5  A    between atoms: C8_11  and  C9_14
REMARK    6  A    between atoms: C11_16  and  C12_17
REMARK    7  A    between atoms: C14_23  and  C15_24
REMARK    8  A    between atoms: N5_25  and  N6_27
REMARK    9  A    between atoms: N6_27  and  C16_29
REMARK   10  A    between atoms: C18_33  and  C19_34
ROOT
HETATM    1  C9  UNL     1      -2.343  14.019  -4.046  1.00  0.00     0.016 A
HETATM    2  C10 UNL     1      -2.721  12.721  -3.884  1.00  0.00     0.031 A
HETATM    3  C11 UNL     1      -2.365  11.924  -2.768  1.00  0.00     0.017 A
HETATM    4  C13 UNL     1      -1.614  12.494  -1.793  1.00  0.00    -0.001 A
HETATM    5  C14 UNL     1      -1.298  11.794  -0.656  1.00  0.00    -0.006 A
HETATM    6  C17 UNL     1      -0.527  12.421   0.347  1.00  0.00     0.026 A
HETATM    7  C18 UNL     1      -0.105  13.706   0.212  1.00  0.00    -0.024 A
HETATM    8  C25 UNL     1      -0.439  14.411  -0.914  1.00  0.00     0.024 A
HETATM    9  C26 UNL     1      -1.199  13.829  -1.929  1.00  0.00    -0.022 A
HETATM   10  C27 UNL     1      -1.552  14.564  -3.022  1.00  0.00     0.028 A
ENDROOT
BRANCH   1  11
HETATM   11  C8  UNL     1      -2.685  14.879  -5.151  1.00  0.00     0.148 C
BRANCH  11  12
HETATM   12  N1  UNL     1      -1.958  15.531  -6.109  1.00  0.00    -0.360 N
HETATM   13  C1  UNL     1      -1.081  14.694  -7.029  1.00  0.00     0.152 C
BRANCH  12  14
HETATM   14  C2  UNL     1      -1.878  16.919  -6.391  1.00  0.00     0.181 C
BRANCH  14  15
HETATM   15  C3  UNL     1      -1.591  17.664  -5.133  1.00  0.00     0.027 A
HETATM   16  C4  UNL     1      -0.370  17.621  -4.499  1.00  0.00     0.027 A
HETATM   17  C5  UNL     1      -0.158  18.323  -3.349  1.00  0.00     0.003 A
HETATM   18  C6  UNL     1      -1.162  19.093  -2.795  1.00  0.00     0.017 A
HETATM   19  C7  UNL     1      -2.361  19.115  -3.448  1.00  0.00     0.088 A
HETATM   20  N2  UNL     1      -2.569  18.424  -4.580  1.00  0.00    -0.368 N
ATOM     21  H2  UNL     1      -3.482  18.471  -5.033  1.00  0.00     0.165 HD
ENDBRANCH  14  15
ENDBRANCH  12  14
ENDBRANCH  11  12
BRANCH  11  22
HETATM   22  O1  UNL     1      -3.984  15.085  -5.270  1.00  0.00    -0.346 OA
ATOM     23  H1  UNL     1      -4.445  14.328  -5.612  1.00  0.00     0.219 HD
ENDBRANCH  11  22
ENDBRANCH   1  11
BRANCH   3  24
HETATM   24  C12 UNL     1      -2.440  10.486  -3.020  1.00  0.00     0.121 C
HETATM   25  N3  UNL     1      -3.545   9.872  -2.868  1.00  0.00    -0.387 N
ATOM     26  H32 UNL     1      -4.276  10.388  -2.380  1.00  0.00     0.157 HD
ATOM     27  H31 UNL     1      -3.597   8.869  -3.045  1.00  0.00     0.157 HD
HETATM   28  N4  UNL     1      -1.428   9.771  -3.697  1.00  0.00    -0.082 NA
ENDBRANCH   3  24
BRANCH   5  29
HETATM   29  C15 UNL     1      -2.007  10.592  -0.257  1.00  0.00     0.119 C
HETATM   30  N5  UNL     1      -3.103  10.705   0.407  1.00  0.00    -0.309 N
ATOM     31  H5  UNL     1      -3.421  11.650   0.621  1.00  0.00     0.186 HD
BRANCH  30  32
HETATM   32  N6  UNL     1      -3.881   9.670   0.850  1.00  0.00    -0.279 N
ATOM     33  H6  UNL     1      -4.096   8.897   0.220  1.00  0.00     0.189 HD
BRANCH  32  34
HETATM   34  C16 UNL     1      -4.388   9.656   2.164  1.00  0.00     0.199 C
HETATM   35  N7  UNL     1      -5.486   8.812   2.546  1.00  0.00    -0.068 NA
HETATM   36  S1  UNL     1      -3.705  10.630   3.279  1.00  0.00    -0.043 SA
ENDBRANCH  32  34
ENDBRANCH  30  32
ENDBRANCH   5  29
BRANCH   7  37
HETATM   37  C19 UNL     1       0.712  14.377   1.251  1.00  0.00    -0.026 A
HETATM   38  C20 UNL     1       1.171  15.658   1.025  1.00  0.00     0.012 A
HETATM   39  C21 UNL     1       1.931  16.310   1.962  1.00  0.00     0.001 A
HETATM   40  C22 UNL     1       2.242  15.668   3.159  1.00  0.00     0.000 A
HETATM   41  C23 UNL     1       1.778  14.385   3.377  1.00  0.00     0.001 A
HETATM   42  C24 UNL     1       1.020  13.750   2.430  1.00  0.00     0.012 A
ENDBRANCH   7  37
TORSDOF 10
ENDMDL