MODEL 2
REMARK VINA RESULT: -7.252131477      2.231      3.587
REMARK  8 active torsions:
REMARK  status: ('A' for Active; 'I' for Inactive)
REMARK    1  A    between atoms: C1_4  and  C2_6
REMARK    2  A    between atoms: C9_13  and  C10_14
REMARK    3  A    between atoms: N3_15  and  C11_17
REMARK    4  A    between atoms: C14_20  and  C15_21
REMARK    5  A    between atoms: C15_21  and  C16_22
REMARK    6  A    between atoms: C16_22  and  N4_23
REMARK    7  A    between atoms: N4_23  and  C17_25
REMARK    8  A    between atoms: C18_28  and  N6_29
ROOT
HETATM    1  C11 UNL     1       0.225  12.599   0.575  1.00  0.00     0.031 A
HETATM    2  C12 UNL     1       0.831  13.844   0.799  1.00  0.00     0.030 A
HETATM    3  C13 UNL     1       0.607  14.940   0.004  1.00  0.00     0.009 A
HETATM    4  C14 UNL     1      -0.244  14.874  -1.080  1.00  0.00    -0.057 A
HETATM    5  C25 UNL     1      -0.851  13.660  -1.319  1.00  0.00     0.009 A
HETATM    6  C26 UNL     1      -0.635  12.557  -0.531  1.00  0.00     0.030 A
ENDROOT
BRANCH   4   7
HETATM    7  C15 UNL     1      -0.504  16.051  -1.953  1.00  0.00     0.058 C
BRANCH   7   8
HETATM    8  C16 UNL     1      -0.440  15.671  -3.422  1.00  0.00     0.142 C
BRANCH   8   9
HETATM    9  N4  UNL     1      -1.698  15.767  -4.062  1.00  0.00    -0.226 N
ATOM     10  H4  UNL     1      -2.216  16.638  -3.942  1.00  0.00     0.177 HD
BRANCH   9  11
HETATM   11  C17 UNL     1      -2.238  14.865  -4.773  1.00  0.00     0.682 A
HETATM   12  N5  UNL     1      -2.020  13.570  -4.550  1.00  0.00    -0.176 N
HETATM   13  C18 UNL     1      -2.607  12.613  -5.317  1.00  0.00     0.131 A
ATOM     14  H5  UNL     1      -1.402  13.292  -3.789  1.00  0.00     0.186 HD
HETATM   15  C23 UNL     1      -3.434  13.038  -6.333  1.00  0.00     0.124 A
HETATM   16  C24 UNL     1      -3.649  14.381  -6.552  1.00  0.00     0.263 A
HETATM   17  O2  UNL     1      -4.401  14.802  -7.474  1.00  0.00    -0.268 OA
HETATM   18  N7  UNL     1      -3.055  15.281  -5.778  1.00  0.00    -0.156 N
ATOM     19  H7  UNL     1      -3.210  16.277  -5.936  1.00  0.00     0.187 HD
BRANCH  13  20
HETATM   20  N6  UNL     1      -2.373  11.218  -5.076  1.00  0.00    -0.303 N
HETATM   21  C19 UNL     1      -2.077  10.245  -6.133  1.00  0.00     0.134 C
HETATM   22  C20 UNL     1      -1.072   9.358  -5.386  1.00  0.00     0.029 C
HETATM   23  C21 UNL     1      -1.845   9.142  -4.080  1.00  0.00     0.105 C
HETATM   24  C22 UNL     1      -2.376  10.513  -3.842  1.00  0.00     0.225 C
HETATM   25  O1  UNL     1      -2.779  11.032  -2.760  1.00  0.00    -0.273 OA
ENDBRANCH  13  20
ENDBRANCH   9  11
ENDBRANCH   8   9
ENDBRANCH   7   8
ENDBRANCH   4   7
BRANCH   1  26
HETATM   26  N3  UNL     1       0.481  11.514   1.380  1.00  0.00    -0.365 N
HETATM   27  C10 UNL     1       0.019  10.970   2.397  1.00  0.00     0.100 C
ATOM     28  H3  UNL     1       1.295  11.002   1.039  1.00  0.00     0.165 HD
BRANCH  27  29
HETATM   29  C9  UNL     1      -1.077  11.261   3.252  1.00  0.00    -0.010 A
HETATM   30  C8  UNL     1      -0.937  11.997   4.396  1.00  0.00     0.013 A
HETATM   31  C7  UNL     1      -2.009  12.299   5.252  1.00  0.00     0.002 A
HETATM   32  C6  UNL     1      -3.251  11.850   4.945  1.00  0.00     0.012 A
HETATM   33  C5  UNL     1      -3.418  11.103   3.792  1.00  0.00    -0.025 A
HETATM   34  C4  UNL     1      -4.706  10.676   3.540  1.00  0.00     0.013 A
HETATM   35  C27 UNL     1      -2.367  10.803   2.947  1.00  0.00    -0.013 A
HETATM   36  C3  UNL     1      -4.964   9.931   2.423  1.00  0.00     0.015 A
HETATM   37  C2  UNL     1      -3.910   9.621   1.563  1.00  0.00     0.005 A
HETATM   38  C28 UNL     1      -2.625  10.047   1.815  1.00  0.00     0.028 A
BRANCH  37  39
HETATM   39  C1  UNL     1      -4.211   8.826   0.384  1.00  0.00     0.120 C
HETATM   40  N1  UNL     1      -3.826   9.137  -0.790  1.00  0.00    -0.387 N
ATOM     41  H12 UNL     1      -4.037   8.579  -1.618  1.00  0.00     0.157 HD
ATOM     42  H11 UNL     1      -3.278   9.991  -0.888  1.00  0.00     0.157 HD
HETATM   43  N2  UNL     1      -4.979   7.627   0.521  1.00  0.00    -0.082 NA
ENDBRANCH  37  39
ENDBRANCH  27  29
ENDBRANCH   1  26
TORSDOF 8
ENDMDL