MODEL 2
REMARK VINA RESULT: -5.573680289      7.733     12.064
REMARK  8 active torsions:
REMARK  status: ('A' for Active; 'I' for Inactive)
REMARK       I    between atoms: N1_2  and  C2_4
REMARK    1  A    between atoms: C2_4  and  C3_6
REMARK    2  A    between atoms: C4_7  and  C5_8
REMARK    3  A    between atoms: C6_9  and  N2_10
REMARK    4  A    between atoms: N2_10  and  C7_12
REMARK    5  A    between atoms: C7_12  and  C8_13
REMARK    6  A    between atoms: C11_18  and  C12_19
REMARK    7  A    between atoms: N7_30  and  C17_31
REMARK    8  A    between atoms: C20_34  and  C21_35
ROOT
HETATM    1  C5  UNL     1      -2.164  15.454  -8.682  1.00  0.00     0.037 A
HETATM    2  C6  UNL     1      -2.243  15.557 -10.064  1.00  0.00     0.114 A
HETATM    3  N5  UNL     1      -2.322  16.751 -10.704  1.00  0.00    -0.351 N
ATOM      4  H5  UNL     1      -2.377  16.762 -11.722  1.00  0.00     0.166 HD
HETATM    5  C13 UNL     1      -2.331  17.905 -10.046  1.00  0.00     0.105 A
HETATM    6  C14 UNL     1      -2.256  17.881  -8.687  1.00  0.00     0.033 A
HETATM    7  C15 UNL     1      -2.227  18.894  -7.762  1.00  0.00     0.036 A
HETATM    8  C16 UNL     1      -2.296  20.336  -8.077  1.00  0.00     0.070 C
HETATM    9  N6  UNL     1      -2.130  18.348  -6.585  1.00  0.00    -0.297 N
ATOM     10  H6  UNL     1      -2.087  18.863  -5.706  1.00  0.00     0.187 HD
HETATM   11  N7  UNL     1      -2.093  16.981  -6.694  1.00  0.00    -0.255 N
HETATM   12  C29 UNL     1      -2.171  16.671  -7.976  1.00  0.00     0.084 A
ENDROOT
BRANCH   2  13
HETATM   13  N2  UNL     1      -2.290  14.508 -10.824  1.00  0.00    -0.371 N
ATOM     14  H2  UNL     1      -2.128  13.589 -10.412  1.00  0.00     0.161 HD
BRANCH  13  15
HETATM   15  C7  UNL     1      -2.564  14.601 -12.228  1.00  0.00     0.162 C
BRANCH  15  16
HETATM   16  C8  UNL     1      -3.574  13.603 -12.689  1.00  0.00    -0.007 A
HETATM   17  C9  UNL     1      -3.345  12.514 -13.483  1.00  0.00     0.028 A
HETATM   18  C10 UNL     1      -4.555  11.878 -13.647  1.00  0.00     0.089 A
HETATM   19  N3  UNL     1      -5.478  12.572 -12.968  1.00  0.00    -0.361 N
HETATM   20  C11 UNL     1      -4.913  13.614 -12.382  1.00  0.00     0.105 A
ATOM     21  H3  UNL     1      -6.468  12.333 -12.912  1.00  0.00     0.165 HD
BRANCH  20  22
HETATM   22  C12 UNL     1      -5.594  14.626 -11.539  1.00  0.00     0.282 C
HETATM   23  N4  UNL     1      -5.543  14.455 -10.129  1.00  0.00    -0.056 NA
HETATM   24  O2  UNL     1      -6.170  15.567 -12.102  1.00  0.00    -0.269 OA
ENDBRANCH  20  22
ENDBRANCH  15  16
ENDBRANCH  13  15
ENDBRANCH   2  13
BRANCH   1  25
HETATM   25  C4  UNL     1      -2.018  14.197  -8.003  1.00  0.00     0.023 C
HETATM   26  C3  UNL     1      -3.015  13.403  -7.658  1.00  0.00     0.075 C
BRANCH  26  27
HETATM   27  C2  UNL     1      -2.687  12.139  -6.958  1.00  0.00     0.240 C
HETATM   28  N1  UNL     1      -1.884  11.151  -7.558  1.00  0.00    -0.362 N
HETATM   29  C1  UNL     1      -1.546   9.900  -6.890  1.00  0.00     0.149 C
ATOM     30  H1  UNL     1      -1.524  11.316  -8.498  1.00  0.00     0.162 HD
HETATM   31  O1  UNL     1      -3.138  11.968  -5.815  1.00  0.00    -0.269 OA
ENDBRANCH  26  27
ENDBRANCH   1  25
BRANCH  11  32
HETATM   32  C17 UNL     1      -1.953  16.165  -5.550  1.00  0.00     0.057 A
HETATM   33  C18 UNL     1      -0.709  15.760  -5.060  1.00  0.00     0.032 A
HETATM   34  C19 UNL     1      -0.561  14.914  -3.985  1.00  0.00     0.014 A
HETATM   35  C20 UNL     1      -1.660  14.410  -3.321  1.00  0.00    -0.026 A
HETATM   36  C27 UNL     1      -2.900  14.795  -3.786  1.00  0.00     0.014 A
HETATM   37  C28 UNL     1      -3.053  15.640  -4.861  1.00  0.00     0.032 A
BRANCH  35  38
HETATM   38  C21 UNL     1      -1.509  13.511  -2.177  1.00  0.00    -0.026 A
HETATM   39  C22 UNL     1      -2.248  12.348  -2.058  1.00  0.00     0.012 A
HETATM   40  C23 UNL     1      -2.107  11.500  -0.981  1.00  0.00     0.001 A
HETATM   41  C24 UNL     1      -1.211  11.811   0.006  1.00  0.00     0.000 A
HETATM   42  C25 UNL     1      -0.452  12.967  -0.082  1.00  0.00     0.001 A
HETATM   43  C26 UNL     1      -0.615  13.797  -1.172  1.00  0.00     0.012 A
ENDBRANCH  35  38
ENDBRANCH  11  32
TORSDOF 8
ENDMDL