MODEL 3
REMARK VINA RESULT: -7.952573456      2.305      5.440
REMARK  3 active torsions:
REMARK  status: ('A' for Active; 'I' for Inactive)
REMARK    1  A    between atoms: C2_2  and  O2_4
REMARK    2  A    between atoms: O2_4  and  C3_5
REMARK    3  A    between atoms: C15_19  and  C16_20
ROOT
HETATM    1  C3  UNL     1      18.928  -1.088 -36.412  1.00  0.00     0.144 C
HETATM    2  C4  UNL     1      17.479  -1.074 -36.877  1.00  0.00     0.066 C
HETATM    3  C5  UNL     1      17.368   0.092 -37.712  1.00  0.00     0.139 C
HETATM    4  O3  UNL     1      18.453  -0.166 -38.625  1.00  0.00    -0.355 OA
HETATM    5  C6  UNL     1      19.422   0.655 -37.953  1.00  0.00     0.267 C
HETATM    6  O4  UNL     1      19.171   1.759 -38.654  1.00  0.00    -0.360 OA
HETATM    7  C7  UNL     1      17.759   2.051 -38.802  1.00  0.00     0.184 C
HETATM    8  C8  UNL     1      17.306   1.501 -37.444  1.00  0.00     0.020 C
HETATM    9  C9  UNL     1      15.952   1.699 -36.936  1.00  0.00     0.014 C
HETATM   10  C10 UNL     1      15.998   1.171 -35.504  1.00  0.00     0.041 C
HETATM   11  C11 UNL     1      17.367   1.072 -34.900  1.00  0.00    -0.072 C
HETATM   12  C12 UNL     1      17.311   0.793 -33.595  1.00  0.00    -0.085 C
HETATM   13  C13 UNL     1      18.551   0.652 -32.785  1.00  0.00     0.043 C
HETATM   14  C14 UNL     1      16.028   0.609 -32.871  1.00  0.00     0.043 C
HETATM   15  C15 UNL     1      18.623   1.294 -35.599  1.00  0.00     0.035 C
HETATM   16  C16 UNL     1      19.315   0.374 -36.509  1.00  0.00     0.079 C
HETATM   17  C17 UNL     1      18.169   2.345 -36.591  1.00  0.00     0.040 C
HETATM   18  C18 UNL     1      17.644   3.608 -36.079  1.00  0.00    -0.032 C
HETATM   19  C19 UNL     1      18.523   4.148 -34.974  1.00  0.00     0.048 C
HETATM   20  C20 UNL     1      16.224   3.737 -35.839  1.00  0.00     0.155 C
HETATM   21  O5  UNL     1      15.766   4.304 -34.904  1.00  0.00    -0.293 OA
HETATM   22  C21 UNL     1      15.391   3.086 -36.875  1.00  0.00     0.061 C
HETATM   23  C22 UNL     1      13.980   3.010 -36.365  1.00  0.00     0.018 C
ENDROOT
BRANCH   1  24
HETATM   24  O2  UNL     1      19.207  -1.746 -35.261  1.00  0.00    -0.316 OA
BRANCH  24  25
HETATM   25  C2  UNL     1      19.408  -3.092 -35.159  1.00  0.00     0.255 C
HETATM   26  C1  UNL     1      18.372  -4.078 -34.757  1.00  0.00     0.126 C
HETATM   27  O1  UNL     1      20.564  -3.559 -35.422  1.00  0.00    -0.266 OA
ENDBRANCH  24  25
ENDBRANCH   1  24
TORSDOF 3
ENDMDL