MODEL 5
REMARK VINA RESULT: -7.742594431      4.127      6.541
REMARK  2 active torsions:
REMARK  status: ('A' for Active; 'I' for Inactive)
REMARK    1  A    between atoms: O1_2  and  C2_3
REMARK    2  A    between atoms: C2_3  and  C3_4
ROOT
HETATM    1  C3  UNL     1      16.899   0.811 -32.909  1.00  0.00     0.146 C
HETATM    2  C4  UNL     1      18.067   1.223 -33.729  1.00  0.00     0.047 C
HETATM    3  C5  UNL     1      18.215   0.618 -35.093  1.00  0.00     0.006 C
HETATM    4  C6  UNL     1      19.531   1.156 -35.629  1.00  0.00     0.013 C
HETATM    5  C7  UNL     1      19.379   2.128 -36.730  1.00  0.00     0.010 C
HETATM    6  C8  UNL     1      19.429   1.697 -38.128  1.00  0.00     0.042 C
HETATM    7  C9  UNL     1      18.173   2.228 -38.804  1.00  0.00     0.011 C
HETATM    8  C10 UNL     1      17.061   1.381 -38.382  1.00  0.00     0.029 C
HETATM    9  C11 UNL     1      17.222   0.315 -37.376  1.00  0.00     0.128 C
HETATM   10  N1  UNL     1      18.527  -0.425 -37.394  1.00  0.00    -0.312 N
HETATM   11  C12 UNL     1      18.561  -1.424 -36.391  1.00  0.00     0.223 C
HETATM   12  O2  UNL     1      18.694  -2.675 -36.361  1.00  0.00    -0.273 OA
HETATM   13  C13 UNL     1      18.396  -0.902 -34.950  1.00  0.00     0.115 C
HETATM   14  C14 UNL     1      19.365   0.202 -38.408  1.00  0.00     0.142 C
HETATM   15  C15 UNL     1      20.731  -0.231 -38.653  1.00  0.00     0.064 C
HETATM   16  C16 UNL     1      20.974   0.001 -40.133  1.00  0.00     0.031 C
HETATM   17  C17 UNL     1      19.564  -0.012 -40.654  1.00  0.00     0.171 C
HETATM   18  O3  UNL     1      18.709  -0.043 -39.608  1.00  0.00    -0.360 OA
HETATM   19  C18 UNL     1      17.021   0.814 -35.938  1.00  0.00     0.118 A
HETATM   20  O4  UNL     1      15.941   0.000 -35.262  1.00  0.00    -0.364 OA
HETATM   21  C19 UNL     1      15.850   1.368 -35.551  1.00  0.00     0.184 A
HETATM   22  C20 UNL     1      15.693   2.214 -34.331  1.00  0.00     0.203 C
HETATM   23  O5  UNL     1      15.744   1.471 -33.157  1.00  0.00    -0.381 OA
ENDROOT
BRANCH   1  24
HETATM   24  C2  UNL     1      17.288   1.024 -31.466  1.00  0.00     0.199 C
BRANCH  24  25
HETATM   25  O1  UNL     1      17.151   0.012 -30.601  1.00  0.00    -0.393 OA
HETATM   26  C1  UNL     1      16.235   0.198 -29.612  1.00  0.00     0.201 C
ENDBRANCH  24  25
ENDBRANCH   1  24
TORSDOF 2
ENDMDL