MODEL 2
REMARK VINA RESULT: -7.442703119      1.335      1.815
REMARK  3 active torsions:
REMARK  status: ('A' for Active; 'I' for Inactive)
REMARK    1  A    between atoms: O1_2  and  C2_3
REMARK    2  A    between atoms: C2_3  and  C3_5
REMARK    3  A    between atoms: C3_5  and  C4_6
ROOT
HETATM    1  C4  UNL     1      14.604   3.317 -36.215  1.00  0.00    -0.027 C
HETATM    2  C5  UNL     1      13.173   3.514 -35.695  1.00  0.00     0.016 C
HETATM    3  C6  UNL     1      14.390   2.580 -37.527  1.00  0.00    -0.009 C
HETATM    4  C7  UNL     1      13.455   3.339 -38.440  1.00  0.00     0.011 C
HETATM    5  C8  UNL     1      15.702   2.451 -38.203  1.00  0.00     0.010 C
HETATM    6  C9  UNL     1      16.726   1.747 -37.395  1.00  0.00    -0.008 C
HETATM    7  C10 UNL     1      18.086   2.317 -37.824  1.00  0.00     0.011 C
HETATM    8  C11 UNL     1      16.548   1.729 -35.934  1.00  0.00    -0.019 C
HETATM    9  C12 UNL     1      15.800   0.487 -35.494  1.00  0.00     0.017 C
HETATM   10  C13 UNL     1      14.836   1.367 -34.687  1.00  0.00     0.004 C
HETATM   11  C14 UNL     1      15.062   1.053 -33.264  1.00  0.00     0.072 C
HETATM   12  C15 UNL     1      14.340   1.898 -32.263  1.00  0.00     0.019 C
HETATM   13  C16 UNL     1      16.483   0.990 -32.850  1.00  0.00     0.246 C
HETATM   14  O3  UNL     1      16.605   0.849 -31.635  1.00  0.00    -0.280 OA
HETATM   15  S1  UNL     1      17.984   1.069 -33.690  1.00  0.00     0.210 S
HETATM   16  O4  UNL     1      18.951   1.865 -32.823  1.00  0.00    -0.220 OA
HETATM   17  O5  UNL     1      18.572  -0.333 -33.737  1.00  0.00    -0.220 OA
HETATM   18  C17 UNL     1      17.915   1.830 -35.249  1.00  0.00     0.159 C
HETATM   19  C18 UNL     1      15.483   2.554 -35.319  1.00  0.00     0.009 C
ENDROOT
BRANCH   1  20
HETATM   20  C3  UNL     1      15.145   4.702 -36.481  1.00  0.00     0.120 C
BRANCH  20  21
HETATM   21  C2  UNL     1      15.441   5.483 -35.265  1.00  0.00     0.259 C
HETATM   22  O2  UNL     1      14.676   5.636 -34.288  1.00  0.00    -0.265 OA
BRANCH  21  23
HETATM   23  O1  UNL     1      16.677   6.116 -35.178  1.00  0.00    -0.326 OA
HETATM   24  C1  UNL     1      16.785   7.437 -34.625  1.00  0.00     0.213 C
ENDBRANCH  21  23
ENDBRANCH  20  21
ENDBRANCH   1  20
TORSDOF 3
ENDMDL