MODEL 1
REMARK VINA RESULT: -7.971628543      0.000      0.000
REMARK  3 active torsions:
REMARK  status: ('A' for Active; 'I' for Inactive)
REMARK    1  A    between atoms: N1_1  and  N2_4
REMARK    2  A    between atoms: N2_4  and  N3_6
REMARK    3  A    between atoms: C1_8  and  C2_9
REMARK       I    between atoms: C2_9  and  N4_11
ROOT
HETATM    1  C2  UNL     1      12.856   3.584 -33.161  1.00  0.00     0.263 C
HETATM    2  O1  UNL     1      12.445   4.726 -33.528  1.00  0.00    -0.267 OA
HETATM    3  N4  UNL     1      13.895   2.932 -33.834  1.00  0.00    -0.319 N
ATOM      4  H4  UNL     1      14.423   2.242 -33.299  1.00  0.00     0.169 HD
HETATM    5  C3  UNL     1      14.251   3.109 -35.048  1.00  0.00     0.065 C
HETATM    6  S1  UNL     1      13.299   4.323 -35.939  1.00  0.00    -0.110 SA
HETATM    7  C4  UNL     1      13.235   3.509 -37.585  1.00  0.00     0.058 C
HETATM    8  C5  UNL     1      12.459   4.288 -38.568  1.00  0.00     0.016 C
HETATM    9  C6  UNL     1      12.469   3.434 -39.844  1.00  0.00     0.001 C
HETATM   10  C7  UNL     1      13.865   3.435 -40.348  1.00  0.00     0.000 C
HETATM   11  C8  UNL     1      14.913   3.025 -39.396  1.00  0.00     0.006 C
HETATM   12  C9  UNL     1      14.668   3.317 -37.955  1.00  0.00     0.006 C
HETATM   13  C10 UNL     1      15.367   2.272 -37.133  1.00  0.00     0.022 C
HETATM   14  C11 UNL     1      16.775   2.165 -37.707  1.00  0.00     0.093 C
HETATM   15  S2  UNL     1      18.036   1.773 -36.506  1.00  0.00    -0.086 SA
HETATM   16  S3  UNL     1      17.356   0.034 -35.427  1.00  0.00    -0.024 SA
HETATM   17  S4  UNL     1      15.372   0.714 -34.932  1.00  0.00    -0.074 SA
HETATM   18  C12 UNL     1      15.332   2.403 -35.680  1.00  0.00     0.121 C
ENDROOT
BRANCH   1  19
HETATM   19  C1  UNL     1      12.234   2.946 -32.022  1.00  0.00     0.182 C
HETATM   20  N3  UNL     1      11.355   3.558 -31.325  1.00  0.00    -0.293 N
ATOM     21  H3  UNL     1      11.080   4.510 -31.566  1.00  0.00     0.187 HD
BRANCH  20  22
HETATM   22  N2  UNL     1      10.775   2.914 -30.235  1.00  0.00    -0.250 N
ATOM     23  H2  UNL     1      11.330   2.731 -29.398  1.00  0.00     0.207 HD
BRANCH  22  24
HETATM   24  N1  UNL     1       9.542   2.550 -30.280  1.00  0.00    -0.331 N
ATOM     25  H12 UNL     1       9.147   2.252 -31.172  1.00  0.00     0.178 HD
ATOM     26  H11 UNL     1       8.973   2.561 -29.433  1.00  0.00     0.178 HD
ENDBRANCH  22  24
ENDBRANCH  20  22
ENDBRANCH   1  19
TORSDOF 3
ENDMDL