MODEL 3
REMARK VINA RESULT: -8.406187825      1.248      5.699
REMARK  2 active torsions:
REMARK  status: ('A' for Active; 'I' for Inactive)
REMARK    1  A    between atoms: C2_2  and  C3_3
REMARK    2  A    between atoms: C12_15  and  O4_16
ROOT
HETATM    1  C3  UNL     1      15.511   4.490 -35.395  1.00  0.00     0.066 C
HETATM    2  C4  UNL     1      15.174   4.604 -36.855  1.00  0.00     0.055 C
HETATM    3  C5  UNL     1      13.821   4.130 -37.155  1.00  0.00     0.119 C
HETATM    4  C6  UNL     1      12.850   5.274 -37.325  1.00  0.00     0.266 C
HETATM    5  O1  UNL     1      12.618   6.171 -38.156  1.00  0.00    -0.265 OA
HETATM    6  O2  UNL     1      12.302   4.890 -36.116  1.00  0.00    -0.314 OA
HETATM    7  C7  UNL     1      12.953   3.608 -36.158  1.00  0.00     0.157 C
HETATM    8  C8  UNL     1      13.384   3.114 -34.830  1.00  0.00     0.022 A
HETATM    9  C9  UNL     1      12.560   3.597 -33.751  1.00  0.00     0.048 A
HETATM   10  C10 UNL     1      13.821   4.258 -33.850  1.00  0.00     0.135 A
HETATM   11  O3  UNL     1      14.399   5.070 -34.734  1.00  0.00    -0.373 OA
HETATM   12  C11 UNL     1      14.543   2.288 -34.921  1.00  0.00     0.036 C
HETATM   13  C12 UNL     1      14.822   1.200 -33.959  1.00  0.00     0.127 C
HETATM   14  C14 UNL     1      15.818   0.274 -34.627  1.00  0.00     0.049 C
HETATM   15  C15 UNL     1      16.748   0.887 -35.583  1.00  0.00     0.023 C
HETATM   16  C16 UNL     1      16.517   0.330 -36.999  1.00  0.00     0.024 C
HETATM   17  C17 UNL     1      18.131   0.389 -35.215  1.00  0.00     0.135 C
HETATM   18  O5  UNL     1      18.485  -0.762 -35.384  1.00  0.00    -0.297 OA
HETATM   19  C18 UNL     1      18.929   1.467 -34.650  1.00  0.00     0.079 C
HETATM   20  C19 UNL     1      18.240   2.725 -35.016  1.00  0.00     0.013 C
HETATM   21  C20 UNL     1      16.877   2.379 -35.611  1.00  0.00     0.009 C
HETATM   22  C21 UNL     1      15.826   3.138 -34.909  1.00  0.00     0.033 C
ENDROOT
BRANCH   1  23
HETATM   23  C2  UNL     1      16.660   5.464 -35.116  1.00  0.00     0.034 C
HETATM   24  C1  UNL     1      16.132   6.884 -35.017  1.00  0.00     0.008 C
ENDBRANCH   1  23
BRANCH  13  25
HETATM   25  O4  UNL     1      15.472   1.634 -32.783  1.00  0.00    -0.390 OA
HETATM   26  C13 UNL     1      14.766   1.277 -31.652  1.00  0.00     0.202 C
ENDBRANCH  13  25
TORSDOF 2
ENDMDL