MODEL 3
REMARK VINA RESULT: -8.265634266      2.095      4.974
REMARK  3 active torsions:
REMARK  status: ('A' for Active; 'I' for Inactive)
REMARK    1  A    between atoms: C3_3  and  O1_4
REMARK    2  A    between atoms: O1_4  and  C4_5
REMARK    3  A    between atoms: C4_5  and  C5_6
ROOT
HETATM    1  C1  UNL     1      15.871   1.107 -31.731  1.00  0.00     0.014 C
HETATM    2  C2  UNL     1      17.048   1.128 -31.995  1.00  0.00    -0.091 C
HETATM    3  C3  UNL     1      18.485   1.151 -32.299  1.00  0.00     0.260 C
ENDROOT
BRANCH   3   4
HETATM    4  O1  UNL     1      18.685   0.811 -33.626  1.00  0.00    -0.378 OA
BRANCH   4   5
HETATM    5  C4  UNL     1      18.838   1.929 -34.405  1.00  0.00     0.186 C
BRANCH   5   6
HETATM    6  C5  UNL     1      18.015   1.809 -35.714  1.00  0.00     0.042 C
HETATM    7  C6  UNL     1      16.855   2.758 -35.603  1.00  0.00    -0.054 C
HETATM    8  C7  UNL     1      16.830   4.081 -35.482  1.00  0.00    -0.014 C
HETATM    9  C10 UNL     1      15.425   2.306 -35.619  1.00  0.00     0.041 C
HETATM   10  C8  UNL     1      15.388   4.566 -35.393  1.00  0.00     0.107 C
HETATM   11  C9  UNL     1      14.825   3.316 -34.709  1.00  0.00     0.142 C
HETATM   12  O2  UNL     1      14.136   3.253 -33.754  1.00  0.00    -0.296 OA
HETATM   13  C11 UNL     1      14.724   2.567 -36.944  1.00  0.00     0.028 C
HETATM   14  C12 UNL     1      15.264   0.889 -35.286  1.00  0.00     0.022 C
HETATM   15  C13 UNL     1      16.182   0.099 -36.207  1.00  0.00     0.010 C
HETATM   16  C14 UNL     1      17.600   0.410 -35.995  1.00  0.00     0.038 C
HETATM   17  C15 UNL     1      18.570  -0.180 -36.974  1.00  0.00     0.076 C
HETATM   18  C16 UNL     1      18.418  -1.704 -36.992  1.00  0.00     0.047 C
HETATM   19  O3  UNL     1      19.839   0.067 -36.384  1.00  0.00    -0.366 OA
HETATM   20  C20 UNL     1      18.628   0.304 -38.353  1.00  0.00     0.123 C
HETATM   21  C17 UNL     1      20.114   1.335 -36.980  1.00  0.00     0.087 C
HETATM   22  C18 UNL     1      21.447   1.837 -36.552  1.00  0.00     0.049 C
HETATM   23  C19 UNL     1      20.093   0.838 -38.414  1.00  0.00     0.058 C
HETATM   24  C22 UNL     1      18.990   2.317 -36.756  1.00  0.00     0.181 C
HETATM   25  O5  UNL     1      18.245   2.625 -37.917  1.00  0.00    -0.311 OA
HETATM   26  C21 UNL     1      17.889   1.536 -38.685  1.00  0.00     0.266 C
HETATM   27  O4  UNL     1      17.034   1.583 -39.568  1.00  0.00    -0.265 OA
ENDBRANCH   5   6
ENDBRANCH   4   5
ENDBRANCH   3   4
TORSDOF 3
ENDMDL