MODEL 5
REMARK VINA RESULT: -8.506970630      3.649      7.171
REMARK  3 active torsions:
REMARK  status: ('A' for Active; 'I' for Inactive)
REMARK    1  A    between atoms: C2_3  and  C4_5
REMARK    2  A    between atoms: C4_5  and  N2_7
REMARK    3  A    between atoms: N2_7  and  C7_9
ROOT
HETATM    1  C1  UNL     1      18.575   1.877 -37.367  1.00  0.00     0.221 C
HETATM    2  N1  UNL     1      18.401   2.504 -36.405  1.00  0.00    -0.465 NA
HETATM    3  C2  UNL     1      18.212   3.279 -35.234  1.00  0.00     0.180 C
HETATM    4  C3  UNL     1      19.558   3.860 -34.870  1.00  0.00     0.049 C
ENDROOT
BRANCH   3   5
HETATM    5  C4  UNL     1      17.676   2.387 -34.168  1.00  0.00     0.133 C
HETATM    6  C5  UNL     1      18.742   1.396 -33.692  1.00  0.00     0.036 C
BRANCH   5   7
HETATM    7  N2  UNL     1      16.515   1.631 -34.518  1.00  0.00    -0.215 N
HETATM    8  C6  UNL     1      16.483   0.200 -34.443  1.00  0.00     0.169 C
BRANCH   7   9
HETATM    9  C7  UNL     1      15.341   2.328 -34.939  1.00  0.00     0.680 A
HETATM   10  N3  UNL     1      14.581   2.940 -34.049  1.00  0.00    -0.195 N
HETATM   11  C8  UNL     1      13.468   3.618 -34.374  1.00  0.00     0.032 A
ATOM     12  H3  UNL     1      14.853   2.895 -33.066  1.00  0.00     0.184 HD
HETATM   13  C9  UNL     1      12.666   4.283 -33.321  1.00  0.00     0.069 C
HETATM   14  C10 UNL     1      13.119   3.666 -35.711  1.00  0.00     0.002 A
HETATM   15  C11 UNL     1      13.879   3.045 -36.676  1.00  0.00     0.041 A
HETATM   16  C18 UNL     1      11.876   4.421 -36.041  1.00  0.00     0.183 C
HETATM   17  N4  UNL     1      14.976   2.393 -36.232  1.00  0.00    -0.194 N
HETATM   18  C12 UNL     1      13.635   3.022 -38.113  1.00  0.00     0.055 C
ATOM     19  H4  UNL     1      15.562   1.921 -36.919  1.00  0.00     0.184 HD
HETATM   20  C13 UNL     1      15.013   3.129 -38.789  1.00  0.00     0.012 C
HETATM   21  C17 UNL     1      12.795   4.084 -38.695  1.00  0.00     0.118 C
HETATM   22  C14 UNL     1      14.871   2.844 -40.255  1.00  0.00     0.001 C
HETATM   23  C15 UNL     1      14.002   3.868 -40.905  1.00  0.00     0.001 C
HETATM   24  C16 UNL     1      13.417   4.795 -39.872  1.00  0.00     0.021 C
HETATM   25  S1  UNL     1      12.275   5.329 -37.542  1.00  0.00     0.153 S
HETATM   26  O1  UNL     1      13.470   6.188 -37.238  1.00  0.00    -0.227 OA
HETATM   27  O2  UNL     1      11.107   6.104 -38.004  1.00  0.00    -0.227 OA
ENDBRANCH   7   9
ENDBRANCH   5   7
ENDBRANCH   3   5
TORSDOF 3
ENDMDL