MODEL 3
REMARK VINA RESULT: -6.847876206      3.417      5.539
REMARK  2 active torsions:
REMARK  status: ('A' for Active; 'I' for Inactive)
REMARK    1  A    between atoms: C14_17  and  O3_18
REMARK    2  A    between atoms: C17_21  and  O4_22
ROOT
HETATM    1  C1  UNL     1      16.203   4.455 -35.520  1.00  0.00     0.023 C
HETATM    2  C2  UNL     1      16.517   3.207 -35.318  1.00  0.00    -0.016 C
HETATM    3  C3  UNL     1      15.791   2.030 -34.889  1.00  0.00     0.160 C
HETATM    4  O1  UNL     1      14.605   1.642 -34.987  1.00  0.00    -0.292 OA
HETATM    5  C4  UNL     1      17.085   1.532 -34.304  1.00  0.00     0.070 C
HETATM    6  C5  UNL     1      17.338   0.077 -34.512  1.00  0.00     0.033 C
HETATM    7  C6  UNL     1      18.744  -0.154 -35.055  1.00  0.00     0.104 C
HETATM    8  C7  UNL     1      19.077  -1.567 -35.065  1.00  0.00     0.065 C
HETATM    9  N1  UNL     1      19.346  -2.693 -35.062  1.00  0.00    -0.197 NA
HETATM   10  C8  UNL     1      18.954   0.496 -36.379  1.00  0.00    -0.002 C
HETATM   11  C9  UNL     1      20.284   1.182 -36.436  1.00  0.00     0.019 C
HETATM   12  C10 UNL     1      18.883  -0.486 -37.542  1.00  0.00     0.179 C
HETATM   13  O2  UNL     1      19.191   0.210 -38.681  1.00  0.00    -0.377 OA
HETATM   14  C11 UNL     1      18.290   1.222 -39.008  1.00  0.00     0.087 C
HETATM   15  C12 UNL     1      16.986   0.548 -39.368  1.00  0.00     0.043 C
HETATM   16  C13 UNL     1      17.323  -0.570 -40.296  1.00  0.00     0.035 C
HETATM   17  C14 UNL     1      17.817   0.017 -41.593  1.00  0.00     0.123 C
HETATM   18  C16 UNL     1      18.911   1.014 -41.435  1.00  0.00     0.067 C
HETATM   19  C17 UNL     1      18.798   1.905 -40.230  1.00  0.00     0.157 C
HETATM   20  C19 UNL     1      18.092   2.205 -37.896  1.00  0.00     0.047 C
HETATM   21  C20 UNL     1      17.802   1.469 -36.613  1.00  0.00     0.009 C
HETATM   22  C21 UNL     1      17.732   2.371 -35.416  1.00  0.00     0.038 C
ENDROOT
BRANCH  19  23
HETATM   23  O4  UNL     1      17.991   2.993 -40.536  1.00  0.00    -0.388 OA
HETATM   24  C18 UNL     1      18.489   3.654 -41.645  1.00  0.00     0.202 C
ENDBRANCH  19  23
BRANCH  17  25
HETATM   25  O3  UNL     1      16.712   0.568 -42.238  1.00  0.00    -0.391 OA
HETATM   26  C15 UNL     1      15.928  -0.420 -42.843  1.00  0.00     0.202 C
ENDBRANCH  17  25
TORSDOF 2
ENDMDL