MODEL 2
REMARK VINA RESULT: -5.895640188      0.842      1.208
REMARK  4 active torsions:
REMARK  status: ('A' for Active; 'I' for Inactive)
REMARK    1  A    between atoms: C2_2  and  S1_5
REMARK    2  A    between atoms: S1_5  and  C4_6
REMARK    3  A    between atoms: C4_6  and  C5_7
REMARK    4  A    between atoms: C10_12  and  C11_13
ROOT
HETATM    1  C5  UNL     1       1.279   3.972   6.897  1.00  0.00     0.007 C
HETATM    2  C6  UNL     1       2.683   4.496   6.710  1.00  0.00     0.006 C
HETATM    3  C7  UNL     1       3.522   4.257   7.916  1.00  0.00     0.000 C
HETATM    4  C8  UNL     1       3.552   2.760   8.251  1.00  0.00     0.001 C
HETATM    5  C9  UNL     1       2.117   2.401   8.614  1.00  0.00     0.014 C
HETATM    6  C10 UNL     1       1.233   2.573   7.412  1.00  0.00     0.080 C
ENDROOT
BRANCH   1   7
HETATM    7  C4  UNL     1       0.472   4.076   5.629  1.00  0.00     0.082 C
BRANCH   7   8
HETATM    8  S1  UNL     1       1.022   5.445   4.584  1.00  0.00    -0.126 SA
BRANCH   8   9
HETATM    9  C2  UNL     1       0.041   5.475   3.064  1.00  0.00     0.144 C
HETATM   10  C1  UNL     1       0.048   4.177   2.325  1.00  0.00     0.064 C
HETATM   11  C3  UNL     1       0.484   6.597   2.144  1.00  0.00     0.064 C
HETATM   12  F1  UNL     1      -1.275   5.762   3.424  1.00  0.00    -0.232 F
ENDBRANCH   8   9
ENDBRANCH   7   8
ENDBRANCH   1   7
BRANCH   6  13
HETATM   13  C11 UNL     1      -0.178   2.306   7.864  1.00  0.00     0.235 C
HETATM   14  N1  UNL     1      -0.395   1.217   8.750  1.00  0.00    -0.062 NA
HETATM   15  O1  UNL     1      -1.116   3.013   7.473  1.00  0.00    -0.276 OA
ENDBRANCH   6  13
TORSDOF 4
ENDMDL