MODEL 3
REMARK VINA RESULT: -4.149116257      2.987      4.187
REMARK  3 active torsions:
REMARK  status: ('A' for Active; 'I' for Inactive)
REMARK    1  A    between atoms: C1_2  and  N1_4
REMARK    2  A    between atoms: N1_4  and  C2_6
REMARK    3  A    between atoms: C2_6  and  C3_7
ROOT
HETATM    1  C2  UNL     1       0.518   5.514   4.897  1.00  0.00     0.059 C
HETATM    2  C7  UNL     1       0.124   6.941   5.231  1.00  0.00     0.046 C
HETATM    3  C8  UNL     1      -1.069   7.454   4.513  1.00  0.00     0.076 C
HETATM    4  S2  UNL     1      -2.351   6.182   4.554  1.00  0.00    -0.169 SA
HETATM    5  C9  UNL     1      -1.825   4.804   5.528  1.00  0.00     0.076 C
HETATM    6  C10 UNL     1      -0.353   4.504   5.553  1.00  0.00     0.046 C
ENDROOT
BRANCH   1   7
HETATM    7  N1  UNL     1       1.900   5.384   5.153  1.00  0.00    -0.355 N
ATOM      8  H1  UNL     1       2.537   5.501   4.365  1.00  0.00     0.159 HD
BRANCH   7   9
HETATM    9  C1  UNL     1       2.453   5.113   6.381  1.00  0.00     0.455 C
HETATM   10  F1  UNL     1       3.721   5.666   6.537  1.00  0.00    -0.191 F
HETATM   11  F2  UNL     1       2.503   3.782   6.763  1.00  0.00    -0.191 F
ENDBRANCH   7   9
ENDBRANCH   1   7
BRANCH   1  12
HETATM   12  C3  UNL     1       0.407   5.374   3.378  1.00  0.00    -0.023 A
HETATM   13  C4  UNL     1       0.646   6.332   2.483  1.00  0.00     0.017 A
HETATM   14  C5  UNL     1       0.506   6.041   1.158  1.00  0.00     0.050 A
HETATM   15  S1  UNL     1       0.032   4.404   1.171  1.00  0.00    -0.113 SA
HETATM   16  C6  UNL     1       0.027   4.143   2.864  1.00  0.00     0.059 A
ENDBRANCH   1  12
TORSDOF 3
ENDMDL