MODEL 2
REMARK VINA RESULT: -5.923321112      1.699      2.237
REMARK  3 active torsions:
REMARK  status: ('A' for Active; 'I' for Inactive)
REMARK    1  A    between atoms: C2_3  and  C3_4
REMARK    2  A    between atoms: C3_4  and  C4_5
REMARK    3  A    between atoms: C4_5  and  C5_6
ROOT
HETATM    1  C1  UNL     1      -2.028   5.242   3.323  1.00  0.00     0.160 C
HETATM    2  N1  UNL     1      -2.511   4.889   4.658  1.00  0.00    -0.316 N
HETATM    3  C2  UNL     1      -1.772   4.520   5.724  1.00  0.00     0.100 A
HETATM    4  N2  UNL     1      -2.646   4.298   6.713  1.00  0.00    -0.287 N
ATOM      5  H2  UNL     1      -2.395   4.004   7.657  1.00  0.00     0.188 HD
HETATM    6  N3  UNL     1      -3.886   4.516   6.293  1.00  0.00    -0.275 N
ATOM      7  H3  UNL     1      -4.737   4.420   6.846  1.00  0.00     0.189 HD
HETATM    8  C11 UNL     1      -3.812   4.887   5.005  1.00  0.00     0.194 A
HETATM    9  S1  UNL     1      -5.049   5.271   4.015  1.00  0.00    -0.039 SA
ENDROOT
BRANCH   3  10
HETATM   10  C3  UNL     1      -0.292   4.397   5.759  1.00  0.00     0.078 C
BRANCH  10  11
HETATM   11  C4  UNL     1       0.063   3.412   6.826  1.00  0.00     0.015 C
BRANCH  11  12
HETATM   12  C5  UNL     1       1.525   3.069   6.875  1.00  0.00     0.020 C
HETATM   13  C6  UNL     1       1.651   1.906   7.868  1.00  0.00     0.007 C
HETATM   14  C7  UNL     1       3.095   1.477   7.879  1.00  0.00     0.001 C
HETATM   15  C8  UNL     1       3.916   2.621   8.405  1.00  0.00     0.003 C
HETATM   16  C9  UNL     1       3.116   3.886   8.590  1.00  0.00     0.037 C
HETATM   17  C10 UNL     1       2.378   4.236   7.319  1.00  0.00     0.174 C
HETATM   18  F1  UNL     1       3.361   4.533   6.366  1.00  0.00    -0.249 F
ENDBRANCH  11  12
ENDBRANCH  10  11
ENDBRANCH   3  10
TORSDOF 3
ENDMDL