MODEL 3
REMARK VINA RESULT: -5.583111090      2.453      3.378
REMARK  4 active torsions:
REMARK  status: ('A' for Active; 'I' for Inactive)
REMARK    1  A    between atoms: C2_2  and  C3_3
REMARK    2  A    between atoms: C3_3  and  O1_4
REMARK    3  A    between atoms: O1_4  and  C4_5
REMARK       I    between atoms: C4_5  and  N1_7
REMARK    4  A    between atoms: N1_7  and  N2_9
ROOT
HETATM    1  N2  UNL     1       2.065   5.993   5.653  1.00  0.00    -0.303 N
ATOM      2  H2  UNL     1       2.651   6.826   5.703  1.00  0.00     0.186 HD
HETATM    3  C5  UNL     1       0.981   6.012   4.971  1.00  0.00     0.022 C
HETATM    4  C6  UNL     1       0.606   7.258   4.267  1.00  0.00     0.056 C
HETATM    5  C7  UNL     1      -0.778   7.121   3.679  1.00  0.00     0.010 C
HETATM    6  C8  UNL     1      -1.684   6.551   4.720  1.00  0.00    -0.017 C
HETATM    7  C9  UNL     1      -1.663   7.513   5.910  1.00  0.00     0.010 C
HETATM    8  C10 UNL     1      -1.286   5.208   5.228  1.00  0.00     0.030 C
HETATM    9  C11 UNL     1       0.132   4.819   4.892  1.00  0.00     0.129 C
HETATM   10 CL1  UNL     1       0.192   4.063   3.277  1.00  0.00    -0.119 Cl
ENDROOT
BRANCH   1  11
HETATM   11  N1  UNL     1       2.439   4.845   6.319  1.00  0.00    -0.245 N
HETATM   12  C4  UNL     1       3.652   4.818   7.049  1.00  0.00     0.379 C
HETATM   13  O2  UNL     1       4.369   5.839   7.080  1.00  0.00    -0.237 OA
ATOM     14  H1  UNL     1       1.844   4.017   6.285  1.00  0.00     0.192 HD
BRANCH  12  15
HETATM   15  O1  UNL     1       4.044   3.682   7.721  1.00  0.00    -0.299 OA
BRANCH  15  16
HETATM   16  C3  UNL     1       3.156   3.032   8.575  1.00  0.00     0.207 C
BRANCH  16  17
HETATM   17  C2  UNL     1       2.477   1.858   7.967  1.00  0.00    -0.011 C
HETATM   18  C1  UNL     1       1.176   1.744   8.114  1.00  0.00     0.009 C
ENDBRANCH  16  17
ENDBRANCH  15  16
ENDBRANCH  12  15
ENDBRANCH   1  11
TORSDOF 4
ENDMDL