MODEL 5
REMARK VINA RESULT: -5.269226471      2.741      3.304
REMARK  3 active torsions:
REMARK  status: ('A' for Active; 'I' for Inactive)
REMARK    1  A    between atoms: C2_2  and  O1_5
REMARK    2  A    between atoms: O1_5  and  N1_6
REMARK    3  A    between atoms: C4_8  and  C5_9
ROOT
HETATM    1  C5  UNL     1       0.339   3.448   6.730  1.00  0.00     0.019 A
HETATM    2  C6  UNL     1       1.395   2.717   7.222  1.00  0.00     0.017 A
HETATM    3  C7  UNL     1       1.161   1.735   8.160  1.00  0.00     0.018 A
HETATM    4  C8  UNL     1      -0.136   1.520   8.574  1.00  0.00     0.089 A
HETATM    5  N2  UNL     1      -1.184   2.231   8.099  1.00  0.00    -0.356 N
ATOM      6  H2  UNL     1      -2.133   2.049   8.425  1.00  0.00     0.166 HD
HETATM    7  C9  UNL     1      -0.938   3.188   7.182  1.00  0.00     0.112 A
HETATM    8  S1  UNL     1      -2.181   4.048   6.603  1.00  0.00    -0.059 SA
ENDROOT
BRANCH   1   9
HETATM    9  C4  UNL     1       0.590   4.479   5.745  1.00  0.00     0.128 C
HETATM   10  N1  UNL     1       0.544   4.189   4.504  1.00  0.00    -0.275 N
ATOM     11  H1  UNL     1       0.331   3.228   4.235  1.00  0.00     0.193 HD
BRANCH  10  12
HETATM   12  O1  UNL     1       0.768   5.099   3.528  1.00  0.00    -0.254 OA
BRANCH  12  13
HETATM   13  C2  UNL     1      -0.002   5.149   2.340  1.00  0.00     0.157 C
HETATM   14  C1  UNL     1      -1.407   5.503   2.735  1.00  0.00     0.066 C
HETATM   15  C3  UNL     1       0.099   3.801   1.681  1.00  0.00     0.066 C
HETATM   16 CL1  UNL     1       0.683   6.347   1.203  1.00  0.00    -0.086 Cl
ENDBRANCH  12  13
ENDBRANCH  10  12
ENDBRANCH   1   9
TORSDOF 3
ENDMDL