MODEL 1
REMARK VINA RESULT: -6.642259737      0.000      0.000
REMARK  3 active torsions:
REMARK  status: ('A' for Active; 'I' for Inactive)
REMARK    1  A    between atoms: C6_7  and  C7_8
REMARK    2  A    between atoms: N2_9  and  N3_11
REMARK    3  A    between atoms: N3_11  and  C8_13
ROOT
HETATM    1  N1  UNL     1      -5.247   6.565   8.039  1.00  0.00    -0.197 NA
HETATM    2  C1  UNL     1      -4.842   5.591   7.560  1.00  0.00     0.064 C
HETATM    3  C2  UNL     1      -4.325   4.333   6.972  1.00  0.00     0.097 C
HETATM    4  C3  UNL     1      -5.289   3.243   7.311  1.00  0.00     0.046 C
HETATM    5  C4  UNL     1      -5.014   2.673   8.674  1.00  0.00    -0.029 C
HETATM    6  C5  UNL     1      -3.743   2.365   8.917  1.00  0.00    -0.021 C
HETATM    7  C6  UNL     1      -2.789   2.629   7.804  1.00  0.00     0.049 C
HETATM    8  C14 UNL     1      -2.910   4.069   7.431  1.00  0.00     0.033 C
ENDROOT
BRANCH   7   9
HETATM    9  C7  UNL     1      -1.406   2.228   8.147  1.00  0.00     0.088 C
HETATM   10  N2  UNL     1      -0.406   2.598   7.452  1.00  0.00    -0.315 N
ATOM     11  H2  UNL     1      -0.548   3.188   6.632  1.00  0.00     0.185 HD
BRANCH  10  12
HETATM   12  N3  UNL     1       0.881   2.199   7.808  1.00  0.00    -0.301 N
ATOM     13  H3  UNL     1       1.026   1.253   8.159  1.00  0.00     0.187 HD
BRANCH  12  14
HETATM   14  C8  UNL     1       1.999   3.071   7.695  1.00  0.00     0.048 A
HETATM   15  C9  UNL     1       2.049   4.086   6.764  1.00  0.00     0.034 A
HETATM   16  C10 UNL     1       3.143   4.921   6.674  1.00  0.00     0.044 A
HETATM   17  C11 UNL     1       4.223   4.773   7.506  1.00  0.00     0.116 A
HETATM   18  F1  UNL     1       5.325   5.579   7.448  1.00  0.00    -0.206 F
HETATM   19  C12 UNL     1       4.178   3.752   8.446  1.00  0.00     0.044 A
HETATM   20  C13 UNL     1       3.085   2.924   8.531  1.00  0.00     0.034 A
ENDBRANCH  12  14
ENDBRANCH  10  12
ENDBRANCH   7   9
TORSDOF 3
ENDMDL