MODEL 3
REMARK VINA RESULT: -4.476272179      1.627      2.255
REMARK  4 active torsions:
REMARK  status: ('A' for Active; 'I' for Inactive)
REMARK    1  A    between atoms: C2_2  and  C4_4
REMARK    2  A    between atoms: C2_2  and  N2_12
REMARK    3  A    between atoms: C4_4  and  O1_5
REMARK    4  A    between atoms: N1_7  and  C5_9
ROOT
HETATM    1  C1  UNL     1       0.817   6.182   3.445  1.00  0.00     0.058 C
HETATM    2  C2  UNL     1       0.805   5.738   4.911  1.00  0.00     0.216 C
HETATM    3  C3  UNL     1       2.150   5.994   5.521  1.00  0.00     0.058 C
ENDROOT
BRANCH   2   4
HETATM    4  C4  UNL     1       0.468   4.311   4.946  1.00  0.00     0.152 C
HETATM    5  N1  UNL     1       0.448   3.465   5.844  1.00  0.00    -0.343 N
ATOM      6  H1  UNL     1       0.150   2.579   5.438  1.00  0.00     0.164 HD
BRANCH   4   7
HETATM    7  O1  UNL     1       0.075   3.796   3.653  1.00  0.00    -0.348 OA
ATOM      8  H1  UNL     1      -0.475   3.023   3.717  1.00  0.00     0.219 HD
ENDBRANCH   4   7
BRANCH   5   9
HETATM    9  C5  UNL     1       0.678   3.267   7.189  1.00  0.00     0.278 C
HETATM   10 CL1  UNL     1      -0.665   2.303   7.909  1.00  0.00    -0.085 Cl
HETATM   11 CL2  UNL     1       2.150   2.267   7.507  1.00  0.00    -0.085 Cl
ENDBRANCH   5   9
ENDBRANCH   2   4
BRANCH   2  12
HETATM   12  N2  UNL     1      -0.218   6.528   5.566  1.00  0.00     0.105 N
HETATM   13  C6  UNL     1      -1.539   6.336   5.056  1.00  0.00     0.274 C
HETATM   14  C7  UNL     1      -2.482   6.658   6.225  1.00  0.00     0.030 C
HETATM   15  C8  UNL     1      -2.230   8.082   6.614  1.00  0.00     0.003 C
HETATM   16  C9  UNL     1      -1.164   8.772   5.827  1.00  0.00     0.030 C
HETATM   17  C10 UNL     1       0.067   7.937   5.601  1.00  0.00     0.274 C
ENDBRANCH   2  12
TORSDOF 4
ENDMDL