MODEL 4
REMARK VINA RESULT: -4.195642446      2.175      4.871
REMARK  4 active torsions:
REMARK  status: ('A' for Active; 'I' for Inactive)
REMARK    1  A    between atoms: N1_2  and  C2_4
REMARK    2  A    between atoms: C2_4  and  C8_12
REMARK    3  A    between atoms: N2_5  and  C3_7
REMARK    4  A    between atoms: C3_7  and  C4_8
ROOT
HETATM    1  C2  UNL     1       0.125   4.430   5.326  1.00  0.00     0.111 C
HETATM    2  N2  UNL     1      -1.007   4.282   5.868  1.00  0.00    -0.375 N
ATOM      3  H2  UNL     1      -1.074   3.719   6.715  1.00  0.00     0.161 HD
ENDROOT
BRANCH   1   4
HETATM    4  N1  UNL     1       1.273   3.820   5.889  1.00  0.00    -0.380 N
HETATM    5  C1  UNL     1       1.234   3.043   7.115  1.00  0.00     0.147 C
ATOM      6  H1  UNL     1       2.168   3.931   5.411  1.00  0.00     0.160 HD
ENDBRANCH   1   4
BRANCH   1   7
HETATM    7  C8  UNL     1       0.285   5.231   4.131  1.00  0.00     0.063 A
HETATM    8  C9  UNL     1       0.156   4.889   2.798  1.00  0.00     0.045 A
HETATM    9  C10 UNL     1      -0.212   3.537   2.303  1.00  0.00     0.071 C
HETATM   10  N3  UNL     1       0.416   5.990   2.081  1.00  0.00    -0.265 N
HETATM   11  O1  UNL     1       0.696   6.985   2.867  1.00  0.00    -0.242 OA
ATOM     12  H3  UNL     1       0.398   6.040   1.063  1.00  0.00     0.194 HD
HETATM   13  C11 UNL     1       0.634   6.592   4.115  1.00  0.00     0.088 A
HETATM   14  C12 UNL     1       0.879   7.403   5.342  1.00  0.00     0.080 C
ENDBRANCH   1   7
BRANCH   2  15
HETATM   15  C3  UNL     1      -2.192   4.873   5.342  1.00  0.00     0.129 C
BRANCH  15  16
HETATM   16  C4  UNL     1      -3.369   4.749   6.295  1.00  0.00    -0.035 C
HETATM   17  C5  UNL     1      -4.623   4.320   5.605  1.00  0.00     0.016 C
HETATM   18  C6  UNL     1      -3.586   6.129   6.913  1.00  0.00     0.016 C
HETATM   19  C7  UNL     1      -2.996   3.726   7.342  1.00  0.00     0.016 C
ENDBRANCH  15  16
ENDBRANCH   2  15
TORSDOF 4
ENDMDL