MODEL 3
REMARK VINA RESULT: -6.325278193      1.290      1.947
REMARK  4 active torsions:
REMARK  status: ('A' for Active; 'I' for Inactive)
REMARK    1  A    between atoms: C4_4  and  C5_5
REMARK    2  A    between atoms: C5_5  and  N1_6
REMARK    3  A    between atoms: C5_5  and  N2_15
REMARK    4  A    between atoms: N1_6  and  C6_8
ROOT
HETATM    1  C5  UNL     1      -0.555   4.779   5.641  1.00  0.00     0.193 C
ENDROOT
BRANCH   1   2
HETATM    2  C4  UNL     1      -0.599   5.025   4.148  1.00  0.00     0.033 A
HETATM    3  C2  UNL     1       0.326   4.198   3.297  1.00  0.00    -0.010 A
HETATM    4  C1  UNL     1      -0.182   3.773   1.930  1.00  0.00     0.010 C
HETATM    5  C3  UNL     1       0.528   5.711   3.472  1.00  0.00     0.013 A
ENDBRANCH   1   2
BRANCH   1   6
HETATM    6  N1  UNL     1       0.176   3.566   5.937  1.00  0.00    -0.368 N
ATOM      7  H1  UNL     1      -0.185   2.691   5.556  1.00  0.00     0.161 HD
BRANCH   6   8
HETATM    8  C6  UNL     1       1.354   3.506   6.719  1.00  0.00     0.029 A
HETATM    9  C7  UNL     1       2.271   4.533   6.678  1.00  0.00     0.032 A
HETATM   10  C8  UNL     1       3.430   4.481   7.428  1.00  0.00     0.044 A
HETATM   11  C9  UNL     1       3.717   3.404   8.242  1.00  0.00     0.116 A
HETATM   12  F1  UNL     1       4.828   3.325   8.977  1.00  0.00    -0.206 F
HETATM   13  C10 UNL     1       2.800   2.373   8.282  1.00  0.00     0.044 A
HETATM   14  C11 UNL     1       1.643   2.421   7.538  1.00  0.00     0.032 A
ENDBRANCH   6   8
ENDBRANCH   1   6
BRANCH   1  15
HETATM   15  N2  UNL     1      -1.847   4.773   6.248  1.00  0.00    -0.330 N
HETATM   16  C12 UNL     1      -2.349   3.800   7.035  1.00  0.00     0.111 A
HETATM   17  C13 UNL     1      -3.612   4.167   7.414  1.00  0.00     0.106 A
HETATM   18  N3  UNL     1      -3.889   5.351   6.870  1.00  0.00    -0.361 N
HETATM   19  C14 UNL     1      -2.804   5.717   6.157  1.00  0.00     0.184 A
ATOM     20  H3  UNL     1      -4.755   5.880   6.973  1.00  0.00     0.166 HD
ENDBRANCH   1  15
TORSDOF 4
ENDMDL