MODEL 2
REMARK VINA RESULT: -7.378495464     10.715     14.631
REMARK  9 active torsions:
REMARK  status: ('A' for Active; 'I' for Inactive)
REMARK    1  A    between atoms: C2_2  and  O1_3
REMARK    2  A    between atoms: O1_3  and  C3_4
REMARK    3  A    between atoms: C3_4  and  C4_6
REMARK    4  A    between atoms: C4_6  and  C5_7
REMARK    5  A    between atoms: C5_7  and  C6_8
REMARK    6  A    between atoms: C6_8  and  O4_10
REMARK    7  A    between atoms: O4_10  and  C7_11
REMARK    8  A    between atoms: C15_22  and  N2_23
REMARK    9  A    between atoms: C21_30  and  N3_31
REMARK       I    between atoms: N3_31  and  C23_33
ROOT
HETATM    1  C7  UNL     1      59.478  50.506 141.904  1.00  0.00     0.165 C
HETATM    2  C8  UNL     1      59.403  51.871 142.314  1.00  0.00     0.066 C
HETATM    3  C9  UNL     1      57.949  52.405 142.389  1.00  0.00     0.177 C
HETATM    4  O5  UNL     1      58.238  53.628 143.040  1.00  0.00    -0.384 OA
HETATM    5  C10 UNL     1      59.187  54.175 142.206  1.00  0.00     0.140 C
HETATM    6  C11 UNL     1      58.472  54.876 141.084  1.00  0.00     0.041 C
HETATM    7  C12 UNL     1      60.060  53.011 141.699  1.00  0.00     0.114 C
HETATM    8  N1  UNL     1      60.075  53.137 140.294  1.00  0.00    -0.408 N
ATOM      9  H1  UNL     1      59.634  53.925 139.820  1.00  0.00     0.154 HD
HETATM   10  C13 UNL     1      60.737  52.108 139.578  1.00  0.00     0.098 C
HETATM   11  C14 UNL     1      62.012  51.723 140.259  1.00  0.00     0.034 C
HETATM   12  C15 UNL     1      59.747  50.977 139.441  1.00  0.00     0.135 C
HETATM   13  C21 UNL     1      59.898  50.034 140.560  1.00  0.00     0.141 C
ENDROOT
BRANCH   1  14
HETATM   14  O4  UNL     1      60.258  49.742 142.843  1.00  0.00    -0.313 OA
BRANCH  14  15
HETATM   15  C6  UNL     1      61.616  49.626 142.813  1.00  0.00     0.259 C
HETATM   16  O3  UNL     1      62.121  48.567 142.392  1.00  0.00    -0.265 OA
BRANCH  15  17
HETATM   17  C5  UNL     1      62.435  50.771 143.286  1.00  0.00     0.121 C
BRANCH  17  18
HETATM   18  C4  UNL     1      63.787  50.213 143.713  1.00  0.00     0.121 C
BRANCH  18  19
HETATM   19  C3  UNL     1      63.851  50.027 145.172  1.00  0.00     0.259 C
HETATM   20  O2  UNL     1      63.714  48.864 145.621  1.00  0.00    -0.265 OA
BRANCH  19  21
HETATM   21  O1  UNL     1      64.051  51.045 146.083  1.00  0.00    -0.322 OA
BRANCH  21  22
HETATM   22  C2  UNL     1      64.986  52.084 145.917  1.00  0.00     0.174 C
HETATM   23  C1  UNL     1      64.358  53.399 145.570  1.00  0.00     0.034 C
ENDBRANCH  21  22
ENDBRANCH  19  21
ENDBRANCH  18  19
ENDBRANCH  17  18
ENDBRANCH  15  17
ENDBRANCH  14  15
ENDBRANCH   1  14
BRANCH  13  24
HETATM   24  N3  UNL     1      59.185  48.811 140.242  1.00  0.00    -0.347 N
HETATM   25  C22 UNL     1      57.743  48.835 140.249  1.00  0.00     0.153 C
HETATM   26  C23 UNL     1      59.818  47.593 139.896  1.00  0.00     0.215 C
HETATM   27  C24 UNL     1      58.987  46.405 139.590  1.00  0.00     0.117 C
HETATM   28  O7  UNL     1      61.061  47.412 139.823  1.00  0.00    -0.274 OA
ENDBRANCH  13  24
BRANCH  12  29
HETATM   29  N2  UNL     1      59.925  50.404 138.139  1.00  0.00    -0.339 N
HETATM   30  C16 UNL     1      58.859  50.171 137.190  1.00  0.00     0.220 C
HETATM   31  O6  UNL     1      57.692  50.637 137.237  1.00  0.00    -0.273 OA
HETATM   32  C17 UNL     1      59.318  49.278 136.100  1.00  0.00     0.105 C
HETATM   33  C18 UNL     1      60.707  48.839 136.509  1.00  0.00     0.034 C
HETATM   34  C19 UNL     1      61.110  49.958 137.447  1.00  0.00     0.084 C
HETATM   35  C20 UNL     1      61.662  51.042 136.526  1.00  0.00     0.032 C
ENDBRANCH  12  29
TORSDOF 9
ENDMDL