MODEL 4
REMARK VINA RESULT: -5.709778337      8.578     12.484
REMARK  10 active torsions:
REMARK  status: ('A' for Active; 'I' for Inactive)
REMARK    1  A    between atoms: O1_2  and  C2_3
REMARK    2  A    between atoms: C2_3  and  C3_4
REMARK    3  A    between atoms: C3_4  and  N1_5
REMARK       I    between atoms: N1_5  and  C4_7
REMARK    4  A    between atoms: C4_7  and  C5_9
REMARK    5  A    between atoms: C6_10  and  C7_11
REMARK    6  A    between atoms: C7_11  and  O4_13
REMARK    7  A    between atoms: C17_25  and  C18_26
REMARK    8  A    between atoms: C18_26  and  O6_28
REMARK    9  A    between atoms: C20_30  and  C21_31
REMARK   10  A    between atoms: C21_31  and  O8_33
ROOT
HETATM    1  C5  UNL     1      63.448  51.263 127.700  1.00  0.00     0.037 C
HETATM    2  C6  UNL     1      63.955  50.062 127.859  1.00  0.00     0.036 C
HETATM    3  C9  UNL     1      65.252  50.101 128.599  1.00  0.00     0.056 C
HETATM    4  C10 UNL     1      65.445  51.547 128.855  1.00  0.00     0.076 C
HETATM    5  S1  UNL     1      65.922  51.588 130.607  1.00  0.00    -0.149 SA
HETATM    6  C11 UNL     1      66.584  49.863 130.563  1.00  0.00     0.047 C
HETATM    7  C12 UNL     1      67.857  49.767 129.808  1.00  0.00     0.051 C
HETATM    8  C13 UNL     1      68.544  48.580 130.481  1.00  0.00     0.238 C
HETATM    9  N2  UNL     1      68.184  48.748 131.858  1.00  0.00    -0.073 N
HETATM   10  C14 UNL     1      69.123  49.616 132.496  1.00  0.00     0.272 C
HETATM   11  C15 UNL     1      68.231  47.438 132.491  1.00  0.00     0.272 C
HETATM   12  C16 UNL     1      66.823  49.289 131.870  1.00  0.00     0.257 C
HETATM   13  C17 UNL     1      65.393  49.267 129.787  1.00  0.00     0.115 C
HETATM   14  C20 UNL     1      64.269  52.288 128.443  1.00  0.00     0.139 C
ENDROOT
BRANCH   1  15
HETATM   15  C4  UNL     1      62.236  51.702 126.978  1.00  0.00     0.249 C
HETATM   16  N1  UNL     1      61.909  51.185 125.685  1.00  0.00    -0.355 N
ATOM     17  H1  UNL     1      62.516  50.491 125.248  1.00  0.00     0.162 HD
HETATM   18  O2  UNL     1      61.418  52.538 127.412  1.00  0.00    -0.268 OA
BRANCH  16  19
HETATM   19  C3  UNL     1      60.738  51.637 125.005  1.00  0.00     0.149 C
BRANCH  19  20
HETATM   20  C2  UNL     1      60.235  50.773 123.903  1.00  0.00     0.186 C
BRANCH  20  21
HETATM   21  O1  UNL     1      60.304  51.398 122.654  1.00  0.00    -0.394 OA
HETATM   22  C1  UNL     1      59.362  52.442 122.695  1.00  0.00     0.201 C
ENDBRANCH  20  21
ENDBRANCH  19  20
ENDBRANCH  16  19
ENDBRANCH   1  15
BRANCH   2  23
HETATM   23  C7  UNL     1      63.442  48.797 127.354  1.00  0.00     0.290 C
HETATM   24  O3  UNL     1      62.249  48.473 127.172  1.00  0.00    -0.260 OA
BRANCH  23  25
HETATM   25  O4  UNL     1      64.335  47.757 127.002  1.00  0.00    -0.323 OA
HETATM   26  C8  UNL     1      64.642  46.694 127.894  1.00  0.00     0.213 C
ENDBRANCH  23  25
ENDBRANCH   2  23
BRANCH  14  27
HETATM   27  C21 UNL     1      63.473  52.902 129.519  1.00  0.00     0.268 C
HETATM   28  O7  UNL     1      62.688  52.176 130.180  1.00  0.00    -0.264 OA
BRANCH  27  29
HETATM   29  O8  UNL     1      63.534  54.229 129.854  1.00  0.00    -0.326 OA
HETATM   30  C22 UNL     1      63.822  55.230 128.893  1.00  0.00     0.213 C
ENDBRANCH  27  29
ENDBRANCH  14  27
BRANCH  13  31
HETATM   31  C18 UNL     1      64.281  49.163 130.721  1.00  0.00     0.265 C
HETATM   32  O5  UNL     1      63.141  48.655 130.412  1.00  0.00    -0.265 OA
BRANCH  31  33
HETATM   33  O6  UNL     1      64.302  49.593 132.059  1.00  0.00    -0.326 OA
HETATM   34  C19 UNL     1      63.161  49.891 132.808  1.00  0.00     0.213 C
ENDBRANCH  31  33
ENDBRANCH  13  31
TORSDOF 10
ENDMDL