MODEL 2
REMARK VINA RESULT: -8.209870150      1.597      1.848
REMARK  7 active torsions:
REMARK  status: ('A' for Active; 'I' for Inactive)
REMARK    1  A    between atoms: C3_5  and  C4_6
REMARK       I    between atoms: C4_6  and  N2_8
REMARK    2  A    between atoms: N2_8  and  C5_10
REMARK    3  A    between atoms: C5_10  and  C6_11
REMARK    4  A    between atoms: C6_11  and  S2_12
REMARK    5  A    between atoms: S2_12  and  N3_15
REMARK    6  A    between atoms: C13_22  and  S3_23
REMARK    7  A    between atoms: S3_23  and  N4_26
ROOT
HETATM    1  N1  UNL     1      63.996  47.983 126.919  1.00  0.00    -0.191 NA
HETATM    2  C1  UNL     1      63.707  48.707 127.776  1.00  0.00     0.108 C
HETATM    3  C2  UNL     1      63.344  49.601 128.871  1.00  0.00     0.109 A
HETATM    4  S1  UNL     1      63.208  49.251 130.530  1.00  0.00    -0.072 SA
HETATM    5  C3  UNL     1      62.757  50.798 131.102  1.00  0.00     0.075 A
HETATM    6  C12 UNL     1      62.728  51.547 129.954  1.00  0.00     0.052 A
HETATM    7  C13 UNL     1      63.029  50.938 128.805  1.00  0.00     0.109 A
ENDROOT
BRANCH   7   8
HETATM    8  S3  UNL     1      63.033  51.757 127.223  1.00  0.00     0.266 S
HETATM    9  O4  UNL     1      62.851  53.212 127.502  1.00  0.00    -0.200 OA
HETATM   10  O5  UNL     1      64.324  51.497 126.507  1.00  0.00    -0.200 OA
BRANCH   8  11
HETATM   11  N4  UNL     1      61.740  51.225 126.229  1.00  0.00    -0.285 N
HETATM   12  C14 UNL     1      60.657  52.120 126.216  1.00  0.00     0.086 C
HETATM   13  C15 UNL     1      60.349  52.702 124.844  1.00  0.00     0.119 C
HETATM   14  S4  UNL     1      59.987  51.278 123.707  1.00  0.00    -0.162 SA
HETATM   15  C16 UNL     1      60.977  49.857 124.395  1.00  0.00     0.095 C
HETATM   16  C17 UNL     1      62.162  50.582 125.047  1.00  0.00     0.151 C
ENDBRANCH   8  11
ENDBRANCH   7   8
BRANCH   5  17
HETATM   17  C4  UNL     1      62.468  51.221 132.494  1.00  0.00     0.258 C
HETATM   18  O1  UNL     1      63.345  51.920 133.063  1.00  0.00    -0.267 OA
HETATM   19  N2  UNL     1      61.254  50.813 133.065  1.00  0.00    -0.355 N
ATOM     20  H2  UNL     1      60.616  50.243 132.511  1.00  0.00     0.162 HD
BRANCH  19  21
HETATM   21  C5  UNL     1      60.879  51.175 134.411  1.00  0.00     0.139 C
BRANCH  21  22
HETATM   22  C6  UNL     1      60.345  50.007 135.199  1.00  0.00     0.182 C
BRANCH  22  23
HETATM   23  S2  UNL     1      59.298  50.443 136.528  1.00  0.00     0.230 S
HETATM   24  O2  UNL     1      58.925  51.920 136.432  1.00  0.00    -0.206 OA
HETATM   25  O3  UNL     1      57.972  49.715 136.316  1.00  0.00    -0.206 OA
BRANCH  23  26
HETATM   26  N3  UNL     1      59.876  50.161 138.082  1.00  0.00    -0.311 N
HETATM   27  C7  UNL     1      60.729  49.041 138.279  1.00  0.00     0.135 C
HETATM   28  C8  UNL     1      60.308  48.422 139.621  1.00  0.00     0.021 C
HETATM   29  C9  UNL     1      60.136  49.538 140.606  1.00  0.00     0.003 C
HETATM   30  C10 UNL     1      60.782  50.831 140.174  1.00  0.00     0.021 C
HETATM   31  C11 UNL     1      60.271  51.307 138.832  1.00  0.00     0.135 C
ENDBRANCH  23  26
ENDBRANCH  22  23
ENDBRANCH  21  22
ENDBRANCH  19  21
ENDBRANCH   5  17
TORSDOF 7
ENDMDL