MODEL 4
REMARK VINA RESULT: -7.929646527      7.555     13.095
REMARK  11 active torsions:
REMARK  status: ('A' for Active; 'I' for Inactive)
REMARK    1  A    between atoms: C2_2  and  C3_3
REMARK    2  A    between atoms: C3_3  and  O1_4
REMARK    3  A    between atoms: C3_3  and  N1_6
REMARK    4  A    between atoms: N1_6  and  N2_8
REMARK    5  A    between atoms: C5_10  and  C6_11
REMARK    6  A    between atoms: C8_15  and  S1_16
REMARK    7  A    between atoms: S1_16  and  C9_17
REMARK    8  A    between atoms: C9_17  and  C10_19
REMARK    9  A    between atoms: C13_22  and  N4_23
REMARK   10  A    between atoms: N4_23  and  C14_25
REMARK   11  A    between atoms: C14_25  and  C16_27
REMARK       I    between atoms: C16_27  and  N5_29
ROOT
HETATM    1  C6  UNL     1      60.753  48.996 141.889  1.00  0.00     0.023 A
HETATM    2  C7  UNL     1      61.436  48.419 142.976  1.00  0.00     0.104 A
HETATM    3  N3  UNL     1      62.482  49.063 143.516  1.00  0.00    -0.359 N
ATOM      4  H3  UNL     1      62.974  48.640 144.304  1.00  0.00     0.166 HD
HETATM    5  C8  UNL     1      62.896  50.247 143.047  1.00  0.00     0.079 A
HETATM    6  C12 UNL     1      62.238  50.811 141.995  1.00  0.00     0.067 A
HETATM    7  C13 UNL     1      61.118  50.206 141.355  1.00  0.00     0.044 A
ENDROOT
BRANCH   7   8
HETATM    8  N4  UNL     1      60.583  50.791 140.434  1.00  0.00    -0.376 N
ATOM      9  H4  UNL     1      59.595  50.797 140.690  1.00  0.00     0.160 HD
BRANCH   8  10
HETATM   10  C14 UNL     1      60.612  51.442 139.241  1.00  0.00     0.170 C
HETATM   11  C15 UNL     1      59.651  52.688 139.296  1.00  0.00     0.042 C
BRANCH  10  12
HETATM   12  C16 UNL     1      60.125  50.735 138.033  1.00  0.00     0.242 C
HETATM   13  O3  UNL     1      59.144  49.920 138.280  1.00  0.00    -0.271 OA
HETATM   14  N5  UNL     1      60.550  50.806 136.711  1.00  0.00    -0.349 N
HETATM   15  C17 UNL     1      61.646  51.617 136.312  1.00  0.00     0.140 C
HETATM   16  C20 UNL     1      59.811  49.999 135.721  1.00  0.00     0.140 C
HETATM   17  C18 UNL     1      62.232  51.261 134.973  1.00  0.00     0.160 C
HETATM   18  S2  UNL     1      62.158  49.539 134.608  1.00  0.00     0.147 S
HETATM   19  O4  UNL     1      63.401  48.795 134.978  1.00  0.00    -0.228 OA
HETATM   20  O5  UNL     1      61.957  49.384 133.127  1.00  0.00    -0.228 OA
HETATM   21  C19 UNL     1      60.718  48.828 135.401  1.00  0.00     0.160 C
ENDBRANCH  10  12
ENDBRANCH   8  10
ENDBRANCH   7   8
BRANCH   1  22
HETATM   22  C5  UNL     1      59.651  48.214 141.375  1.00  0.00     0.122 C
HETATM   23  N2  UNL     1      59.869  47.429 140.347  1.00  0.00    -0.307 N
ATOM     24  H2  UNL     1      60.785  47.353 139.905  1.00  0.00     0.186 HD
BRANCH  23  25
HETATM   25  N1  UNL     1      58.733  46.683 139.884  1.00  0.00    -0.276 N
HETATM   26  C4  UNL     1      57.628  47.490 139.488  1.00  0.00     0.180 C
BRANCH  25  27
HETATM   27  C3  UNL     1      58.843  45.294 139.875  1.00  0.00     0.155 C
BRANCH  27  28
HETATM   28  C2  UNL     1      57.850  44.337 140.228  1.00  0.00     0.047 C
HETATM   29  C1  UNL     1      57.924  43.298 140.988  1.00  0.00     0.015 C
ENDBRANCH  27  28
BRANCH  27  30
HETATM   30  O1  UNL     1      60.026  44.809 139.488  1.00  0.00    -0.345 OA
ATOM     31  H1  UNL     1      60.564  45.381 138.954  1.00  0.00     0.219 HD
ENDBRANCH  27  30
ENDBRANCH  25  27
ENDBRANCH  23  25
ENDBRANCH   1  22
BRANCH   5  32
HETATM   32  S1  UNL     1      64.290  51.046 143.818  1.00  0.00    -0.035 SA
BRANCH  32  33
HETATM   33  C9  UNL     1      64.291  50.670 145.570  1.00  0.00     0.191 C
HETATM   34  O2  UNL     1      64.101  49.525 145.938  1.00  0.00    -0.285 OA
BRANCH  33  35
HETATM   35  C10 UNL     1      64.524  51.750 146.567  1.00  0.00     0.086 C
HETATM   36  C11 UNL     1      64.526  53.115 145.863  1.00  0.00     0.013 C
ENDBRANCH  33  35
ENDBRANCH  32  33
ENDBRANCH   5  32
TORSDOF 11
ENDMDL