MODEL 2
REMARK VINA RESULT: -8.034429636      0.565      1.480
REMARK  8 active torsions:
REMARK  status: ('A' for Active; 'I' for Inactive)
REMARK    1  A    between atoms: S1_2  and  C2_3
REMARK    2  A    between atoms: C2_3  and  C3_5
REMARK       I    between atoms: C3_5  and  N1_7
REMARK    3  A    between atoms: N1_7  and  C4_9
REMARK    4  A    between atoms: C4_9  and  C5_10
REMARK    5  A    between atoms: C8_13  and  C9_14
REMARK       I    between atoms: C9_14  and  N2_16
REMARK    6  A    between atoms: C13_20  and  N3_21
REMARK    7  A    between atoms: N3_21  and  S2_23
REMARK    8  A    between atoms: S2_23  and  C15_26
ROOT
HETATM    1  C5  UNL     1      60.885  48.522 141.243  1.00  0.00     0.022 C
HETATM    2  C6  UNL     1      60.869  47.484 140.235  1.00  0.00     0.009 C
HETATM    3  C7  UNL     1      59.488  47.025 139.807  1.00  0.00     0.014 C
HETATM    4  C8  UNL     1      58.856  48.266 139.171  1.00  0.00     0.079 C
HETATM    5  C12 UNL     1      58.654  49.216 140.332  1.00  0.00     0.035 C
HETATM    6  C13 UNL     1      59.986  49.716 140.832  1.00  0.00     0.080 C
ENDROOT
BRANCH   6   7
HETATM    7  N3  UNL     1      59.820  50.669 141.871  1.00  0.00    -0.205 NA
HETATM    8  C14 UNL     1      58.472  50.864 142.316  1.00  0.00     0.130 C
BRANCH   7   9
HETATM    9  S2  UNL     1      60.481  52.176 141.463  1.00  0.00     0.248 S
HETATM   10  O4  UNL     1      60.580  53.083 142.688  1.00  0.00    -0.206 OA
HETATM   11  O5  UNL     1      61.931  52.036 141.006  1.00  0.00    -0.206 OA
BRANCH   9  12
HETATM   12  C15 UNL     1      59.659  53.080 140.251  1.00  0.00     0.130 A
HETATM   13  C16 UNL     1      59.637  53.021 138.880  1.00  0.00     0.054 A
HETATM   14  C17 UNL     1      60.368  52.022 138.078  1.00  0.00     0.072 C
HETATM   15  N4  UNL     1      58.826  54.011 138.490  1.00  0.00    -0.264 N
HETATM   16  O6  UNL     1      58.357  54.660 139.495  1.00  0.00    -0.241 OA
ATOM     17  H4  UNL     1      58.608  54.223 137.516  1.00  0.00     0.194 HD
HETATM   18  C18 UNL     1      58.829  54.139 140.583  1.00  0.00     0.097 A
HETATM   19  C19 UNL     1      58.488  54.649 141.956  1.00  0.00     0.081 C
ENDBRANCH   9  12
ENDBRANCH   7   9
ENDBRANCH   6   7
BRANCH   1  20
HETATM   20  C4  UNL     1      60.660  48.168 142.649  1.00  0.00     0.129 C
BRANCH  20  21
HETATM   21  N1  UNL     1      61.569  48.605 143.635  1.00  0.00    -0.353 N
HETATM   22  C3  UNL     1      62.805  49.273 143.545  1.00  0.00     0.298 C
HETATM   23  O2  UNL     1      63.356  49.587 142.466  1.00  0.00    -0.264 OA
ATOM     24  H1  UNL     1      61.277  48.399 144.590  1.00  0.00     0.162 HD
BRANCH  22  25
HETATM   25  C2  UNL     1      63.537  49.646 144.792  1.00  0.00     0.275 C
HETATM   26  O1  UNL     1      63.599  48.789 145.700  1.00  0.00    -0.275 OA
BRANCH  25  27
HETATM   27  S1  UNL     1      64.251  51.255 144.888  1.00  0.00    -0.087 SA
HETATM   28  C1  UNL     1      64.738  51.572 146.615  1.00  0.00     0.099 C
ENDBRANCH  25  27
ENDBRANCH  22  25
ENDBRANCH  20  21
ENDBRANCH   1  20
BRANCH   4  29
HETATM   29  C9  UNL     1      57.588  47.988 138.491  1.00  0.00     0.223 C
HETATM   30  O3  UNL     1      56.764  47.208 139.041  1.00  0.00    -0.273 OA
HETATM   31  N2  UNL     1      57.261  48.565 137.242  1.00  0.00    -0.360 N
HETATM   32  C10 UNL     1      58.098  49.480 136.502  1.00  0.00     0.152 C
HETATM   33  C11 UNL     1      55.977  48.239 136.600  1.00  0.00     0.152 C
ENDBRANCH   4  29
TORSDOF 8
ENDMDL