MODEL 2
REMARK VINA RESULT: -7.750532814      1.605      1.962
REMARK  12 active torsions:
REMARK  status: ('A' for Active; 'I' for Inactive)
REMARK    1  A    between atoms: C2_2  and  O1_3
REMARK    2  A    between atoms: O1_3  and  C3_4
REMARK       I    between atoms: C3_4  and  N1_6
REMARK    3  A    between atoms: N1_6  and  C4_7
REMARK    4  A    between atoms: N1_6  and  C15_30
REMARK    5  A    between atoms: C4_7  and  C5_8
REMARK    6  A    between atoms: C5_8  and  C6_9
REMARK    7  A    between atoms: C6_9  and  C7_10
REMARK       I    between atoms: C7_10  and  N2_12
REMARK    8  A    between atoms: N2_12  and  C8_14
REMARK    9  A    between atoms: C9_19  and  S1_20
REMARK   10  A    between atoms: S1_20  and  N5_23
REMARK   11  A    between atoms: C15_30  and  O6_31
REMARK   12  A    between atoms: C15_30  and  N6_33
ROOT
HETATM    1  C7  UNL     1      64.029  52.807 129.550  1.00  0.00     0.223 C
HETATM    2  O3  UNL     1      65.137  52.224 129.624  1.00  0.00    -0.273 OA
HETATM    3  N2  UNL     1      63.349  53.085 130.762  1.00  0.00    -0.306 N
ATOM      4  H2  UNL     1      63.062  54.045 130.955  1.00  0.00     0.171 HD
ENDROOT
BRANCH   3   5
HETATM    5  C8  UNL     1      63.072  52.153 131.645  1.00  0.00     0.168 A
HETATM    6  N3  UNL     1      63.906  51.409 132.379  1.00  0.00    -0.278 N
HETATM    7  N4  UNL     1      63.420  50.558 133.182  1.00  0.00    -0.281 N
ATOM      8  H3  UNL     1      64.916  51.524 132.294  1.00  0.00     0.189 HD
HETATM    9  C9  UNL     1      62.111  50.407 133.296  1.00  0.00     0.204 A
ATOM     10  H4  UNL     1      64.045  49.984 133.747  1.00  0.00     0.188 HD
HETATM   11  S2  UNL     1      61.547  51.576 132.161  1.00  0.00    -0.020 SA
BRANCH   9  12
HETATM   12  S1  UNL     1      61.185  49.318 134.322  1.00  0.00     0.267 S
HETATM   13  O4  UNL     1      62.113  48.143 134.606  1.00  0.00    -0.204 OA
HETATM   14  O5  UNL     1      60.051  48.794 133.528  1.00  0.00    -0.204 OA
BRANCH  12  15
HETATM   15  N5  UNL     1      60.745  49.989 135.812  1.00  0.00    -0.205 NA
HETATM   16  C10 UNL     1      61.353  51.242 136.127  1.00  0.00     0.107 C
HETATM   17  C11 UNL     1      60.687  51.961 137.267  1.00  0.00     0.015 C
HETATM   18  C12 UNL     1      59.957  51.004 138.181  1.00  0.00     0.002 C
HETATM   19  C13 UNL     1      60.728  49.702 138.248  1.00  0.00     0.015 C
HETATM   20  C14 UNL     1      60.851  49.047 136.904  1.00  0.00     0.107 C
ENDBRANCH  12  15
ENDBRANCH   9  12
ENDBRANCH   3   5
BRANCH   1  21
HETATM   21  C6  UNL     1      63.413  53.209 128.292  1.00  0.00     0.105 C
BRANCH  21  22
HETATM   22  C5  UNL     1      63.231  52.152 127.266  1.00  0.00     0.030 C
BRANCH  22  23
HETATM   23  C4  UNL     1      61.935  51.427 127.317  1.00  0.00     0.138 C
BRANCH  23  24
HETATM   24  N1  UNL     1      62.149  50.105 126.570  1.00  0.00    -0.259 N
HETATM   25  C3  UNL     1      61.496  50.076 125.342  1.00  0.00     0.369 C
HETATM   26  O2  UNL     1      61.462  49.164 124.501  1.00  0.00    -0.238 OA
BRANCH  25  27
HETATM   27  O1  UNL     1      60.742  51.221 124.932  1.00  0.00    -0.304 OA
BRANCH  27  28
HETATM   28  C2  UNL     1      60.050  51.137 123.703  1.00  0.00     0.176 C
HETATM   29  C1  UNL     1      59.572  52.491 123.244  1.00  0.00     0.034 C
ENDBRANCH  27  28
ENDBRANCH  25  27
BRANCH  24  30
HETATM   30  C15 UNL     1      62.937  49.162 127.211  1.00  0.00     0.225 C
BRANCH  30  31
HETATM   31  O6  UNL     1      63.120  48.054 126.439  1.00  0.00    -0.332 OA
ATOM     32  H6  UNL     1      63.292  47.284 126.969  1.00  0.00     0.221 HD
ENDBRANCH  30  31
BRANCH  30  33
HETATM   33  N6  UNL     1      63.570  49.092 128.437  1.00  0.00    -0.356 N
HETATM   34  C16 UNL     1      65.093  49.082 128.422  1.00  0.00     0.152 C
HETATM   35  C17 UNL     1      63.054  49.016 129.758  1.00  0.00     0.152 C
ENDBRANCH  30  33
ENDBRANCH  24  30
ENDBRANCH  23  24
ENDBRANCH  22  23
ENDBRANCH  21  22
ENDBRANCH   1  21
TORSDOF 12
ENDMDL