MODEL 2
REMARK VINA RESULT: -8.361486289      5.497      9.197
REMARK  10 active torsions:
REMARK  status: ('A' for Active; 'I' for Inactive)
REMARK    1  A    between atoms: N1_4  and  C4_5
REMARK    2  A    between atoms: C4_5  and  C5_6
REMARK    3  A    between atoms: C7_8  and  N2_9
REMARK    4  A    between atoms: N2_9  and  C8_11
REMARK    5  A    between atoms: C12_15  and  O1_16
REMARK    6  A    between atoms: O1_16  and  C13_17
REMARK    7  A    between atoms: N3_24  and  C19_25
REMARK    8  A    between atoms: C19_25  and  C20_26
REMARK    9  A    between atoms: C20_26  and  N4_27
REMARK   10  A    between atoms: N8_37  and  O3_38
ROOT
HETATM    1  C1  UNL     1      53.861  45.363 138.200  1.00  0.00     0.021 C
HETATM    2  C2  UNL     1      54.940  45.890 138.348  1.00  0.00    -0.036 C
HETATM    3  C3  UNL     1      56.221  46.536 138.536  1.00  0.00     0.223 A
HETATM    4  N1  UNL     1      56.567  47.781 138.230  1.00  0.00    -0.155 N
HETATM    5  C7  UNL     1      57.879  47.990 138.574  1.00  0.00     0.700 A
HETATM    6  N7  UNL     1      58.289  46.832 139.089  1.00  0.00    -0.103 N
ATOM      7  H7  UNL     1      59.228  46.653 139.445  1.00  0.00     0.208 HD
HETATM    8  N8  UNL     1      57.296  45.939 139.073  1.00  0.00    -0.122 N
ENDROOT
BRANCH   4   9
HETATM    9  C4  UNL     1      55.679  48.748 137.625  1.00  0.00     0.150 C
BRANCH   9  10
HETATM   10  C5  UNL     1      55.733  48.528 136.131  1.00  0.00     0.016 C
HETATM   11  C6  UNL     1      54.340  48.362 135.603  1.00  0.00     0.006 C
ENDBRANCH   9  10
ENDBRANCH   4   9
BRANCH   8  12
HETATM   12  O3  UNL     1      57.334  44.633 139.521  1.00  0.00    -0.265 OA
ATOM     13  H3  UNL     1      56.669  44.224 140.062  1.00  0.00     0.247 HD
ENDBRANCH   8  12
BRANCH   5  14
HETATM   14  N2  UNL     1      58.452  49.061 138.393  1.00  0.00    -0.208 N
ATOM     15  H2  UNL     1      57.792  49.742 138.019  1.00  0.00     0.179 HD
BRANCH  14  16
HETATM   16  C8  UNL     1      59.700  49.647 138.530  1.00  0.00     0.112 C
HETATM   17  C9  UNL     1      60.514  48.988 139.636  1.00  0.00     0.045 C
HETATM   18  C10 UNL     1      59.998  49.185 140.996  1.00  0.00    -0.006 C
HETATM   19  C11 UNL     1      59.041  50.313 141.210  1.00  0.00     0.043 C
HETATM   20  C15 UNL     1      61.032  50.057 141.734  1.00  0.00     0.043 C
HETATM   21  C12 UNL     1      60.219  51.235 141.175  1.00  0.00     0.072 C
HETATM   22  C16 UNL     1      60.686  51.585 139.815  1.00  0.00     0.048 C
HETATM   23  C17 UNL     1      59.787  51.128 138.682  1.00  0.00     0.043 C
HETATM   24  C18 UNL     1      60.442  51.680 137.416  1.00  0.00     0.132 C
HETATM   25  N3  UNL     1      60.517  50.544 136.513  1.00  0.00    -0.366 N
HETATM   26  C23 UNL     1      60.515  49.365 137.275  1.00  0.00     0.118 C
HETATM   27  N5  UNL     1      61.058  48.230 137.047  1.00  0.00    -0.281 N
HETATM   28  C24 UNL     1      61.809  47.895 135.940  1.00  0.00     0.183 C
ATOM     29  H5  UNL     1      60.922  47.503 137.750  1.00  0.00     0.179 HD
HETATM   30  N6  UNL     1      62.457  47.593 135.016  1.00  0.00    -0.172 NA
BRANCH  21  31
HETATM   31  O1  UNL     1      60.051  52.288 142.094  1.00  0.00    -0.310 OA
BRANCH  31  32
HETATM   32  C13 UNL     1      59.156  53.314 142.004  1.00  0.00     0.255 C
HETATM   33  C14 UNL     1      59.399  54.399 141.018  1.00  0.00     0.126 C
HETATM   34  O2  UNL     1      58.153  53.298 142.763  1.00  0.00    -0.266 OA
ENDBRANCH  31  32
ENDBRANCH  21  31
BRANCH  25  35
HETATM   35  C19 UNL     1      60.570  50.694 135.098  1.00  0.00     0.143 C
BRANCH  35  36
HETATM   36  C20 UNL     1      61.901  51.227 134.613  1.00  0.00     0.135 C
BRANCH  36  37
HETATM   37  N4  UNL     1      62.300  50.726 133.338  1.00  0.00    -0.419 N
HETATM   38  C21 UNL     1      63.163  51.565 132.574  1.00  0.00     0.142 C
HETATM   39  C22 UNL     1      61.301  50.054 132.577  1.00  0.00     0.142 C
ENDBRANCH  36  37
ENDBRANCH  35  36
ENDBRANCH  25  35
ENDBRANCH  14  16
ENDBRANCH   5  14
TORSDOF 10
ENDMDL