MODEL 5
REMARK VINA RESULT: -7.211390911      2.817      6.218
REMARK  12 active torsions:
REMARK  status: ('A' for Active; 'I' for Inactive)
REMARK    1  A    between atoms: C2_2  and  C3_3
REMARK    2  A    between atoms: C3_3  and  S1_4
REMARK    3  A    between atoms: S1_4  and  N1_7
REMARK    4  A    between atoms: C6_11  and  C7_12
REMARK    5  A    between atoms: C7_12  and  N2_13
REMARK    6  A    between atoms: N2_13  and  C8_14
REMARK    7  A    between atoms: N2_13  and  C17_30
REMARK    8  A    between atoms: C8_14  and  O4_15
REMARK    9  A    between atoms: C8_14  and  C9_17
REMARK   10  A    between atoms: C11_20  and  N3_21
REMARK   11  A    between atoms: N3_21  and  C12_23
REMARK   12  A    between atoms: C12_23  and  C13_24
ROOT
HETATM    1  N2  UNL     1      62.828  51.828 127.079  1.00  0.00    -0.349 N
ENDROOT
BRANCH   1   2
HETATM    2  C7  UNL     1      63.972  51.039 126.567  1.00  0.00     0.159 C
BRANCH   2   3
HETATM    3  C6  UNL     1      64.451  49.949 127.416  1.00  0.00     0.153 C
HETATM    4  O3  UNL     1      64.346  48.756 126.670  1.00  0.00    -0.382 OA
HETATM    5  C5  UNL     1      64.345  47.632 127.456  1.00  0.00     0.183 C
HETATM    6  C4  UNL     1      65.253  47.727 128.661  1.00  0.00     0.133 C
HETATM    7  N1  UNL     1      64.778  48.759 129.517  1.00  0.00    -0.206 NA
HETATM    8  C20 UNL     1      63.943  49.728 128.782  1.00  0.00     0.141 C
BRANCH   7   9
HETATM    9  S1  UNL     1      65.967  49.565 130.430  1.00  0.00     0.211 S
HETATM   10  O1  UNL     1      65.488  49.683 131.841  1.00  0.00    -0.211 OA
HETATM   11  O2  UNL     1      66.138  50.976 129.909  1.00  0.00    -0.211 OA
BRANCH   9  12
HETATM   12  C3  UNL     1      67.532  48.792 130.413  1.00  0.00     0.157 C
BRANCH  12  13
HETATM   13  C2  UNL     1      67.974  48.289 131.762  1.00  0.00     0.012 C
HETATM   14  C1  UNL     1      69.179  49.021 132.292  1.00  0.00     0.006 C
ENDBRANCH  12  13
ENDBRANCH   9  12
ENDBRANCH   7   9
ENDBRANCH   2   3
ENDBRANCH   1   2
BRANCH   1  15
HETATM   15  C8  UNL     1      63.175  52.936 127.860  1.00  0.00     0.166 C
BRANCH  15  16
HETATM   16  O4  UNL     1      63.260  54.050 127.166  1.00  0.00    -0.344 OA
ATOM     17  H4  UNL     1      62.996  54.818 127.659  1.00  0.00     0.219 HD
ENDBRANCH  15  16
BRANCH  15  18
HETATM   18  C9  UNL     1      63.460  53.104 129.283  1.00  0.00     0.092 A
HETATM   19  C10 UNL     1      64.246  54.196 129.685  1.00  0.00     0.087 A
HETATM   20  S2  UNL     1      64.414  53.952 131.361  1.00  0.00    -0.064 SA
HETATM   21  C11 UNL     1      63.518  52.531 131.503  1.00  0.00     0.144 A
HETATM   22  N4  UNL     1      63.117  52.288 130.255  1.00  0.00    -0.333 N
ATOM     23  H4  UNL     1      62.544  51.469 130.054  1.00  0.00     0.168 HD
BRANCH  21  24
HETATM   24  N3  UNL     1      63.279  51.834 132.594  1.00  0.00    -0.370 N
ATOM     25  H3  UNL     1      64.029  51.638 133.258  1.00  0.00     0.161 HD
BRANCH  24  26
HETATM   26  C12 UNL     1      61.950  51.357 132.836  1.00  0.00     0.130 C
BRANCH  26  27
HETATM   27  C13 UNL     1      61.919  49.887 133.202  1.00  0.00    -0.035 C
HETATM   28  C14 UNL     1      62.931  49.615 134.288  1.00  0.00     0.016 C
HETATM   29  C15 UNL     1      60.543  49.548 133.742  1.00  0.00     0.016 C
HETATM   30  C16 UNL     1      62.186  48.998 132.035  1.00  0.00     0.016 C
ENDBRANCH  26  27
ENDBRANCH  24  26
ENDBRANCH  21  24
ENDBRANCH  15  18
ENDBRANCH   1  15
BRANCH   1  31
HETATM   31  C17 UNL     1      61.489  51.403 126.832  1.00  0.00     0.134 C
HETATM   32  C18 UNL     1      61.266  50.380 125.793  1.00  0.00     0.195 C
HETATM   33  O5  UNL     1      60.127  51.106 125.386  1.00  0.00    -0.387 OA
HETATM   34  C19 UNL     1      60.897  52.265 125.627  1.00  0.00     0.195 C
ENDBRANCH   1  31
TORSDOF 12
ENDMDL