MODEL 2
REMARK VINA RESULT: -9.543559341      2.042      3.622
REMARK  7 active torsions:
REMARK  status: ('A' for Active; 'I' for Inactive)
REMARK    1  A    between atoms: C4_4  and  N1_5
REMARK    2  A    between atoms: N2_8  and  C6_9
REMARK    3  A    between atoms: C6_9  and  C7_10
REMARK    4  A    between atoms: C7_10  and  C8_11
REMARK    5  A    between atoms: C8_11  and  C9_12
REMARK       I    between atoms: C9_12  and  N3_14
REMARK    6  A    between atoms: C10_16  and  C11_17
REMARK    7  A    between atoms: C11_17  and  N4_18
ROOT
HETATM    1  C6  UNL     1      60.301  51.548 136.850  1.00  0.00     0.134 C
ENDROOT
BRANCH   1   2
HETATM    2  N2  UNL     1      59.962  51.598 138.271  1.00  0.00    -0.297 N
HETATM    3  C5  UNL     1      59.681  52.915 138.819  1.00  0.00     0.343 C
HETATM    4  N1  UNL     1      59.324  53.224 140.119  1.00  0.00    -0.197 N
HETATM    5  O1  UNL     1      59.790  53.894 137.990  1.00  0.00    -0.245 OA
HETATM    6  S2  UNL     1      59.747  51.972 141.296  1.00  0.00     0.274 S
HETATM    7  C18 UNL     1      59.629  50.458 140.434  1.00  0.00     0.107 A
HETATM    8  O6  UNL     1      61.212  52.217 141.615  1.00  0.00    -0.199 OA
HETATM    9  O7  UNL     1      58.888  52.046 142.486  1.00  0.00    -0.199 OA
HETATM   10  C13 UNL     1      59.909  50.455 139.090  1.00  0.00     0.062 A
HETATM   11  C17 UNL     1      59.418  49.282 141.126  1.00  0.00     0.028 A
HETATM   12  C14 UNL     1      59.971  49.192 138.494  1.00  0.00     0.031 A
HETATM   13  C15 UNL     1      59.764  48.035 139.188  1.00  0.00     0.002 A
HETATM   14  C16 UNL     1      59.478  48.043 140.534  1.00  0.00     0.002 A
BRANCH   4  15
HETATM   15  C4  UNL     1      58.626  54.342 140.557  1.00  0.00     0.116 C
HETATM   16  C2  UNL     1      58.586  55.167 141.543  1.00  0.00    -0.071 C
HETATM   17  C1  UNL     1      59.373  55.288 142.780  1.00  0.00     0.044 C
HETATM   18  C3  UNL     1      57.502  56.294 141.491  1.00  0.00     0.044 C
ENDBRANCH   4  15
ENDBRANCH   1   2
BRANCH   1  19
HETATM   19  C7  UNL     1      61.755  51.195 136.788  1.00  0.00     0.029 C
BRANCH  19  20
HETATM   20  C8  UNL     1      62.437  51.366 135.490  1.00  0.00     0.105 C
BRANCH  20  21
HETATM   21  C9  UNL     1      62.578  50.125 134.735  1.00  0.00     0.221 C
HETATM   22  O2  UNL     1      62.982  49.078 135.249  1.00  0.00    -0.273 OA
HETATM   23  N3  UNL     1      62.239  50.118 133.359  1.00  0.00    -0.339 N
HETATM   24  C10 UNL     1      63.152  50.374 132.495  1.00  0.00     0.083 C
ATOM     25  H3  UNL     1      61.286  49.913 133.061  1.00  0.00     0.167 HD
BRANCH  24  26
HETATM   26  C11 UNL     1      62.787  50.365 131.042  1.00  0.00     0.167 C
BRANCH  26  27
HETATM   27  N4  UNL     1      62.890  49.007 130.564  1.00  0.00    -0.350 N
HETATM   28  C12 UNL     1      63.417  48.817 129.388  1.00  0.00     0.248 C
HETATM   29  N5  UNL     1      63.687  47.670 128.590  1.00  0.00    -0.225 N
HETATM   30  O5  UNL     1      63.953  49.596 128.375  1.00  0.00    -0.181 OA
HETATM   31  S1  UNL     1      63.392  48.567 127.170  1.00  0.00     0.372 S
ATOM     32  H5  UNL     1      63.950  46.705 128.787  1.00  0.00     0.184 HD
HETATM   33  O3  UNL     1      64.341  48.326 126.035  1.00  0.00    -0.175 OA
HETATM   34  O4  UNL     1      61.967  48.730 126.772  1.00  0.00    -0.175 OA
ATOM     35  H4  UNL     1      62.561  48.223 131.127  1.00  0.00     0.163 HD
ENDBRANCH  26  27
ENDBRANCH  24  26
ENDBRANCH  20  21
ENDBRANCH  19  20
ENDBRANCH   1  19
TORSDOF 7
ENDMDL