MODEL 1
REMARK VINA RESULT: -8.474173736      0.000      0.000
REMARK  7 active torsions:
REMARK  status: ('A' for Active; 'I' for Inactive)
REMARK    1  A    between atoms: C2_2  and  C3_3
REMARK       I    between atoms: C3_3  and  N1_5
REMARK       I    between atoms: N1_5  and  C4_6
REMARK    2  A    between atoms: N1_5  and  C18_27
REMARK    3  A    between atoms: C4_6  and  C5_8
REMARK    4  A    between atoms: C5_8  and  C6_9
REMARK    5  A    between atoms: C5_8  and  N3_18
REMARK       I    between atoms: C6_9  and  N2_11
REMARK    6  A    between atoms: N2_11  and  C7_13
REMARK       I    between atoms: N3_18  and  C13_20
REMARK    7  A    between atoms: C13_20  and  C14_22
ROOT
HETATM    1  C5  UNL     1      60.108  50.298 137.923  1.00  0.00     0.272 C
ENDROOT
BRANCH   1   2
HETATM    2  C4  UNL     1      59.893  51.255 139.016  1.00  0.00     0.259 C
HETATM    3  N1  UNL     1      60.308  51.165 140.371  1.00  0.00    -0.277 N
HETATM    4  C3  UNL     1      60.919  50.021 140.892  1.00  0.00     0.249 C
HETATM    5  O1  UNL     1      61.129  49.031 140.098  1.00  0.00    -0.268 OA
HETATM    6  O2  UNL     1      59.239  52.346 138.763  1.00  0.00    -0.270 OA
BRANCH   3   7
HETATM    7  C18 UNL     1      60.036  52.316 141.267  1.00  0.00     0.111 C
HETATM    8  C19 UNL     1      58.897  52.061 142.142  1.00  0.00     0.041 C
HETATM    9  C20 UNL     1      58.265  53.346 142.584  1.00  0.00     0.142 C
HETATM   10  S2  UNL     1      58.946  54.587 141.544  1.00  0.00     0.146 S
HETATM   11  O5  UNL     1      57.909  55.327 140.763  1.00  0.00    -0.228 OA
HETATM   12  O6  UNL     1      59.811  55.508 142.348  1.00  0.00    -0.228 OA
HETATM   13  C21 UNL     1      59.971  53.575 140.513  1.00  0.00     0.166 C
ENDBRANCH   3   7
BRANCH   4  14
HETATM   14  C2  UNL     1      61.361  49.806 142.271  1.00  0.00     0.064 C
HETATM   15  C1  UNL     1      60.707  48.931 143.022  1.00  0.00     0.017 C
ENDBRANCH   4  14
ENDBRANCH   1   2
BRANCH   1  16
HETATM   16  C6  UNL     1      60.985  50.701 136.835  1.00  0.00     0.250 C
HETATM   17  O3  UNL     1      61.560  51.849 136.999  1.00  0.00    -0.271 OA
HETATM   18  N2  UNL     1      61.279  49.997 135.651  1.00  0.00    -0.354 N
ATOM     19  H2  UNL     1      60.849  49.087 135.485  1.00  0.00     0.162 HD
BRANCH  18  20
HETATM   20  C7  UNL     1      62.198  50.558 134.657  1.00  0.00     0.084 C
HETATM   21  C8  UNL     1      63.049  49.456 134.054  1.00  0.00     0.025 C
HETATM   22  C9  UNL     1      63.123  49.763 132.573  1.00  0.00     0.002 C
HETATM   23  C10 UNL     1      61.810  50.466 132.264  1.00  0.00     0.002 C
HETATM   24  C11 UNL     1      61.440  51.194 133.534  1.00  0.00     0.025 C
ENDBRANCH  18  20
ENDBRANCH   1  16
BRANCH   1  25
HETATM   25  N3  UNL     1      58.750  50.003 137.333  1.00  0.00    -0.330 N
HETATM   26  C12 UNL     1      58.225  51.010 136.472  1.00  0.00     0.154 C
HETATM   27  C13 UNL     1      58.116  48.799 137.661  1.00  0.00     0.261 C
HETATM   28  O4  UNL     1      58.702  47.987 138.482  1.00  0.00    -0.267 OA
BRANCH  27  29
HETATM   29  C14 UNL     1      56.836  48.299 137.191  1.00  0.00     0.072 A
HETATM   30  C15 UNL     1      56.106  48.491 136.067  1.00  0.00     0.025 A
HETATM   31  C16 UNL     1      54.925  47.858 135.950  1.00  0.00     0.009 A
HETATM   32  C17 UNL     1      54.528  47.055 136.978  1.00  0.00     0.050 A
HETATM   33  S1  UNL     1      55.816  47.205 138.081  1.00  0.00    -0.097 SA
ENDBRANCH  27  29
ENDBRANCH   1  25
TORSDOF 7
ENDMDL