MODEL 4
REMARK VINA RESULT: -6.696513122      2.990      8.168
REMARK  19 active torsions:
REMARK  status: ('A' for Active; 'I' for Inactive)
REMARK       I    between atoms: N2_3  and  C2_4
REMARK       I    between atoms: C2_4  and  N3_5
REMARK       I    between atoms: C2_4  and  N8_24
REMARK    1  A    between atoms: N3_5  and  C3_7
REMARK    2  A    between atoms: C3_7  and  C4_8
REMARK    3  A    between atoms: C4_8  and  C5_9
REMARK    4  A    between atoms: C5_9  and  N4_10
REMARK       I    between atoms: N4_10  and  C6_12
REMARK    5  A    between atoms: C6_12  and  C7_14
REMARK    6  A    between atoms: C8_16  and  N5_17
REMARK    7  A    between atoms: N8_24  and  C10_26
REMARK    8  A    between atoms: C10_26  and  C11_27
REMARK    9  A    between atoms: C13_30  and  N9_31
REMARK   10  A    between atoms: N9_31  and  C14_33
REMARK   11  A    between atoms: C14_33  and  C15_34
REMARK   12  A    between atoms: C15_34  and  C16_35
REMARK   13  A    between atoms: C16_35  and  N10_36
REMARK   14  A    between atoms: N10_36  and  C17_38
REMARK   15  A    between atoms: C18_41  and  N12_42
REMARK   16  A    between atoms: C20_50  and  N15_51
REMARK   17  A    between atoms: N15_51  and  C21_53
REMARK   18  A    between atoms: C21_53  and  C22_54
REMARK   19  A    between atoms: C22_54  and  O2_55
ROOT
HETATM    1  N1  UNL     1     -29.779  17.930 -16.847  1.00  0.00    -0.156 NA
HETATM    2  C1  UNL     1     -30.825  18.295 -17.134  1.00  0.00     0.271 C
HETATM    3  N2  UNL     1     -31.962  18.713 -17.459  1.00  0.00    -0.294 NA
HETATM    4  C2  UNL     1     -33.034  19.091 -17.756  1.00  0.00     0.263 C
HETATM    5  N3  UNL     1     -33.234  20.307 -18.531  1.00  0.00    -0.350 N
ATOM      6  H3  UNL     1     -34.164  20.717 -18.619  1.00  0.00     0.163 HD
HETATM    7  N8  UNL     1     -34.236  18.369 -17.374  1.00  0.00    -0.344 N
ATOM      8  H8  UNL     1     -34.799  17.912 -18.091  1.00  0.00     0.164 HD
ENDROOT
BRANCH   5   9
HETATM    9  C3  UNL     1     -32.117  20.913 -19.162  1.00  0.00     0.125 C
BRANCH   9  10
HETATM   10  C4  UNL     1     -31.934  20.631 -20.615  1.00  0.00     0.039 C
BRANCH  10  11
HETATM   11  C5  UNL     1     -30.981  21.485 -21.363  1.00  0.00     0.124 C
BRANCH  11  12
HETATM   12  N4  UNL     1     -29.636  21.563 -20.944  1.00  0.00    -0.356 N
HETATM   13  C6  UNL     1     -28.623  20.701 -21.383  1.00  0.00     0.262 C
HETATM   14  O1  UNL     1     -28.880  19.790 -22.198  1.00  0.00    -0.267 OA
ATOM     15  H4  UNL     1     -29.385  22.293 -20.279  1.00  0.00     0.162 HD
BRANCH  13  16
HETATM   16  C7  UNL     1     -27.228  20.819 -20.916  1.00  0.00     0.117 A
HETATM   17  S1  UNL     1     -25.817  21.223 -21.795  1.00  0.00    -0.045 SA
HETATM   18  C8  UNL     1     -24.695  21.120 -20.517  1.00  0.00     0.144 A
HETATM   19  N6  UNL     1     -25.455  20.780 -19.475  1.00  0.00    -0.324 N
HETATM   20  C9  UNL     1     -26.734  20.625 -19.658  1.00  0.00     0.141 A
ATOM     21  H6  UNL     1     -25.041  20.646 -18.552  1.00  0.00     0.169 HD
HETATM   22  N7  UNL     1     -27.637  20.254 -18.572  1.00  0.00    -0.081 NA
BRANCH  18  23
HETATM   23  N5  UNL     1     -23.393  21.319 -20.526  1.00  0.00    -0.380 N
ATOM     24  H52 UNL     1     -22.873  21.987 -21.095  1.00  0.00     0.158 HD
ATOM     25  H51 UNL     1     -22.662  20.860 -19.983  1.00  0.00     0.158 HD
ENDBRANCH  18  23
ENDBRANCH  13  16
ENDBRANCH  11  12
ENDBRANCH  10  11
ENDBRANCH   9  10
ENDBRANCH   5   9
BRANCH   7  26
HETATM   26  C10 UNL     1     -34.634  18.292 -16.019  1.00  0.00     0.181 C
BRANCH  26  27
HETATM   27  C11 UNL     1     -34.969  16.880 -15.558  1.00  0.00     0.035 A
HETATM   28  C12 UNL     1     -35.995  16.687 -14.655  1.00  0.00     0.080 A
HETATM   29  S2  UNL     1     -35.972  15.005 -14.434  1.00  0.00    -0.064 SA
HETATM   30  C13 UNL     1     -34.680  14.628 -15.481  1.00  0.00     0.144 A
HETATM   31  N17 UNL     1     -34.322  15.820 -15.958  1.00  0.00    -0.338 N
ATOM     32  H17 UNL     1     -33.554  15.903 -16.625  1.00  0.00     0.168 HD
BRANCH  30  33
HETATM   33  N9  UNL     1     -34.182  13.446 -15.735  1.00  0.00    -0.370 N
ATOM     34  H9  UNL     1     -33.854  12.872 -14.958  1.00  0.00     0.161 HD
BRANCH  33  35
HETATM   35  C14 UNL     1     -34.082  12.932 -17.061  1.00  0.00     0.123 C
BRANCH  35  36
HETATM   36  C15 UNL     1     -33.404  11.573 -17.096  1.00  0.00     0.039 C
BRANCH  36  37
HETATM   37  C16 UNL     1     -32.063  11.657 -17.797  1.00  0.00     0.123 C
BRANCH  37  38
HETATM   38  N10 UNL     1     -31.130  12.484 -17.083  1.00  0.00    -0.375 N
ATOM     39  H10 UNL     1     -30.771  13.304 -17.572  1.00  0.00     0.161 HD
BRANCH  38  40
HETATM   40  C17 UNL     1     -30.711  12.288 -15.898  1.00  0.00     0.136 A
HETATM   41  N11 UNL     1     -30.416  11.052 -15.452  1.00  0.00    -0.176 N
HETATM   42  C18 UNL     1     -29.982  10.927 -14.181  1.00  0.00     0.679 A
ATOM     43  H11 UNL     1     -30.517  10.236 -16.056  1.00  0.00     0.186 HD
HETATM   44  N13 UNL     1     -29.840  11.989 -13.366  1.00  0.00    -0.175 N
HETATM   45  C19 UNL     1     -30.125  13.234 -13.776  1.00  0.00     0.156 A
ATOM     46  H13 UNL     1     -29.508  11.843 -12.413  1.00  0.00     0.186 HD
HETATM   47  N14 UNL     1     -29.981  14.285 -12.956  1.00  0.00    -0.175 N
HETATM   48  C24 UNL     1     -30.572  13.415 -15.066  1.00  0.00     0.122 A
HETATM   49  C20 UNL     1     -30.280  15.541 -13.404  1.00  0.00     0.682 A
ATOM     50  H14 UNL     1     -29.650  14.148 -12.001  1.00  0.00     0.186 HD
HETATM   51  N16 UNL     1     -30.717  15.732 -14.662  1.00  0.00    -0.155 N
HETATM   52  C23 UNL     1     -30.874  14.685 -15.522  1.00  0.00     0.277 A
ATOM     53  H16 UNL     1     -30.934  16.676 -14.979  1.00  0.00     0.187 HD
HETATM   54  O3  UNL     1     -31.277  14.834 -16.688  1.00  0.00    -0.266 OA
BRANCH  42  55
HETATM   55  N12 UNL     1     -29.694   9.728 -13.741  1.00  0.00    -0.234 N
ATOM     56 2H12 UNL     1     -28.805   9.296 -13.993  1.00  0.00     0.174 HD
ATOM     57 1H12 UNL     1     -30.378   9.254 -13.151  1.00  0.00     0.174 HD
ENDBRANCH  42  55
BRANCH  49  58
HETATM   58  N15 UNL     1     -30.138  16.548 -12.605  1.00  0.00    -0.224 N
ATOM     59  H15 UNL     1     -29.217  16.762 -12.222  1.00  0.00     0.177 HD
BRANCH  58  60
HETATM   60  C21 UNL     1     -31.271  17.376 -12.244  1.00  0.00     0.164 C
BRANCH  60  61
HETATM   61  C22 UNL     1     -31.553  17.211 -10.764  1.00  0.00     0.184 C
BRANCH  61  62
HETATM   62  O2  UNL     1     -32.646  17.988 -10.388  1.00  0.00    -0.399 OA
ATOM     63  H2  UNL     1     -32.462  18.447  -9.578  1.00  0.00     0.209 HD
ENDBRANCH  61  62
ENDBRANCH  60  61
ENDBRANCH  58  60
ENDBRANCH  49  58
ENDBRANCH  38  40
ENDBRANCH  37  38
ENDBRANCH  36  37
ENDBRANCH  35  36
ENDBRANCH  33  35
ENDBRANCH  30  33
ENDBRANCH  26  27
ENDBRANCH   7  26
TORSDOF 19
ENDMDL