MODEL 4
REMARK VINA RESULT: -6.713777644      4.057     10.675
REMARK  15 active torsions:
REMARK  status: ('A' for Active; 'I' for Inactive)
REMARK    1  A    between atoms: C2_3  and  C3_4
REMARK    2  A    between atoms: C2_3  and  N13_48
REMARK    3  A    between atoms: C3_4  and  N2_5
REMARK    4  A    between atoms: N2_5  and  C4_7
REMARK    5  A    between atoms: C5_10  and  C6_11
REMARK    6  A    between atoms: C9_14  and  C10_15
REMARK       I    between atoms: C10_15  and  N4_17
REMARK    7  A    between atoms: N4_17  and  C11_19
REMARK    8  A    between atoms: C11_19  and  C12_20
REMARK    9  A    between atoms: C12_20  and  C13_21
REMARK       I    between atoms: C13_21  and  N5_23
REMARK   10  A    between atoms: N5_23  and  N6_25
REMARK       I    between atoms: N6_25  and  C14_27
REMARK       I    between atoms: N13_48  and  C21_50
REMARK   11  A    between atoms: C21_50  and  C22_52
REMARK   12  A    between atoms: C22_52  and  N14_53
REMARK   13  A    between atoms: C22_52  and  C23_57
REMARK   14  A    between atoms: C23_57  and  C24_58
REMARK   15  A    between atoms: C27_61  and  O5_62
ROOT
HETATM    1  N1  UNL     1     -31.860  19.070 -17.454  1.00  0.00    -0.195 NA
HETATM    2  C1  UNL     1     -32.108  19.396 -18.536  1.00  0.00     0.086 C
HETATM    3  C2  UNL     1     -32.448  19.815 -19.927  1.00  0.00     0.209 C
ENDROOT
BRANCH   3   4
HETATM    4  C3  UNL     1     -33.752  20.515 -19.832  1.00  0.00     0.161 C
BRANCH   4   5
HETATM    5  N2  UNL     1     -34.828  19.974 -20.597  1.00  0.00    -0.372 N
ATOM      6  H2  UNL     1     -34.893  20.165 -21.596  1.00  0.00     0.161 HD
BRANCH   5   7
HETATM    7  C4  UNL     1     -35.711  19.249 -20.024  1.00  0.00     0.120 A
HETATM    8  N3  UNL     1     -35.349  18.393 -19.019  1.00  0.00    -0.327 N
HETATM    9  C5  UNL     1     -36.198  17.610 -18.359  1.00  0.00     0.118 A
ATOM     10  H3  UNL     1     -34.364  18.352 -18.759  1.00  0.00     0.169 HD
HETATM   11  N9  UNL     1     -37.492  17.688 -18.724  1.00  0.00    -0.327 N
HETATM   12  C17 UNL     1     -37.901  18.521 -19.715  1.00  0.00     0.128 A
ATOM     13  H9  UNL     1     -38.181  17.108 -18.246  1.00  0.00     0.169 HD
HETATM   14  N10 UNL     1     -39.210  18.566 -20.054  1.00  0.00    -0.293 N
HETATM   15  C20 UNL     1     -37.031  19.336 -20.407  1.00  0.00     0.096 A
HETATM   16  C18 UNL     1     -39.631  19.386 -21.037  1.00  0.00     0.327 A
ATOM     17  H10 UNL     1     -39.882  17.976 -19.563  1.00  0.00     0.172 HD
HETATM   18  O3  UNL     1     -40.879  19.399 -21.326  1.00  0.00    -0.247 OA
HETATM   19  N11 UNL     1     -38.787  20.169 -21.698  1.00  0.00    -0.294 N
HETATM   20  C19 UNL     1     -37.446  20.192 -21.426  1.00  0.00     0.120 A
ATOM     21  H11 UNL     1     -39.150  20.775 -22.434  1.00  0.00     0.172 HD
HETATM   22  N12 UNL     1     -36.689  20.947 -22.070  1.00  0.00    -0.384 N
ATOM     23 2H12 UNL     1     -36.992  21.573 -22.815  1.00  0.00     0.157 HD
ATOM     24 1H12 UNL     1     -35.689  20.964 -21.867  1.00  0.00     0.157 HD
BRANCH   9  25
HETATM   25  C6  UNL     1     -35.772  16.677 -17.317  1.00  0.00     0.008 A
HETATM   26  C7  UNL     1     -34.694  15.832 -17.495  1.00  0.00     0.016 A
HETATM   27  C8  UNL     1     -34.222  14.957 -16.541  1.00  0.00     0.018 A
HETATM   28  C9  UNL     1     -34.875  14.922 -15.320  1.00  0.00     0.032 A
HETATM   29  C15 UNL     1     -35.947  15.745 -15.110  1.00  0.00     0.018 A
HETATM   30  C16 UNL     1     -36.399  16.618 -16.101  1.00  0.00     0.016 A
BRANCH  28  31
HETATM   31  C10 UNL     1     -34.375  14.004 -14.312  1.00  0.00     0.251 C
HETATM   32  O1  UNL     1     -34.897  12.872 -14.197  1.00  0.00    -0.268 OA
HETATM   33  N4  UNL     1     -33.310  14.373 -13.470  1.00  0.00    -0.356 N
ATOM     34  H4  UNL     1     -32.879  15.293 -13.561  1.00  0.00     0.162 HD
BRANCH  33  35
HETATM   35  C11 UNL     1     -32.832  13.441 -12.477  1.00  0.00     0.132 C
BRANCH  35  36
HETATM   36  C12 UNL     1     -31.360  13.533 -12.210  1.00  0.00     0.124 C
BRANCH  36  37
HETATM   37  C13 UNL     1     -31.010  15.001 -12.219  1.00  0.00     0.237 C
HETATM   38  O2  UNL     1     -31.389  15.772 -11.288  1.00  0.00    -0.272 OA
HETATM   39  N5  UNL     1     -30.248  15.514 -13.286  1.00  0.00    -0.268 N
ATOM     40  H5  UNL     1     -29.944  14.893 -14.035  1.00  0.00     0.190 HD
BRANCH  39  41
HETATM   41  N6  UNL     1     -29.903  16.873 -13.324  1.00  0.00    -0.271 N
HETATM   42  C14 UNL     1     -30.770  17.845 -13.894  1.00  0.00     0.200 C
HETATM   43  N7  UNL     1     -31.626  17.506 -14.794  1.00  0.00    -0.372 N
HETATM   44  N8  UNL     1     -30.697  19.181 -13.479  1.00  0.00    -0.062 NA
ATOM     45  H72 UNL     1     -31.680  16.533 -15.097  1.00  0.00     0.158 HD
ATOM     46  H71 UNL     1     -32.249  18.203 -15.203  1.00  0.00     0.158 HD
ATOM     47  H6  UNL     1     -29.009  17.172 -12.934  1.00  0.00     0.189 HD
ENDBRANCH  39  41
ENDBRANCH  36  37
ENDBRANCH  35  36
ENDBRANCH  33  35
ENDBRANCH  28  31
ENDBRANCH   9  25
ENDBRANCH   5   7
ENDBRANCH   4   5
ENDBRANCH   3   4
BRANCH   3  48
HETATM   48  N13 UNL     1     -31.358  20.556 -20.470  1.00  0.00    -0.341 N
HETATM   49  C21 UNL     1     -30.693  20.228 -21.680  1.00  0.00     0.249 C
HETATM   50  O4  UNL     1     -31.106  19.218 -22.286  1.00  0.00    -0.271 OA
ATOM     51  H13 UNL     1     -31.035  21.374 -19.955  1.00  0.00     0.164 HD
BRANCH  49  52
HETATM   52  C22 UNL     1     -29.582  21.015 -22.206  1.00  0.00     0.278 C
BRANCH  52  53
HETATM   53  N14 UNL     1     -29.901  21.300 -23.622  1.00  0.00    -0.066 N
ATOM     54 3H14 UNL     1     -30.181  20.471 -24.147  1.00  0.00     0.275 HD
ATOM     55 2H14 UNL     1     -30.768  21.825 -23.743  1.00  0.00     0.275 HD
ATOM     56 1H14 UNL     1     -29.086  21.772 -24.015  1.00  0.00     0.275 HD
ENDBRANCH  52  53
BRANCH  52  57
HETATM   57  C23 UNL     1     -28.310  20.224 -22.242  1.00  0.00     0.081 C
BRANCH  57  58
HETATM   58  C24 UNL     1     -27.242  20.873 -21.489  1.00  0.00    -0.056 A
HETATM   59  C25 UNL     1     -27.582  21.404 -20.248  1.00  0.00     0.010 A
HETATM   60  C26 UNL     1     -26.641  22.060 -19.514  1.00  0.00     0.037 A
HETATM   61  C27 UNL     1     -25.348  22.212 -19.971  1.00  0.00     0.065 A
HETATM   62  C28 UNL     1     -25.036  21.680 -21.200  1.00  0.00     0.037 A
HETATM   63  C29 UNL     1     -25.950  21.006 -21.986  1.00  0.00     0.010 A
BRANCH  61  64
HETATM   64  O5  UNL     1     -24.433  22.889 -19.178  1.00  0.00    -0.361 OA
ATOM     65  H5  UNL     1     -24.276  23.811 -19.345  1.00  0.00     0.217 HD
ENDBRANCH  61  64
ENDBRANCH  57  58
ENDBRANCH  52  57
ENDBRANCH  49  52
ENDBRANCH   3  48
TORSDOF 15
ENDMDL