MODEL 2
REMARK VINA RESULT: -7.881481977      1.022      1.539
REMARK  18 active torsions:
REMARK  status: ('A' for Active; 'I' for Inactive)
REMARK    1  A    between atoms: C6_6  and  S1_7
REMARK    2  A    between atoms: S1_7  and  N1_10
REMARK    3  A    between atoms: N1_10  and  C7_12
REMARK    4  A    between atoms: C7_12  and  N2_13
REMARK    5  A    between atoms: C7_12  and  C8_17
REMARK    6  A    between atoms: C11_20  and  N3_21
REMARK       I    between atoms: N3_21  and  C12_23
REMARK    7  A    between atoms: C12_23  and  C13_25
REMARK    8  A    between atoms: C13_25  and  C14_26
REMARK    9  A    between atoms: C13_25  and  N9_40
REMARK   10  A    between atoms: C14_26  and  C15_27
REMARK   11  A    between atoms: C15_27  and  C16_28
REMARK   12  A    between atoms: C16_28  and  N4_29
REMARK       I    between atoms: N4_29  and  C17_31
REMARK       I    between atoms: C17_31  and  N6_33
REMARK   13  A    between atoms: N6_33  and  N7_35
REMARK   14  A    between atoms: N7_35  and  N8_37
REMARK   15  A    between atoms: N9_40  and  N10_42
REMARK   16  A    between atoms: C19_46  and  O4_47
REMARK   17  A    between atoms: C20_51  and  N12_52
REMARK   18  A    between atoms: N12_52  and  C21_54
ROOT
HETATM    1  C8  UNL     1     -31.925  14.219 -14.586  1.00  0.00     0.085 A
HETATM    2  C9  UNL     1     -32.690  14.230 -15.755  1.00  0.00     0.032 A
HETATM    3  C10 UNL     1     -33.050  15.427 -16.312  1.00  0.00     0.034 A
HETATM    4  C11 UNL     1     -32.647  16.583 -15.705  1.00  0.00     0.067 A
HETATM    5  C18 UNL     1     -31.879  16.527 -14.532  1.00  0.00     0.135 A
HETATM    6  C19 UNL     1     -31.351  17.516 -13.728  1.00  0.00     0.185 A
HETATM    7  N11 UNL     1     -30.699  16.917 -12.727  1.00  0.00    -0.168 N
ATOM      8  H11 UNL     1     -30.208  17.403 -11.976  1.00  0.00     0.186 HD
HETATM    9  C20 UNL     1     -30.787  15.582 -12.853  1.00  0.00     0.693 A
HETATM   10  N16 UNL     1     -31.514  15.329 -13.967  1.00  0.00    -0.141 N
ENDROOT
BRANCH   4  11
HETATM   11  N3  UNL     1     -32.980  17.826 -16.257  1.00  0.00    -0.320 N
HETATM   12  C12 UNL     1     -34.097  18.631 -16.047  1.00  0.00     0.270 C
HETATM   13  O3  UNL     1     -35.023  18.340 -15.283  1.00  0.00    -0.266 OA
ATOM     14  H3  UNL     1     -32.298  18.202 -16.915  1.00  0.00     0.169 HD
BRANCH  12  15
HETATM   15  C13 UNL     1     -34.256  19.939 -16.753  1.00  0.00     0.093 C
BRANCH  15  16
HETATM   16  C14 UNL     1     -33.313  20.202 -17.842  1.00  0.00     0.066 C
BRANCH  16  17
HETATM   17  C15 UNL     1     -33.806  20.970 -19.007  1.00  0.00     0.026 C
BRANCH  17  18
HETATM   18  C16 UNL     1     -33.421  20.249 -20.328  1.00  0.00     0.122 C
BRANCH  18  19
HETATM   19  N4  UNL     1     -32.668  21.233 -21.072  1.00  0.00    -0.363 N
HETATM   20  C17 UNL     1     -33.135  21.856 -22.071  1.00  0.00     0.204 C
HETATM   21  N5  UNL     1     -32.354  22.811 -22.766  1.00  0.00    -0.062 NA
HETATM   22  N6  UNL     1     -34.458  21.594 -22.506  1.00  0.00    -0.260 N
ATOM     23  H6  UNL     1     -34.690  20.648 -22.807  1.00  0.00     0.191 HD
ATOM     24  H4  UNL     1     -31.713  21.437 -20.777  1.00  0.00     0.162 HD
BRANCH  22  25
HETATM   25  N7  UNL     1     -35.457  22.562 -22.543  1.00  0.00    -0.247 N
ATOM     26  H7  UNL     1     -36.389  22.325 -22.880  1.00  0.00     0.207 HD
BRANCH  25  27
HETATM   27  N8  UNL     1     -35.200  23.730 -22.159  1.00  0.00    -0.331 N
ATOM     28  H82 UNL     1     -34.271  24.117 -22.326  1.00  0.00     0.178 HD
ATOM     29  H81 UNL     1     -35.923  24.272 -21.686  1.00  0.00     0.178 HD
ENDBRANCH  25  27
ENDBRANCH  22  25
ENDBRANCH  18  19
ENDBRANCH  17  18
ENDBRANCH  16  17
ENDBRANCH  15  16
BRANCH  15  30
HETATM   30  N9  UNL     1     -35.175  20.737 -16.397  1.00  0.00    -0.306 N
ATOM     31  H9  UNL     1     -34.838  21.615 -16.001  1.00  0.00     0.186 HD
BRANCH  30  32
HETATM   32  N10 UNL     1     -36.536  20.627 -16.451  1.00  0.00    -0.345 N
ATOM     33 2H10 UNL     1     -36.888  19.778 -16.007  1.00  0.00     0.176 HD
ATOM     34 1H10 UNL     1     -37.247  21.239 -16.853  1.00  0.00     0.176 HD
ENDBRANCH  30  32
ENDBRANCH  15  30
ENDBRANCH  12  15
ENDBRANCH   4  11
BRANCH   6  35
HETATM   35  O4  UNL     1     -31.441  18.898 -13.874  1.00  0.00    -0.344 OA
ATOM     36  H4  UNL     1     -32.202  19.423 -14.093  1.00  0.00     0.219 HD
ENDBRANCH   6  35
BRANCH   1  37
HETATM   37  C7  UNL     1     -31.583  12.872 -14.058  1.00  0.00     0.343 C
BRANCH  37  38
HETATM   38  N1  UNL     1     -30.294  12.437 -14.528  1.00  0.00    -0.281 N
ATOM     39  H1  UNL     1     -30.069  12.501 -15.521  1.00  0.00     0.175 HD
BRANCH  38  40
HETATM   40  S1  UNL     1     -29.173  11.831 -13.462  1.00  0.00     0.261 S
HETATM   41  O1  UNL     1     -28.180  12.845 -12.943  1.00  0.00    -0.200 OA
HETATM   42  O2  UNL     1     -29.958  11.451 -12.193  1.00  0.00    -0.200 OA
BRANCH  40  43
HETATM   43  C6  UNL     1     -28.272  10.424 -13.963  1.00  0.00     0.091 A
HETATM   44  C4  UNL     1     -26.904  10.395 -14.132  1.00  0.00    -0.038 A
HETATM   45  C3  UNL     1     -26.246   9.247 -14.571  1.00  0.00     0.015 A
HETATM   46  C5  UNL     1     -26.103  11.582 -13.804  1.00  0.00     0.050 C
HETATM   47  C2  UNL     1     -26.919   8.089 -14.857  1.00  0.00    -0.061 A
HETATM   48  C1  UNL     1     -26.219   6.850 -15.323  1.00  0.00     0.048 C
HETATM   49  C25 UNL     1     -28.288   8.097 -14.692  1.00  0.00     0.015 A
HETATM   50  C23 UNL     1     -28.947   9.231 -14.257  1.00  0.00    -0.038 A
HETATM   51  C24 UNL     1     -30.429   9.249 -14.074  1.00  0.00     0.050 C
ENDBRANCH  40  43
ENDBRANCH  38  40
ENDBRANCH  37  38
BRANCH  37  52
HETATM   52  N2  UNL     1     -32.498  11.945 -14.822  1.00  0.00    -0.052 N
ATOM     53  H23 UNL     1     -32.153  10.993 -14.946  1.00  0.00     0.277 HD
ATOM     54  H22 UNL     1     -33.349  11.669 -14.333  1.00  0.00     0.277 HD
ATOM     55  H21 UNL     1     -32.640  12.475 -15.682  1.00  0.00     0.277 HD
ENDBRANCH  37  52
ENDBRANCH   1  37
BRANCH   9  56
HETATM   56  N12 UNL     1     -30.261  14.714 -12.054  1.00  0.00    -0.170 N
ATOM     57  H12 UNL     1     -29.585  14.051 -12.432  1.00  0.00     0.186 HD
BRANCH  56  58
HETATM   58  C21 UNL     1     -30.576  14.641 -10.691  1.00  0.00     0.188 A
HETATM   59  N13 UNL     1     -29.963  15.293  -9.685  1.00  0.00    -0.221 N
HETATM   60  O5  UNL     1     -30.551  14.954  -8.599  1.00  0.00    -0.153 OA
ATOM     61  H13 UNL     1     -29.177  15.937  -9.772  1.00  0.00     0.198 HD
HETATM   62  N14 UNL     1     -31.514  14.121  -8.805  1.00  0.00    -0.222 N
HETATM   63  C22 UNL     1     -31.593  13.870 -10.132  1.00  0.00     0.168 A
ATOM     64  H14 UNL     1     -32.117  13.719  -8.086  1.00  0.00     0.198 HD
HETATM   65  N15 UNL     1     -32.405  13.103 -10.764  1.00  0.00    -0.381 N
ATOM     66 2H15 UNL     1     -32.465  12.914 -11.764  1.00  0.00     0.157 HD
ATOM     67 1H15 UNL     1     -33.149  12.539 -10.354  1.00  0.00     0.157 HD
ENDBRANCH  56  58
ENDBRANCH   9  56
TORSDOF 18
ENDMDL