MODEL 1
REMARK VINA RESULT: -8.131404703      0.000      0.000
REMARK  13 active torsions:
REMARK  status: ('A' for Active; 'I' for Inactive)
REMARK    1  A    between atoms: C2_2  and  N1_3
REMARK    2  A    between atoms: C2_2  and  C27_58
REMARK       I    between atoms: N1_3  and  C3_5
REMARK    3  A    between atoms: C3_5  and  C4_7
REMARK    4  A    between atoms: C7_12  and  N3_13
REMARK    5  A    between atoms: C8_18  and  C9_19
REMARK    6  A    between atoms: C9_19  and  C10_20
REMARK    7  A    between atoms: C9_19  and  N7_32
REMARK    8  A    between atoms: C10_20  and  C11_21
REMARK       I    between atoms: N7_32  and  C18_34
REMARK    9  A    between atoms: C18_34  and  C19_36
REMARK   10  A    between atoms: C19_36  and  N8_37
REMARK       I    between atoms: N8_37  and  C20_39
REMARK   11  A    between atoms: C20_39  and  C21_41
REMARK   12  A    between atoms: C21_41  and  N9_42
REMARK   13  A    between atoms: C23_47  and  C24_48
REMARK       I    between atoms: C27_58  and  N13_60
REMARK       I    between atoms: N13_60  and  C28_62
ROOT
HETATM    1  C4  UNL     1     -32.440  18.718 -17.020  1.00  0.00     0.059 A
HETATM    2  C5  UNL     1     -33.639  18.386 -16.493  1.00  0.00     0.050 A
HETATM    3  C6  UNL     1     -33.807  17.288 -15.641  1.00  0.00     0.063 A
HETATM    4  N2  UNL     1     -35.031  16.987 -15.192  1.00  0.00    -0.191 N
ATOM      5  H2  UNL     1     -35.828  17.570 -15.445  1.00  0.00     0.184 HD
HETATM    6  C7  UNL     1     -35.198  15.939 -14.425  1.00  0.00     0.676 A
HETATM    7  N4  UNL     1     -34.184  15.192 -14.093  1.00  0.00    -0.192 N
ATOM      8  H4  UNL     1     -34.370  14.389 -13.493  1.00  0.00     0.184 HD
HETATM    9  C8  UNL     1     -32.860  15.403 -14.494  1.00  0.00     0.066 A
HETATM   10  C22 UNL     1     -32.693  16.477 -15.299  1.00  0.00     0.033 A
HETATM   11  C23 UNL     1     -31.483  16.803 -15.833  1.00  0.00     0.050 A
HETATM   12  C26 UNL     1     -31.363  17.927 -16.687  1.00  0.00     0.077 A
HETATM   13  N12 UNL     1     -30.079  18.213 -17.199  1.00  0.00    -0.100 NA
ENDROOT
BRANCH   9  14
HETATM   14  C9  UNL     1     -31.806  14.705 -13.767  1.00  0.00     0.160 C
BRANCH  14  15
HETATM   15  C10 UNL     1     -32.070  13.255 -13.491  1.00  0.00     0.018 C
BRANCH  15  16
HETATM   16  C11 UNL     1     -31.262  12.167 -14.007  1.00  0.00    -0.008 A
HETATM   17  C12 UNL     1     -31.621  11.497 -15.228  1.00  0.00     0.101 A
HETATM   18  N5  UNL     1     -30.712  10.564 -15.418  1.00  0.00    -0.351 N
HETATM   19  C13 UNL     1     -29.799  10.553 -14.460  1.00  0.00     0.116 A
ATOM     20  H5  UNL     1     -30.711   9.924 -16.213  1.00  0.00     0.166 HD
HETATM   21  N6  UNL     1     -28.675   9.814 -14.255  1.00  0.00    -0.352 N
HETATM   22  C17 UNL     1     -30.131  11.555 -13.566  1.00  0.00     0.019 A
HETATM   23  C14 UNL     1     -27.886  10.038 -13.215  1.00  0.00     0.090 A
ATOM     24  H6  UNL     1     -28.436   9.073 -14.915  1.00  0.00     0.166 HD
HETATM   25  C15 UNL     1     -28.194  11.050 -12.292  1.00  0.00     0.018 A
HETATM   26  C16 UNL     1     -29.320  11.810 -12.474  1.00  0.00     0.017 A
ENDBRANCH  15  16
ENDBRANCH  14  15
BRANCH  14  27
HETATM   27  N7  UNL     1     -32.052  15.308 -12.399  1.00  0.00    -0.346 N
HETATM   28  C18 UNL     1     -31.170  16.264 -11.855  1.00  0.00     0.236 C
HETATM   29  O2  UNL     1     -30.154  16.643 -12.486  1.00  0.00    -0.272 OA
ATOM     30  H7  UNL     1     -32.870  15.018 -11.863  1.00  0.00     0.163 HD
BRANCH  28  31
HETATM   31  C19 UNL     1     -31.425  16.832 -10.520  1.00  0.00     0.225 C
BRANCH  31  32
HETATM   32  N8  UNL     1     -32.008  15.867  -9.628  1.00  0.00    -0.351 N
HETATM   33  C20 UNL     1     -31.278  14.709  -9.304  1.00  0.00     0.243 C
HETATM   34  O3  UNL     1     -30.120  14.556  -9.832  1.00  0.00    -0.272 OA
ATOM     35  H8  UNL     1     -32.938  16.019  -9.238  1.00  0.00     0.163 HD
BRANCH  33  36
HETATM   36  C21 UNL     1     -31.794  13.673  -8.380  1.00  0.00     0.332 C
BRANCH  36  37
HETATM   37  N9  UNL     1     -32.151  12.483  -9.072  1.00  0.00    -0.071 N
ATOM     38  H93 UNL     1     -32.586  12.692  -9.971  1.00  0.00     0.274 HD
ATOM     39  H92 UNL     1     -31.325  11.985  -9.406  1.00  0.00     0.274 HD
ATOM     40  H91 UNL     1     -32.744  11.879  -8.502  1.00  0.00     0.274 HD
ENDBRANCH  36  37
ENDBRANCH  33  36
ENDBRANCH  31  32
ENDBRANCH  28  31
ENDBRANCH  14  27
ENDBRANCH   9  14
BRANCH   6  41
HETATM   41  N3  UNL     1     -36.396  15.604 -13.973  1.00  0.00    -0.234 N
ATOM     42  H32 UNL     1     -37.132  16.311 -13.990  1.00  0.00     0.174 HD
ATOM     43  H31 UNL     1     -36.582  14.669 -13.612  1.00  0.00     0.174 HD
ENDBRANCH   6  41
BRANCH  11  44
HETATM   44  C24 UNL     1     -30.375  15.881 -15.871  1.00  0.00     0.143 A
HETATM   45  N10 UNL     1     -29.367  15.729 -15.040  1.00  0.00    -0.285 N
HETATM   46  C25 UNL     1     -28.702  14.585 -15.283  1.00  0.00     0.388 A
ATOM     47  H10 UNL     1     -29.122  16.392 -14.305  1.00  0.00     0.172 HD
HETATM   48  O4  UNL     1     -27.699  14.083 -14.725  1.00  0.00    -0.236 OA
HETATM   49  O5  UNL     1     -29.339  14.043 -16.296  1.00  0.00    -0.179 OA
HETATM   50  N11 UNL     1     -30.331  14.800 -16.653  1.00  0.00    -0.239 N
ATOM     51  H11 UNL     1     -30.979  14.600 -17.415  1.00  0.00     0.196 HD
ENDBRANCH  11  44
BRANCH   1  52
HETATM   52  C3  UNL     1     -32.254  19.787 -18.022  1.00  0.00     0.254 C
HETATM   53  N1  UNL     1     -31.644  19.489 -19.280  1.00  0.00    -0.344 N
ATOM     54  H1  UNL     1     -31.382  18.519 -19.456  1.00  0.00     0.163 HD
HETATM   55  O1  UNL     1     -32.625  20.944 -17.758  1.00  0.00    -0.268 OA
BRANCH  53  56
HETATM   56  C2  UNL     1     -31.372  20.443 -20.312  1.00  0.00     0.173 C
HETATM   57  C1  UNL     1     -31.683  19.936 -21.707  1.00  0.00     0.042 C
BRANCH  56  58
HETATM   58  C27 UNL     1     -29.969  20.922 -20.305  1.00  0.00     0.246 C
HETATM   59  O6  UNL     1     -29.592  21.909 -20.956  1.00  0.00    -0.271 OA
HETATM   60  N13 UNL     1     -29.011  20.187 -19.488  1.00  0.00    -0.300 N
HETATM   61  C28 UNL     1     -27.668  20.637 -19.463  1.00  0.00     0.188 C
ATOM     62  H13 UNL     1     -29.300  19.370 -18.950  1.00  0.00     0.171 HD
HETATM   63  N14 UNL     1     -26.811  19.971 -18.726  1.00  0.00    -0.373 N
HETATM   64  N15 UNL     1     -27.212  21.766 -20.183  1.00  0.00    -0.064 NA
ATOM     65 2H14 UNL     1     -27.141  19.157 -18.208  1.00  0.00     0.158 HD
ATOM     66 1H14 UNL     1     -25.845  20.295 -18.708  1.00  0.00     0.158 HD
ENDBRANCH  56  58
ENDBRANCH  53  56
ENDBRANCH   1  52
TORSDOF 13
ENDMDL