MODEL 2
REMARK VINA RESULT: -7.277589036      2.001      5.070
REMARK  17 active torsions:
REMARK  status: ('A' for Active; 'I' for Inactive)
REMARK    1  A    between atoms: C2_2  and  N8_31
REMARK       I    between atoms: N1_3  and  C3_5
REMARK    2  A    between atoms: C3_5  and  C4_7
REMARK    3  A    between atoms: C4_7  and  N2_8
REMARK    4  A    between atoms: C4_7  and  C5_12
REMARK    5  A    between atoms: C5_12  and  C6_13
REMARK    6  A    between atoms: C9_20  and  N5_21
REMARK    7  A    between atoms: N8_31  and  C12_33
REMARK    8  A    between atoms: C12_33  and  C13_34
REMARK    9  A    between atoms: C13_34  and  C14_35
REMARK   10  A    between atoms: C14_35  and  N9_36
REMARK       I    between atoms: N9_36  and  C15_38
REMARK   11  A    between atoms: C15_38  and  C16_40
REMARK   12  A    between atoms: C19_43  and  C20_44
REMARK   13  A    between atoms: C20_44  and  N10_45
REMARK   14  A    between atoms: N10_45  and  C21_46
REMARK   15  A    between atoms: C22_49  and  N12_50
REMARK   16  A    between atoms: C24_56  and  N14_57
REMARK   17  A    between atoms: C27_60  and  N15_61
ROOT
HETATM    1  C13 UNL     1     -29.611  16.144 -13.171  1.00  0.00     0.039 C
ENDROOT
BRANCH   1   2
HETATM    2  C12 UNL     1     -30.799  16.717 -12.442  1.00  0.00     0.122 C
BRANCH   2   3
HETATM    3  N8  UNL     1     -30.506  16.866 -11.033  1.00  0.00    -0.380 N
ATOM      4  H8  UNL     1     -29.549  16.933 -10.687  1.00  0.00     0.160 HD
BRANCH   3   5
HETATM    5  C2  UNL     1     -31.639  16.913 -10.144  1.00  0.00     0.075 C
HETATM    6  C1  UNL     1     -32.482  18.128 -10.061  1.00  0.00     0.089 C
HETATM    7  N1  UNL     1     -31.885  15.877  -9.434  1.00  0.00    -0.315 N
HETATM    8  C3  UNL     1     -31.076  14.702  -9.507  1.00  0.00     0.254 C
ATOM      9  H1  UNL     1     -32.682  15.891  -8.797  1.00  0.00     0.170 HD
HETATM   10  O1  UNL     1     -29.834  14.880  -9.507  1.00  0.00    -0.271 OA
BRANCH   8  11
HETATM   11  C4  UNL     1     -31.610  13.331  -9.584  1.00  0.00     0.280 C
BRANCH  11  12
HETATM   12  N2  UNL     1     -32.248  13.025  -8.303  1.00  0.00    -0.066 N
ATOM     13  H23 UNL     1     -31.576  12.911  -7.544  1.00  0.00     0.275 HD
ATOM     14  H22 UNL     1     -32.756  13.819  -7.914  1.00  0.00     0.275 HD
ATOM     15  H21 UNL     1     -32.838  12.204  -8.436  1.00  0.00     0.275 HD
ENDBRANCH  11  12
BRANCH  11  16
HETATM   16  C5  UNL     1     -32.655  13.117 -10.633  1.00  0.00     0.101 C
BRANCH  16  17
HETATM   17  C6  UNL     1     -32.158  12.974 -12.003  1.00  0.00     0.028 A
HETATM   18  C7  UNL     1     -30.975  12.279 -12.240  1.00  0.00     0.114 A
HETATM   19  N3  UNL     1     -30.519  12.136 -13.492  1.00  0.00    -0.348 N
HETATM   20  C8  UNL     1     -31.175  12.649 -14.529  1.00  0.00     0.153 A
ATOM     21  H3  UNL     1     -29.651  11.624 -13.653  1.00  0.00     0.167 HD
HETATM   22  N4  UNL     1     -30.758  12.533 -15.810  1.00  0.00    -0.174 N
HETATM   23  C11 UNL     1     -32.352  13.343 -14.325  1.00  0.00     0.147 A
HETATM   24  C9  UNL     1     -31.433  13.056 -16.851  1.00  0.00     0.680 A
ATOM     25  H4  UNL     1     -29.892  12.028 -15.996  1.00  0.00     0.186 HD
HETATM   26  N6  UNL     1     -32.569  13.729 -16.671  1.00  0.00    -0.154 N
HETATM   27  C10 UNL     1     -33.025  13.873 -15.431  1.00  0.00     0.290 A
ATOM     28  H6  UNL     1     -33.074  14.124 -17.464  1.00  0.00     0.187 HD
HETATM   29  O2  UNL     1     -34.094  14.498 -15.192  1.00  0.00    -0.265 OA
HETATM   30  N7  UNL     1     -32.787  13.473 -13.080  1.00  0.00    -0.351 N
ATOM     31  H7  UNL     1     -33.655  13.986 -12.928  1.00  0.00     0.166 HD
BRANCH  24  32
HETATM   32  N5  UNL     1     -30.975  12.908 -18.053  1.00  0.00    -0.234 N
ATOM     33  H52 UNL     1     -31.541  12.410 -18.740  1.00  0.00     0.174 HD
ATOM     34  H51 UNL     1     -30.061  13.289 -18.297  1.00  0.00     0.174 HD
ENDBRANCH  24  32
ENDBRANCH  16  17
ENDBRANCH  11  16
ENDBRANCH   8  11
ENDBRANCH   3   5
ENDBRANCH   2   3
ENDBRANCH   1   2
BRANCH   1  35
HETATM   35  C14 UNL     1     -29.733  16.499 -14.628  1.00  0.00     0.124 C
BRANCH  35  36
HETATM   36  N9  UNL     1     -31.128  16.629 -15.063  1.00  0.00    -0.356 N
HETATM   37  C15 UNL     1     -31.513  17.565 -16.043  1.00  0.00     0.268 C
HETATM   38  O3  UNL     1     -30.673  18.325 -16.568  1.00  0.00    -0.266 OA
ATOM     39  H9  UNL     1     -31.837  16.025 -14.646  1.00  0.00     0.162 HD
BRANCH  37  40
HETATM   40  C16 UNL     1     -32.904  17.669 -16.469  1.00  0.00     0.100 A
HETATM   41  C17 UNL     1     -33.789  18.567 -15.936  1.00  0.00     0.036 A
HETATM   42  C18 UNL     1     -35.110  18.624 -16.361  1.00  0.00     0.017 A
HETATM   43  C19 UNL     1     -35.540  17.768 -17.330  1.00  0.00     0.008 A
HETATM   44  C28 UNL     1     -34.644  16.869 -17.861  1.00  0.00     0.102 A
HETATM   45  N17 UNL     1     -33.377  16.833 -17.436  1.00  0.00    -0.361 N
ATOM     46  H17 UNL     1     -32.740  16.153 -17.850  1.00  0.00     0.165 HD
BRANCH  43  47
HETATM   47  C20 UNL     1     -36.975  17.758 -17.841  1.00  0.00     0.197 C
BRANCH  47  48
HETATM   48  N10 UNL     1     -37.213  18.591 -18.853  1.00  0.00    -0.396 NA
BRANCH  48  49
HETATM   49  C21 UNL     1     -37.534  19.144 -19.865  1.00  0.00     0.223 A
HETATM   50  N11 UNL     1     -38.849  19.298 -20.242  1.00  0.00    -0.162 N
HETATM   51  C22 UNL     1     -39.213  19.919 -21.366  1.00  0.00     0.678 A
ATOM     52  H11 UNL     1     -39.577  18.920 -19.637  1.00  0.00     0.187 HD
HETATM   53  N13 UNL     1     -38.276  20.428 -22.183  1.00  0.00    -0.200 N
HETATM   54  C23 UNL     1     -36.961  20.336 -21.913  1.00  0.00     0.142 A
ATOM     55  H13 UNL     1     -38.571  20.899 -23.038  1.00  0.00     0.183 HD
HETATM   56  C24 UNL     1     -36.619  19.685 -20.742  1.00  0.00     0.130 A
BRANCH  51  57
HETATM   57  N12 UNL     1     -40.465  20.050 -21.702  1.00  0.00    -0.234 N
ATOM     58 2H12 UNL     1     -40.743  20.884 -22.219  1.00  0.00     0.174 HD
ATOM     59 1H12 UNL     1     -41.163  19.345 -21.462  1.00  0.00     0.174 HD
ENDBRANCH  51  57
BRANCH  56  60
HETATM   60  N14 UNL     1     -35.229  19.580 -20.432  1.00  0.00    -0.260 N
HETATM   61  C25 UNL     1     -34.420  18.750 -21.102  1.00  0.00     0.120 A
HETATM   62  C26 UNL     1     -33.170  18.885 -20.584  1.00  0.00     0.068 A
HETATM   63  C27 UNL     1     -33.264  19.823 -19.583  1.00  0.00     0.115 A
HETATM   64  N16 UNL     1     -34.537  20.220 -19.525  1.00  0.00    -0.279 N
ATOM     65  H16 UNL     1     -34.911  20.913 -18.876  1.00  0.00     0.189 HD
BRANCH  63  66
HETATM   66  N15 UNL     1     -32.269  20.241 -18.831  1.00  0.00    -0.384 N
ATOM     67 2H15 UNL     1     -31.833  21.163 -18.845  1.00  0.00     0.157 HD
ATOM     68 1H15 UNL     1     -31.789  19.687 -18.121  1.00  0.00     0.157 HD
ENDBRANCH  63  66
ENDBRANCH  56  60
ENDBRANCH  48  49
ENDBRANCH  47  48
ENDBRANCH  43  47
ENDBRANCH  37  40
ENDBRANCH  35  36
ENDBRANCH   1  35
TORSDOF 17
ENDMDL