MODEL 4
REMARK VINA RESULT: -7.913721718      3.601      4.258
REMARK  15 active torsions:
REMARK  status: ('A' for Active; 'I' for Inactive)
REMARK    1  A    between atoms: N1_2  and  C2_4
REMARK    2  A    between atoms: C6_8  and  S1_9
REMARK    3  A    between atoms: S1_9  and  N2_12
REMARK    4  A    between atoms: N2_12  and  C7_14
REMARK    5  A    between atoms: C10_17  and  N3_18
REMARK    6  A    between atoms: N3_18  and  C11_19
REMARK    7  A    between atoms: C13_25  and  N6_26
REMARK    8  A    between atoms: N6_26  and  C14_28
REMARK    9  A    between atoms: C14_28  and  C15_29
REMARK   10  A    between atoms: C15_29  and  N7_30
REMARK   11  A    between atoms: N11_42  and  C20_44
REMARK   12  A    between atoms: C20_44  and  C21_45
REMARK   13  A    between atoms: C21_45  and  N12_46
REMARK   14  A    between atoms: C24_52  and  N15_53
REMARK   15  A    between atoms: C25_58  and  N17_59
ROOT
HETATM    1  C11 UNL     1     -31.868  17.622 -17.116  1.00  0.00     0.227 C
HETATM    2  N4  UNL     1     -31.103  18.685 -17.539  1.00  0.00    -0.313 N
ATOM      3  H4  UNL     1     -30.239  18.859 -17.024  1.00  0.00     0.170 HD
HETATM    4  C12 UNL     1     -31.373  19.519 -18.558  1.00  0.00     0.141 A
HETATM    5  N5  UNL     1     -30.282  20.020 -19.142  1.00  0.00    -0.175 N
ATOM      6  H5  UNL     1     -29.359  19.768 -18.790  1.00  0.00     0.186 HD
HETATM    7  C13 UNL     1     -30.393  20.860 -20.196  1.00  0.00     0.681 A
HETATM    8  N10 UNL     1     -31.573  21.228 -20.702  1.00  0.00    -0.176 N
ATOM      9  H10 UNL     1     -31.607  21.865 -21.499  1.00  0.00     0.186 HD
HETATM   10  C19 UNL     1     -32.722  20.763 -20.167  1.00  0.00     0.138 A
HETATM   11  N11 UNL     1     -33.871  21.016 -20.562  1.00  0.00    -0.353 N
ATOM     12  H11 UNL     1     -34.555  20.537 -19.977  1.00  0.00     0.166 HD
HETATM   13  C23 UNL     1     -32.604  19.894 -19.076  1.00  0.00     0.097 A
HETATM   14  C24 UNL     1     -33.848  19.497 -18.621  1.00  0.00     0.118 C
HETATM   15  N16 UNL     1     -34.109  18.328 -17.996  1.00  0.00    -0.325 N
ATOM     16  H16 UNL     1     -35.040  17.936 -18.132  1.00  0.00     0.169 HD
HETATM   17  C25 UNL     1     -33.271  17.628 -17.214  1.00  0.00     0.160 C
ENDROOT
BRANCH   1  18
HETATM   18  N3  UNL     1     -31.375  16.653 -16.657  1.00  0.00    -0.364 NA
BRANCH  18  19
HETATM   19  C10 UNL     1     -30.758  15.601 -16.153  1.00  0.00     0.196 A
HETATM   20  C9  UNL     1     -31.119  14.292 -16.479  1.00  0.00     0.069 A
HETATM   21  C8  UNL     1     -30.436  13.238 -15.925  1.00  0.00     0.055 A
HETATM   22  C7  UNL     1     -29.397  13.420 -15.052  1.00  0.00     0.129 A
HETATM   23  N19 UNL     1     -29.110  14.731 -14.788  1.00  0.00    -0.283 N
HETATM   24  N18 UNL     1     -29.726  15.742 -15.287  1.00  0.00    -0.273 N
ATOM     25  H19 UNL     1     -28.344  14.921 -14.142  1.00  0.00     0.188 HD
ATOM     26  H18 UNL     1     -29.428  16.682 -15.022  1.00  0.00     0.189 HD
BRANCH  22  27
HETATM   27  N2  UNL     1     -28.632  12.394 -14.484  1.00  0.00    -0.265 N
ATOM     28  H2  UNL     1     -28.003  11.904 -15.119  1.00  0.00     0.180 HD
BRANCH  27  29
HETATM   29  S1  UNL     1     -28.618  11.864 -12.872  1.00  0.00     0.264 S
HETATM   30  O1  UNL     1     -29.736  10.883 -12.632  1.00  0.00    -0.200 OA
HETATM   31  O2  UNL     1     -28.812  13.078 -11.989  1.00  0.00    -0.200 OA
BRANCH  29  32
HETATM   32  C6  UNL     1     -27.134  11.070 -12.465  1.00  0.00     0.082 A
HETATM   33  C5  UNL     1     -27.169   9.783 -11.947  1.00  0.00     0.025 A
HETATM   34  C4  UNL     1     -26.027   9.123 -11.555  1.00  0.00     0.004 A
HETATM   35  C3  UNL     1     -24.829   9.783 -11.692  1.00  0.00     0.029 A
HETATM   36  C2  UNL     1     -24.774  11.053 -12.202  1.00  0.00     0.029 A
HETATM   37  C26 UNL     1     -25.935  11.699 -12.590  1.00  0.00     0.054 A
BRANCH  36  38
HETATM   38  N1  UNL     1     -23.533  11.713 -12.328  1.00  0.00    -0.394 N
HETATM   39  C1  UNL     1     -22.959  12.429 -11.199  1.00  0.00     0.146 C
ATOM     40  H1  UNL     1     -23.035  11.689 -13.218  1.00  0.00     0.159 HD
ENDBRANCH  36  38
ENDBRANCH  29  32
ENDBRANCH  27  29
ENDBRANCH  22  27
ENDBRANCH  18  19
ENDBRANCH   1  18
BRANCH  17  41
HETATM   41  N17 UNL     1     -33.865  16.829 -16.416  1.00  0.00    -0.381 N
ATOM     42 2H17 UNL     1     -33.268  16.078 -16.070  1.00  0.00     0.157 HD
ATOM     43 1H17 UNL     1     -34.845  17.051 -16.241  1.00  0.00     0.157 HD
ENDBRANCH  17  41
BRANCH  14  44
HETATM   44  N15 UNL     1     -34.803  20.322 -18.808  1.00  0.00    -0.385 N
ATOM     45 2H15 UNL     1     -34.743  21.248 -18.385  1.00  0.00     0.157 HD
ATOM     46 1H15 UNL     1     -35.572  19.992 -19.391  1.00  0.00     0.157 HD
ENDBRANCH  14  44
BRANCH   7  47
HETATM   47  N6  UNL     1     -29.319  21.337 -20.747  1.00  0.00    -0.224 N
ATOM     48  H6  UNL     1     -28.841  22.135 -20.329  1.00  0.00     0.177 HD
BRANCH  47  49
HETATM   49  C14 UNL     1     -28.808  20.744 -21.938  1.00  0.00     0.158 C
BRANCH  49  50
HETATM   50  C15 UNL     1     -27.546  19.961 -21.764  1.00  0.00     0.161 C
BRANCH  50  51
HETATM   51  N7  UNL     1     -26.464  20.643 -21.130  1.00  0.00    -0.215 N
HETATM   52  C16 UNL     1     -25.608  21.609 -21.831  1.00  0.00     0.161 C
HETATM   53  C17 UNL     1     -24.303  21.497 -21.114  1.00  0.00     0.158 C
HETATM   54  N8  UNL     1     -24.590  20.892 -19.840  1.00  0.00    -0.225 N
HETATM   55  C18 UNL     1     -25.977  20.596 -19.800  1.00  0.00     0.669 C
ATOM     56  H8  UNL     1     -23.916  20.709 -19.097  1.00  0.00     0.177 HD
HETATM   57  N9  UNL     1     -26.663  20.340 -18.737  1.00  0.00    -0.235 N
ATOM     58  H92 UNL     1     -27.660  20.127 -18.708  1.00  0.00     0.174 HD
ATOM     59  H91 UNL     1     -26.313  20.307 -17.780  1.00  0.00     0.174 HD
ENDBRANCH  50  51
ENDBRANCH  49  50
ENDBRANCH  47  49
ENDBRANCH   7  47
BRANCH  11  60
HETATM   60  C20 UNL     1     -34.521  21.747 -21.552  1.00  0.00     0.082 C
BRANCH  60  61
HETATM   61  C21 UNL     1     -35.477  21.145 -22.490  1.00  0.00     0.166 C
BRANCH  61  62
HETATM   62  N12 UNL     1     -36.862  21.110 -22.084  1.00  0.00    -0.362 N
HETATM   63  C22 UNL     1     -37.350  20.125 -21.422  1.00  0.00     0.197 C
HETATM   64  N13 UNL     1     -38.701  20.094 -21.028  1.00  0.00    -0.067 NA
HETATM   65  N14 UNL     1     -36.500  19.050 -21.085  1.00  0.00    -0.067 NA
ATOM     66  H12 UNL     1     -37.470  21.891 -22.330  1.00  0.00     0.162 HD
ENDBRANCH  61  62
ENDBRANCH  60  61
ENDBRANCH  11  60
TORSDOF 15
ENDMDL