MODEL 3
REMARK VINA RESULT: -7.170405214      1.379      1.839
REMARK  18 active torsions:
REMARK  status: ('A' for Active; 'I' for Inactive)
REMARK    1  A    between atoms: O1_2  and  C2_3
REMARK    2  A    between atoms: C5_6  and  N1_7
REMARK    3  A    between atoms: N1_7  and  C6_9
REMARK    4  A    between atoms: C7_12  and  N3_13
REMARK       I    between atoms: N3_13  and  C8_15
REMARK    5  A    between atoms: C8_15  and  C9_17
REMARK    6  A    between atoms: C9_17  and  C10_18
REMARK    7  A    between atoms: C9_17  and  N9_34
REMARK    8  A    between atoms: C10_18  and  C11_19
REMARK    9  A    between atoms: C12_22  and  N5_23
REMARK   10  A    between atoms: C13_28  and  N7_29
REMARK       I    between atoms: N9_34  and  C14_36
REMARK   11  A    between atoms: C14_36  and  C15_38
REMARK   12  A    between atoms: C15_38  and  C16_39
REMARK   13  A    between atoms: C16_39  and  N10_40
REMARK       I    between atoms: N10_40  and  C17_42
REMARK   14  A    between atoms: C17_42  and  C18_44
REMARK   15  A    between atoms: C18_44  and  O5_47
REMARK   16  A    between atoms: C21_51  and  N12_52
REMARK   17  A    between atoms: N12_52  and  C22_54
REMARK   18  A    between atoms: C24_58  and  N14_59
ROOT
HETATM    1  N3  UNL     1     -29.166  15.259 -14.459  1.00  0.00    -0.157 N
ATOM      2  H3  UNL     1     -28.761  15.571 -13.577  1.00  0.00     0.187 HD
HETATM    3  C8  UNL     1     -29.503  16.240 -15.424  1.00  0.00     0.259 C
HETATM    4  O2  UNL     1     -28.870  16.354 -16.504  1.00  0.00    -0.270 OA
ENDROOT
BRANCH   1   5
HETATM    5  C7  UNL     1     -29.340  14.018 -14.633  1.00  0.00     0.714 A
HETATM    6  N2  UNL     1     -30.215  13.544 -15.568  1.00  0.00    -0.021 N
HETATM    7  C6  UNL     1     -30.404  12.235 -15.758  1.00  0.00     0.711 A
ATOM      8  H2  UNL     1     -30.739  14.208 -16.138  1.00  0.00     0.203 HD
HETATM    9  N16 UNL     1     -29.749  11.315 -15.046  1.00  0.00    -0.021 N
HETATM   10  C21 UNL     1     -28.869  11.771 -14.106  1.00  0.00     0.712 A
ATOM     11  H16 UNL     1     -29.899  10.318 -15.198  1.00  0.00     0.203 HD
HETATM   12  N11 UNL     1     -28.682  13.089 -13.918  1.00  0.00    -0.021 N
ATOM     13  H11 UNL     1     -28.017  13.395 -13.207  1.00  0.00     0.203 HD
BRANCH   7  14
HETATM   14  N1  UNL     1     -31.230  11.838 -16.669  1.00  0.00    -0.191 N
ATOM     15  H1  UNL     1     -31.041  10.975 -17.178  1.00  0.00     0.184 HD
BRANCH  14  16
HETATM   16  C5  UNL     1     -32.402  12.590 -16.973  1.00  0.00     0.049 A
HETATM   17  C4  UNL     1     -33.534  12.540 -16.197  1.00  0.00     0.033 A
HETATM   18  C3  UNL     1     -34.669  13.304 -16.525  1.00  0.00     0.039 A
HETATM   19  C2  UNL     1     -34.649  14.107 -17.631  1.00  0.00     0.068 A
HETATM   20  C27 UNL     1     -33.502  14.150 -18.409  1.00  0.00     0.039 A
HETATM   21  C26 UNL     1     -32.382  13.408 -18.100  1.00  0.00     0.033 A
BRANCH  19  22
HETATM   22  O1  UNL     1     -35.744  14.882 -18.002  1.00  0.00    -0.356 OA
HETATM   23  C1  UNL     1     -35.649  15.780 -19.104  1.00  0.00     0.210 C
ENDBRANCH  19  22
ENDBRANCH  14  16
ENDBRANCH   7  14
BRANCH  10  24
HETATM   24  N12 UNL     1     -28.212  10.901 -13.397  1.00  0.00    -0.188 N
ATOM     25  H12 UNL     1     -28.668  10.031 -13.126  1.00  0.00     0.184 HD
BRANCH  24  26
HETATM   26  C22 UNL     1     -26.867  11.139 -12.992  1.00  0.00     0.081 A
HETATM   27  C23 UNL     1     -26.618  11.159 -11.628  1.00  0.00     0.137 A
HETATM   28  N13 UNL     1     -25.384  11.379 -11.198  1.00  0.00    -0.200 N
HETATM   29  C24 UNL     1     -24.329  11.590 -12.023  1.00  0.00     0.675 A
ATOM     30  H13 UNL     1     -25.219  11.390 -10.192  1.00  0.00     0.183 HD
HETATM   31  N15 UNL     1     -24.599  11.566 -13.339  1.00  0.00    -0.200 N
HETATM   32  C25 UNL     1     -25.825  11.349 -13.848  1.00  0.00     0.137 A
ATOM     33  H15 UNL     1     -23.829  11.721 -13.990  1.00  0.00     0.183 HD
BRANCH  29  34
HETATM   34  N14 UNL     1     -23.135  11.800 -11.547  1.00  0.00    -0.234 N
ATOM     35 2H14 UNL     1     -22.507  11.047 -11.268  1.00  0.00     0.174 HD
ATOM     36 1H14 UNL     1     -22.775  12.747 -11.429  1.00  0.00     0.174 HD
ENDBRANCH  29  34
ENDBRANCH  24  26
ENDBRANCH  10  24
ENDBRANCH   1   5
BRANCH   3  37
HETATM   37  C9  UNL     1     -30.635  17.182 -15.179  1.00  0.00     0.184 C
BRANCH  37  38
HETATM   38  C10 UNL     1     -31.632  16.923 -16.288  1.00  0.00     0.112 C
BRANCH  38  39
HETATM   39  C11 UNL     1     -32.901  17.621 -16.146  1.00  0.00     0.116 A
HETATM   40  N4  UNL     1     -32.999  18.954 -16.251  1.00  0.00    -0.180 N
HETATM   41  C12 UNL     1     -34.189  19.595 -16.123  1.00  0.00     0.691 A
ATOM     42  H4  UNL     1     -32.157  19.501 -16.431  1.00  0.00     0.185 HD
HETATM   43  N6  UNL     1     -35.308  18.863 -15.882  1.00  0.00    -0.023 N
HETATM   44  C13 UNL     1     -35.227  17.538 -15.775  1.00  0.00     0.691 A
ATOM     45  H6  UNL     1     -36.210  19.329 -15.784  1.00  0.00     0.203 HD
HETATM   46  N8  UNL     1     -34.029  16.934 -15.908  1.00  0.00    -0.180 N
ATOM     47  H8  UNL     1     -33.978  15.919 -15.824  1.00  0.00     0.185 HD
BRANCH  41  48
HETATM   48  N5  UNL     1     -34.300  20.862 -16.218  1.00  0.00    -0.234 N
ATOM     49  H52 UNL     1     -34.962  21.242 -16.895  1.00  0.00     0.174 HD
ATOM     50  H51 UNL     1     -33.757  21.505 -15.643  1.00  0.00     0.174 HD
ENDBRANCH  41  48
BRANCH  44  51
HETATM   51  N7  UNL     1     -36.283  16.821 -15.547  1.00  0.00    -0.234 N
ATOM     52  H72 UNL     1     -36.775  16.919 -14.659  1.00  0.00     0.174 HD
ATOM     53  H71 UNL     1     -36.628  16.159 -16.242  1.00  0.00     0.174 HD
ENDBRANCH  44  51
ENDBRANCH  38  39
ENDBRANCH  37  38
BRANCH  37  54
HETATM   54  N9  UNL     1     -31.146  17.007 -13.862  1.00  0.00    -0.347 N
HETATM   55  C14 UNL     1     -31.189  18.009 -12.872  1.00  0.00     0.219 C
HETATM   56  O3  UNL     1     -30.746  19.148 -13.131  1.00  0.00    -0.274 OA
ATOM     57  H9  UNL     1     -31.509  16.085 -13.616  1.00  0.00     0.163 HD
BRANCH  55  58
HETATM   58  C15 UNL     1     -31.755  17.716 -11.542  1.00  0.00     0.122 C
BRANCH  58  59
HETATM   59  C16 UNL     1     -30.880  16.786 -10.743  1.00  0.00     0.132 C
BRANCH  59  60
HETATM   60  N10 UNL     1     -31.398  15.448 -10.858  1.00  0.00    -0.358 N
HETATM   61  C17 UNL     1     -30.615  14.297 -11.089  1.00  0.00     0.251 C
HETATM   62  O4  UNL     1     -29.373  14.308 -11.212  1.00  0.00    -0.270 OA
ATOM     63  H10 UNL     1     -32.406  15.322 -10.766  1.00  0.00     0.162 HD
BRANCH  61  64
HETATM   64  C18 UNL     1     -31.328  12.984 -11.191  1.00  0.00     0.131 C
HETATM   65  C19 UNL     1     -32.152  13.054 -12.473  1.00  0.00     0.056 C
HETATM   66  C20 UNL     1     -32.236  12.839 -10.005  1.00  0.00     0.056 C
BRANCH  64  67
HETATM   67  O5  UNL     1     -30.431  11.941 -11.344  1.00  0.00    -0.381 OA
ATOM     68  H5  UNL     1     -29.767  11.958 -10.663  1.00  0.00     0.211 HD
ENDBRANCH  64  67
ENDBRANCH  61  64
ENDBRANCH  59  60
ENDBRANCH  58  59
ENDBRANCH  55  58
ENDBRANCH  37  54
ENDBRANCH   3  37
TORSDOF 18
ENDMDL