MODEL 4
REMARK VINA RESULT: -6.860900907      3.516     10.118
REMARK  20 active torsions:
REMARK  status: ('A' for Active; 'I' for Inactive)
REMARK    1  A    between atoms: N1_2  and  C2_4
REMARK    2  A    between atoms: C3_7  and  N3_8
REMARK    3  A    between atoms: N3_8  and  C4_10
REMARK       I    between atoms: N4_13  and  C7_15
REMARK    4  A    between atoms: C7_15  and  C8_17
REMARK    5  A    between atoms: C8_17  and  O2_18
REMARK    6  A    between atoms: C9_22  and  N6_23
REMARK    7  A    between atoms: N6_23  and  C10_25
REMARK    8  A    between atoms: C14_31  and  N8_32
REMARK    9  A    between atoms: C15_41  and  N12_42
REMARK   10  A    between atoms: N12_42  and  C16_44
REMARK   11  A    between atoms: C16_44  and  C17_45
REMARK   12  A    between atoms: C16_44  and  C21_55
REMARK   13  A    between atoms: C17_45  and  C18_46
REMARK   14  A    between atoms: C20_49  and  N13_50
REMARK       I    between atoms: C21_55  and  N15_57
REMARK   15  A    between atoms: N15_57  and  C22_58
REMARK   16  A    between atoms: C22_58  and  C23_59
REMARK   17  A    between atoms: C23_59  and  C24_60
REMARK   18  A    between atoms: C24_60  and  C25_61
REMARK   19  A    between atoms: C25_61  and  C26_62
REMARK   20  A    between atoms: C26_62  and  N16_63
ROOT
HETATM    1  C2  UNL     1     -32.588  15.281 -17.180  1.00  0.00     0.706 A
HETATM    2  N2  UNL     1     -31.431  15.109 -16.520  1.00  0.00    -0.021 N
ATOM      3  H2  UNL     1     -30.758  14.416 -16.848  1.00  0.00     0.203 HD
HETATM    4  C3  UNL     1     -31.155  15.845 -15.430  1.00  0.00     0.713 A
HETATM    5  N11 UNL     1     -32.053  16.752 -15.011  1.00  0.00    -0.021 N
ATOM      6  H11 UNL     1     -31.840  17.309 -14.183  1.00  0.00     0.203 HD
HETATM    7  C15 UNL     1     -33.226  16.955 -15.645  1.00  0.00     0.708 A
HETATM    8  N17 UNL     1     -33.482  16.210 -16.731  1.00  0.00    -0.022 N
ATOM      9  H17 UNL     1     -34.361  16.340 -17.231  1.00  0.00     0.203 HD
ENDROOT
BRANCH   4  10
HETATM   10  N3  UNL     1     -30.078  15.693 -14.751  1.00  0.00    -0.175 N
ATOM     11  H3  UNL     1     -29.406  16.461 -14.739  1.00  0.00     0.186 HD
BRANCH  10  12
HETATM   12  C4  UNL     1     -29.766  14.527 -14.017  1.00  0.00     0.140 A
HETATM   13  C5  UNL     1     -30.510  14.207 -12.908  1.00  0.00     0.098 A
HETATM   14  C6  UNL     1     -30.216  13.074 -12.187  1.00  0.00     0.127 A
HETATM   15  N4  UNL     1     -30.849  12.703 -11.144  1.00  0.00    -0.311 N
HETATM   16  N5  UNL     1     -29.179  12.285 -12.601  1.00  0.00    -0.176 N
HETATM   17  C7  UNL     1     -31.932  13.461 -10.643  1.00  0.00     0.246 C
ATOM     18  H4  UNL     1     -30.570  11.848 -10.664  1.00  0.00     0.170 HD
HETATM   19  O1  UNL     1     -33.113  13.147 -10.940  1.00  0.00    -0.271 OA
HETATM   20  C9  UNL     1     -28.453  12.592 -13.679  1.00  0.00     0.687 A
ATOM     21  H5  UNL     1     -28.954  11.441 -12.074  1.00  0.00     0.186 HD
HETATM   22  N10 UNL     1     -28.756  13.699 -14.364  1.00  0.00    -0.176 N
ATOM     23  H10 UNL     1     -28.200  13.929 -15.187  1.00  0.00     0.186 HD
BRANCH  17  24
HETATM   24  C8  UNL     1     -31.733  14.641  -9.757  1.00  0.00     0.267 C
BRANCH  24  25
HETATM   25  O2  UNL     1     -30.959  14.288  -8.660  1.00  0.00    -0.392 OA
ATOM     26  H2  UNL     1     -31.455  14.406  -7.859  1.00  0.00     0.210 HD
ENDBRANCH  24  25
ENDBRANCH  17  24
BRANCH  20  27
HETATM   27  N6  UNL     1     -27.396  11.776 -14.079  1.00  0.00    -0.176 N
ATOM     28  H6  UNL     1     -27.288  11.610 -15.080  1.00  0.00     0.186 HD
BRANCH  27  29
HETATM   29  C10 UNL     1     -26.544  11.213 -13.297  1.00  0.00     0.138 A
HETATM   30  C11 UNL     1     -26.566   9.873 -12.963  1.00  0.00     0.074 A
HETATM   31  C12 UNL     1     -25.617   9.373 -12.117  1.00  0.00     0.026 A
HETATM   32  C13 UNL     1     -25.597   7.939 -11.731  1.00  0.00     0.069 C
HETATM   33  N7  UNL     1     -24.673  10.221 -11.626  1.00  0.00    -0.196 N
HETATM   34  C14 UNL     1     -24.625  11.522 -11.927  1.00  0.00     0.677 A
ATOM     35  H7  UNL     1     -23.966   9.844 -10.994  1.00  0.00     0.184 HD
HETATM   36  N9  UNL     1     -25.585  11.988 -12.773  1.00  0.00    -0.176 N
ATOM     37  H9  UNL     1     -25.573  12.978 -13.021  1.00  0.00     0.186 HD
BRANCH  34  38
HETATM   38  N8  UNL     1     -23.712  12.325 -11.443  1.00  0.00    -0.234 N
ATOM     39  H82 UNL     1     -23.815  12.730 -10.512  1.00  0.00     0.174 HD
ATOM     40  H81 UNL     1     -22.870  12.578 -11.960  1.00  0.00     0.174 HD
ENDBRANCH  34  38
ENDBRANCH  27  29
ENDBRANCH  20  27
ENDBRANCH  10  12
ENDBRANCH   4  10
BRANCH   1  41
HETATM   41  N1  UNL     1     -32.875  14.591 -18.225  1.00  0.00    -0.229 N
HETATM   42  C1  UNL     1     -32.242  13.302 -18.387  1.00  0.00     0.165 C
ATOM     43  H1  UNL     1     -33.533  14.942 -18.921  1.00  0.00     0.177 HD
ENDBRANCH   1  41
BRANCH   7  44
HETATM   44  N12 UNL     1     -34.090  17.815 -15.239  1.00  0.00    -0.210 N
ATOM     45  H12 UNL     1     -33.820  18.447 -14.484  1.00  0.00     0.178 HD
BRANCH  44  46
HETATM   46  C16 UNL     1     -35.437  17.945 -15.793  1.00  0.00     0.212 C
BRANCH  46  47
HETATM   47  C17 UNL     1     -35.829  19.364 -15.890  1.00  0.00     0.094 C
BRANCH  47  48
HETATM   48  C18 UNL     1     -34.992  20.121 -16.916  1.00  0.00     0.020 A
HETATM   49  C19 UNL     1     -34.296  21.263 -16.625  1.00  0.00     0.078 A
HETATM   50  S1  UNL     1     -33.510  21.601 -18.102  1.00  0.00    -0.064 SA
HETATM   51  C20 UNL     1     -34.104  20.288 -18.998  1.00  0.00     0.142 A
HETATM   52  N14 UNL     1     -34.873  19.644 -18.145  1.00  0.00    -0.340 N
ATOM     53  H14 UNL     1     -35.367  18.796 -18.424  1.00  0.00     0.167 HD
BRANCH  51  54
HETATM   54  N13 UNL     1     -33.838  19.997 -20.252  1.00  0.00    -0.380 N
ATOM     55 2H13 UNL     1     -32.971  19.645 -20.657  1.00  0.00     0.158 HD
ATOM     56 1H13 UNL     1     -34.466  20.080 -21.051  1.00  0.00     0.158 HD
ENDBRANCH  51  54
ENDBRANCH  47  48
ENDBRANCH  46  47
BRANCH  46  57
HETATM   57  C21 UNL     1     -36.295  17.404 -14.598  1.00  0.00     0.314 C
HETATM   58  O3  UNL     1     -36.789  18.402 -13.974  1.00  0.00    -0.255 OA
HETATM   59  N15 UNL     1     -36.406  16.090 -14.380  1.00  0.00    -0.386 NA
BRANCH  59  60
HETATM   60  C22 UNL     1     -36.523  14.711 -14.149  1.00  0.00     0.159 C
BRANCH  60  61
HETATM   61  C23 UNL     1     -35.530  13.890 -14.889  1.00  0.00     0.060 C
BRANCH  61  62
HETATM   62  C24 UNL     1     -34.231  13.664 -14.262  1.00  0.00     0.008 C
BRANCH  62  63
HETATM   63  C25 UNL     1     -33.332  12.563 -14.633  1.00  0.00     0.027 C
BRANCH  63  64
HETATM   64  C26 UNL     1     -33.650  11.166 -14.270  1.00  0.00     0.229 C
BRANCH  64  65
HETATM   65  N16 UNL     1     -33.088  10.825 -12.983  1.00  0.00    -0.079 N
ATOM     66 3H16 UNL     1     -32.902  11.656 -12.422  1.00  0.00     0.274 HD
ATOM     67 2H16 UNL     1     -33.777  10.380 -12.377  1.00  0.00     0.274 HD
ATOM     68 1H16 UNL     1     -32.253  10.249 -13.091  1.00  0.00     0.274 HD
ENDBRANCH  64  65
ENDBRANCH  63  64
ENDBRANCH  62  63
ENDBRANCH  61  62
ENDBRANCH  60  61
ENDBRANCH  59  60
ENDBRANCH  46  57
ENDBRANCH  44  46
ENDBRANCH   7  44
TORSDOF 20
ENDMDL