MODEL 2
REMARK VINA RESULT: -7.976995846      2.916      8.098
REMARK  15 active torsions:
REMARK  status: ('A' for Active; 'I' for Inactive)
REMARK    1  A    between atoms: C3_4  and  O1_5
REMARK    2  A    between atoms: O1_5  and  C4_6
REMARK    3  A    between atoms: C4_6  and  C5_7
REMARK    4  A    between atoms: N2_8  and  C6_10
REMARK    5  A    between atoms: C7_13  and  N4_14
REMARK    6  A    between atoms: C10_28  and  N9_29
REMARK    7  A    between atoms: C13_32  and  N10_33
REMARK       I    between atoms: N10_33  and  C14_35
REMARK       I    between atoms: C14_35  and  N11_37
REMARK    8  A    between atoms: N11_37  and  C15_39
REMARK    9  A    between atoms: C15_39  and  C16_40
REMARK   10  A    between atoms: C16_40  and  N12_41
REMARK   11  A    between atoms: N12_41  and  C17_43
REMARK   12  A    between atoms: C20_48  and  N14_49
REMARK   13  A    between atoms: N14_49  and  N15_51
REMARK   14  A    between atoms: N15_51  and  C21_53
REMARK   15  A    between atoms: C21_53  and  C22_54
ROOT
HETATM    1  N1  UNL     1     -31.035  19.428 -13.125  1.00  0.00    -0.191 NA
HETATM    2  C1  UNL     1     -31.038  18.305 -13.329  1.00  0.00     0.106 C
HETATM    3  C2  UNL     1     -31.067  16.900 -13.565  1.00  0.00     0.124 A
HETATM    4  C3  UNL     1     -30.981  16.271 -14.772  1.00  0.00     0.166 A
HETATM    5  N8  UNL     1     -31.074  14.906 -14.532  1.00  0.00    -0.332 N
ATOM      6  H8  UNL     1     -31.040  14.187 -15.254  1.00  0.00     0.168 HD
HETATM    7  C9  UNL     1     -31.215  14.665 -13.230  1.00  0.00     0.089 A
HETATM    8  C10 UNL     1     -31.352  13.477 -12.514  1.00  0.00     0.061 A
HETATM    9  C25 UNL     1     -31.481  13.618 -11.153  1.00  0.00     0.049 A
HETATM   10  C26 UNL     1     -31.473  14.876 -10.543  1.00  0.00     0.090 A
HETATM   11  N18 UNL     1     -31.338  15.985 -11.296  1.00  0.00    -0.363 N
ATOM     12  H18 UNL     1     -31.333  16.903 -10.852  1.00  0.00     0.165 HD
HETATM   13  C27 UNL     1     -31.211  15.886 -12.618  1.00  0.00     0.086 A
ENDROOT
BRANCH   4  14
HETATM   14  O1  UNL     1     -30.831  16.724 -16.058  1.00  0.00    -0.329 OA
BRANCH  14  15
HETATM   15  C4  UNL     1     -30.042  17.768 -16.504  1.00  0.00     0.222 C
BRANCH  15  16
HETATM   16  C5  UNL     1     -28.622  17.460 -16.787  1.00  0.00     0.105 C
HETATM   17  N2  UNL     1     -27.907  18.327 -17.557  1.00  0.00    -0.202 N
ATOM     18  H2  UNL     1     -26.921  18.119 -17.402  1.00  0.00     0.183 HD
BRANCH  17  19
HETATM   19  C6  UNL     1     -27.957  19.259 -18.365  1.00  0.00     0.711 A
HETATM   20  N3  UNL     1     -26.807  20.000 -18.555  1.00  0.00    -0.021 N
HETATM   21  C7  UNL     1     -26.700  21.020 -19.372  1.00  0.00     0.705 A
ATOM     22  H3  UNL     1     -25.979  19.734 -18.022  1.00  0.00     0.203 HD
HETATM   23  N5  UNL     1     -27.789  21.389 -20.090  1.00  0.00    -0.022 N
HETATM   24  C8  UNL     1     -28.940  20.729 -19.967  1.00  0.00     0.705 A
ATOM     25  H5  UNL     1     -27.727  22.180 -20.731  1.00  0.00     0.203 HD
HETATM   26  N6  UNL     1     -30.027  21.027 -20.624  1.00  0.00    -0.234 N
HETATM   27  N7  UNL     1     -29.002  19.668 -19.099  1.00  0.00    -0.021 N
ATOM     28  H62 UNL     1     -29.981  21.815 -21.270  1.00  0.00     0.174 HD
ATOM     29  H61 UNL     1     -30.908  20.521 -20.530  1.00  0.00     0.174 HD
ATOM     30  H7  UNL     1     -29.886  19.166 -19.008  1.00  0.00     0.203 HD
BRANCH  21  31
HETATM   31  N4  UNL     1     -25.603  21.711 -19.542  1.00  0.00    -0.234 N
ATOM     32  H42 UNL     1     -24.794  21.456 -18.975  1.00  0.00     0.174 HD
ATOM     33  H41 UNL     1     -25.509  22.483 -20.202  1.00  0.00     0.174 HD
ENDBRANCH  21  31
ENDBRANCH  17  19
ENDBRANCH  15  16
ENDBRANCH  14  15
ENDBRANCH   4  14
BRANCH   8  34
HETATM   34  N9  UNL     1     -31.355  12.219 -13.162  1.00  0.00    -0.379 N
HETATM   35  C11 UNL     1     -30.143  11.714 -13.765  1.00  0.00     0.125 C
HETATM   36  C12 UNL     1     -30.333  11.537 -15.242  1.00  0.00     0.045 C
HETATM   37  C13 UNL     1     -31.708  11.032 -15.591  1.00  0.00     0.089 C
HETATM   38  C23 UNL     1     -32.299  10.378 -14.367  1.00  0.00     0.045 C
HETATM   39  C24 UNL     1     -32.545  11.389 -13.259  1.00  0.00     0.125 C
BRANCH  37  40
HETATM   40  N10 UNL     1     -32.562  12.079 -16.077  1.00  0.00    -0.338 N
HETATM   41  C14 UNL     1     -32.292  12.826 -17.280  1.00  0.00     0.316 C
HETATM   42  O2  UNL     1     -31.275  12.555 -17.947  1.00  0.00    -0.247 OA
HETATM   43  N11 UNL     1     -33.163  13.844 -17.686  1.00  0.00    -0.342 N
ATOM     44  H11 UNL     1     -33.978  14.033 -17.101  1.00  0.00     0.164 HD
ATOM     45  H10 UNL     1     -33.401  12.306 -15.545  1.00  0.00     0.164 HD
BRANCH  43  46
HETATM   46  C15 UNL     1     -32.993  14.630 -18.853  1.00  0.00     0.144 C
BRANCH  46  47
HETATM   47  C16 UNL     1     -33.418  16.056 -18.605  1.00  0.00     0.157 C
BRANCH  47  48
HETATM   48  N12 UNL     1     -33.526  16.263 -17.170  1.00  0.00    -0.224 N
ATOM     49  H12 UNL     1     -32.963  15.707 -16.526  1.00  0.00     0.177 HD
BRANCH  48  50
HETATM   50  C17 UNL     1     -34.334  17.147 -16.723  1.00  0.00     0.679 A
HETATM   51  N13 UNL     1     -35.194  16.813 -15.739  1.00  0.00    -0.202 N
HETATM   52  C18 UNL     1     -36.074  17.668 -15.209  1.00  0.00     0.110 A
ATOM     53  H13 UNL     1     -35.172  15.858 -15.380  1.00  0.00     0.183 HD
HETATM   54  C19 UNL     1     -36.098  18.959 -15.701  1.00  0.00     0.068 A
HETATM   55  C20 UNL     1     -35.218  19.286 -16.701  1.00  0.00     0.136 A
HETATM   56  N17 UNL     1     -34.346  18.384 -17.204  1.00  0.00    -0.175 N
ATOM     57  H17 UNL     1     -33.701  18.652 -17.948  1.00  0.00     0.186 HD
BRANCH  55  58
HETATM   58  N14 UNL     1     -35.237  20.511 -17.169  1.00  0.00    -0.289 N
ATOM     59  H14 UNL     1     -35.932  20.769 -17.869  1.00  0.00     0.188 HD
BRANCH  58  60
HETATM   60  N15 UNL     1     -34.325  21.464 -16.726  1.00  0.00    -0.326 N
ATOM     61  H15 UNL     1     -34.220  21.620 -15.724  1.00  0.00     0.180 HD
BRANCH  60  62
HETATM   62  C21 UNL     1     -33.521  22.241 -17.645  1.00  0.00     0.238 C
BRANCH  62  63
HETATM   63  C22 UNL     1     -32.851  21.359 -18.614  1.00  0.00     0.250 C
HETATM   64  N16 UNL     1     -32.087  20.215 -18.283  1.00  0.00    -0.061 NA
HETATM   65  O3  UNL     1     -32.956  21.632 -19.857  1.00  0.00    -0.275 OA
ENDBRANCH  62  63
ENDBRANCH  60  62
ENDBRANCH  58  60
ENDBRANCH  55  58
ENDBRANCH  48  50
ENDBRANCH  47  48
ENDBRANCH  46  47
ENDBRANCH  43  46
ENDBRANCH  37  40
ENDBRANCH   8  34
TORSDOF 15
ENDMDL