MODEL 1
REMARK VINA RESULT: -8.515841945      0.000      0.000
REMARK  16 active torsions:
REMARK  status: ('A' for Active; 'I' for Inactive)
REMARK       I    between atoms: N1_2  and  C2_4
REMARK       I    between atoms: C2_4  and  N2_6
REMARK    1  A    between atoms: N2_6  and  C3_8
REMARK    2  A    between atoms: C3_8  and  O2_9
REMARK    3  A    between atoms: C3_8  and  C4_11
REMARK    4  A    between atoms: C6_15  and  N4_16
REMARK    5  A    between atoms: C7_21  and  C8_22
REMARK    6  A    between atoms: C9_25  and  N7_26
REMARK    7  A    between atoms: C10_31  and  N9_32
REMARK    8  A    between atoms: N12_40  and  C12_41
REMARK    9  A    between atoms: C12_41  and  C13_42
REMARK       I    between atoms: C13_42  and  N13_44
REMARK   10  A    between atoms: N13_44  and  C14_46
REMARK   11  A    between atoms: C14_46  and  C15_47
REMARK   12  A    between atoms: C14_46  and  C23_55
REMARK   13  A    between atoms: C15_47  and  C16_48
REMARK   14  A    between atoms: C16_48  and  C17_49
REMARK       I    between atoms: C23_55  and  N14_57
REMARK   15  A    between atoms: N14_57  and  C24_58
REMARK   16  A    between atoms: C24_58  and  C25_59
ROOT
HETATM    1  C4  UNL     1     -35.133  19.653 -20.055  1.00  0.00     0.136 A
HETATM    2  N3  UNL     1     -34.840  20.647 -20.938  1.00  0.00    -0.336 N
ATOM      3  H3  UNL     1     -35.522  21.226 -21.428  1.00  0.00     0.167 HD
HETATM    4  C5  UNL     1     -33.521  20.740 -21.055  1.00  0.00     0.122 A
HETATM    5  C6  UNL     1     -32.698  21.566 -21.786  1.00  0.00     0.131 A
HETATM    6  N5  UNL     1     -31.383  21.424 -21.679  1.00  0.00    -0.324 N
ATOM      7  H5  UNL     1     -30.776  22.039 -22.222  1.00  0.00     0.169 HD
HETATM    8  C7  UNL     1     -30.824  20.500 -20.881  1.00  0.00     0.154 A
HETATM    9  N11 UNL     1     -31.634  19.708 -20.183  1.00  0.00    -0.323 N
ATOM     10  H11 UNL     1     -31.218  19.002 -19.575  1.00  0.00     0.169 HD
HETATM   11  C11 UNL     1     -32.955  19.792 -20.240  1.00  0.00     0.142 A
HETATM   12  N12 UNL     1     -33.976  19.122 -19.627  1.00  0.00    -0.308 N
ENDROOT
BRANCH  12  13
HETATM   13  C12 UNL     1     -33.769  18.008 -18.741  1.00  0.00     0.234 C
BRANCH  13  14
HETATM   14  C13 UNL     1     -32.886  18.384 -17.596  1.00  0.00     0.236 C
HETATM   15  O3  UNL     1     -32.928  19.562 -17.216  1.00  0.00    -0.272 OA
HETATM   16  N13 UNL     1     -32.045  17.424 -16.991  1.00  0.00    -0.345 N
ATOM     17  H13 UNL     1     -32.042  16.470 -17.353  1.00  0.00     0.163 HD
BRANCH  16  18
HETATM   18  C14 UNL     1     -31.176  17.758 -15.856  1.00  0.00     0.192 C
BRANCH  18  19
HETATM   19  C15 UNL     1     -31.679  17.318 -14.551  1.00  0.00     0.041 C
BRANCH  19  20
HETATM   20  C16 UNL     1     -31.083  18.015 -13.357  1.00  0.00     0.041 C
BRANCH  20  21
HETATM   21  C17 UNL     1     -31.042  17.203 -12.149  1.00  0.00    -0.058 A
HETATM   22  C18 UNL     1     -31.828  17.604 -11.056  1.00  0.00     0.007 A
HETATM   23  C19 UNL     1     -31.783  16.833  -9.909  1.00  0.00     0.001 A
HETATM   24  C20 UNL     1     -31.010  15.696  -9.787  1.00  0.00     0.000 A
HETATM   25  C21 UNL     1     -30.229  15.298 -10.875  1.00  0.00     0.001 A
HETATM   26  C22 UNL     1     -30.279  16.083 -12.031  1.00  0.00     0.007 A
ENDBRANCH  20  21
ENDBRANCH  19  20
ENDBRANCH  18  19
BRANCH  18  27
HETATM   27  C23 UNL     1     -29.815  17.354 -16.255  1.00  0.00     0.313 C
HETATM   28  O4  UNL     1     -29.210  18.086 -17.056  1.00  0.00    -0.255 OA
HETATM   29  N14 UNL     1     -29.170  16.143 -15.734  1.00  0.00    -0.386 NA
BRANCH  29  30
HETATM   30  C24 UNL     1     -28.614  15.118 -15.297  1.00  0.00     0.165 C
BRANCH  30  31
HETATM   31  C25 UNL     1     -29.370  13.779 -15.490  1.00  0.00     0.064 C
HETATM   32  C26 UNL     1     -30.192  13.478 -14.241  1.00  0.00     0.014 C
HETATM   33  C27 UNL     1     -31.047  12.245 -14.497  1.00  0.00     0.028 C
HETATM   34  C28 UNL     1     -30.837  11.755 -15.916  1.00  0.00     0.232 C
HETATM   35  N15 UNL     1     -31.041  12.751 -16.896  1.00  0.00    -0.074 N
HETATM   36  C29 UNL     1     -30.360  13.973 -16.597  1.00  0.00     0.243 C
ATOM     37 2H15 UNL     1     -30.787  12.409 -17.822  1.00  0.00     0.277 HD
ATOM     38 1H15 UNL     1     -32.036  12.916 -17.046  1.00  0.00     0.277 HD
ENDBRANCH  30  31
ENDBRANCH  29  30
ENDBRANCH  18  27
ENDBRANCH  16  18
ENDBRANCH  13  14
ENDBRANCH  12  13
BRANCH   1  39
HETATM   39  C3  UNL     1     -36.504  19.318 -19.693  1.00  0.00     0.290 C
BRANCH  39  40
HETATM   40  N2  UNL     1     -37.511  19.926 -20.546  1.00  0.00    -0.310 N
HETATM   41  C2  UNL     1     -38.808  19.365 -20.660  1.00  0.00     0.318 C
HETATM   42  N1  UNL     1     -39.857  19.869 -21.459  1.00  0.00    -0.347 N
HETATM   43  O1  UNL     1     -39.051  18.316 -19.991  1.00  0.00    -0.247 OA
HETATM   44  C1  UNL     1     -41.159  19.203 -21.528  1.00  0.00     0.151 C
ATOM     45  H1  UNL     1     -39.705  20.720 -22.002  1.00  0.00     0.163 HD
ATOM     46  H2  UNL     1     -37.281  20.770 -21.071  1.00  0.00     0.167 HD
ENDBRANCH  39  40
BRANCH  39  47
HETATM   47  O2  UNL     1     -36.838  19.526 -18.367  1.00  0.00    -0.369 OA
ATOM     48  H2  UNL     1     -37.081  20.436 -18.242  1.00  0.00     0.212 HD
ENDBRANCH  39  47
ENDBRANCH   1  39
BRANCH   5  49
HETATM   49  N4  UNL     1     -33.216  22.477 -22.562  1.00  0.00    -0.383 N
ATOM     50  H42 UNL     1     -34.149  22.362 -22.958  1.00  0.00     0.157 HD
ATOM     51  H41 UNL     1     -32.682  23.316 -22.786  1.00  0.00     0.157 HD
ENDBRANCH   5  49
BRANCH   8  52
HETATM   52  C8  UNL     1     -29.356  20.455 -20.819  1.00  0.00     0.180 A
HETATM   53  N6  UNL     1     -28.777  20.075 -19.652  1.00  0.00    -0.172 N
HETATM   54  C9  UNL     1     -27.444  19.993 -19.502  1.00  0.00     0.692 A
ATOM     55  H6  UNL     1     -29.376  19.843 -18.859  1.00  0.00     0.186 HD
HETATM   56  N8  UNL     1     -26.629  20.294 -20.537  1.00  0.00    -0.023 N
HETATM   57  C10 UNL     1     -27.203  20.674 -21.700  1.00  0.00     0.692 A
ATOM     58  H8  UNL     1     -25.615  20.238 -20.443  1.00  0.00     0.203 HD
HETATM   59  N10 UNL     1     -28.539  20.748 -21.823  1.00  0.00    -0.172 N
ATOM     60  H10 UNL     1     -28.937  21.037 -22.716  1.00  0.00     0.186 HD
BRANCH  54  61
HETATM   61  N7  UNL     1     -26.917  19.640 -18.378  1.00  0.00    -0.234 N
ATOM     62  H72 UNL     1     -27.485  19.119 -17.712  1.00  0.00     0.174 HD
ATOM     63  H71 UNL     1     -25.947  19.867 -18.153  1.00  0.00     0.174 HD
ENDBRANCH  54  61
BRANCH  57  64
HETATM   64  N9  UNL     1     -26.397  20.958 -22.675  1.00  0.00    -0.234 N
ATOM     65  H92 UNL     1     -25.391  21.061 -22.542  1.00  0.00     0.174 HD
ATOM     66  H91 UNL     1     -26.822  21.074 -23.595  1.00  0.00     0.174 HD
ENDBRANCH  57  64
ENDBRANCH   8  52
TORSDOF 16
ENDMDL