MODEL 4
REMARK VINA RESULT: -6.934013008      2.796      5.271
REMARK  11 active torsions:
REMARK  status: ('A' for Active; 'I' for Inactive)
REMARK    1  A    between atoms: O1_2  and  C2_3
REMARK    2  A    between atoms: C2_3  and  C3_4
REMARK    3  A    between atoms: C3_4  and  C4_5
REMARK    4  A    between atoms: C6_8  and  O2_9
REMARK    5  A    between atoms: C6_8  and  C7_11
REMARK    6  A    between atoms: C8_12  and  O3_13
REMARK    7  A    between atoms: C9_15  and  O4_16
REMARK    8  A    between atoms: C10_18  and  C11_19
REMARK    9  A    between atoms: C12_20  and  O5_21
REMARK   10  A    between atoms: C18_36  and  C19_37
REMARK   11  A    between atoms: C20_40  and  O12_41
ROOT
HETATM    1  C4  UNL     1     -30.343   4.701 -33.458  1.00  0.00     0.130 C
HETATM    2  C5  UNL     1     -28.936   4.837 -33.788  1.00  0.00     0.059 C
HETATM    3  N1  UNL     1     -27.820   4.929 -34.076  1.00  0.00    -0.197 NA
ENDROOT
BRANCH   1   4
HETATM    4  C3  UNL     1     -30.690   4.570 -32.033  1.00  0.00     0.081 C
BRANCH   4   5
HETATM    5  C2  UNL     1     -30.074   5.650 -31.112  1.00  0.00     0.080 C
HETATM    6  C6  UNL     1     -31.033   6.656 -30.750  1.00  0.00     0.110 C
BRANCH   5   7
HETATM    7  O1  UNL     1     -29.247   5.054 -30.262  1.00  0.00    -0.357 OA
HETATM    8  C1  UNL     1     -27.891   5.480 -30.388  1.00  0.00     0.209 C
ENDBRANCH   5   7
BRANCH   6   9
HETATM    9  O2  UNL     1     -31.642   7.159 -31.861  1.00  0.00    -0.357 OA
ATOM     10  H2  UNL     1     -30.997   7.389 -32.519  1.00  0.00     0.217 HD
ENDBRANCH   6   9
BRANCH   6  11
HETATM   11  C7  UNL     1     -31.532   7.286 -29.556  1.00  0.00     0.070 A
HETATM   12  C8  UNL     1     -32.883   7.108 -29.191  1.00  0.00     0.115 A
HETATM   13  C9  UNL     1     -33.383   7.662 -28.059  1.00  0.00     0.112 A
HETATM   14  C10 UNL     1     -32.583   8.435 -27.202  1.00  0.00     0.039 A
HETATM   15  C18 UNL     1     -31.280   8.626 -27.523  1.00  0.00     0.089 A
HETATM   16  C20 UNL     1     -30.736   8.058 -28.699  1.00  0.00     0.099 A
BRANCH  12  17
HETATM   17  O3  UNL     1     -33.662   6.348 -30.036  1.00  0.00    -0.357 OA
ATOM     18  H3  UNL     1     -34.489   6.034 -29.692  1.00  0.00     0.217 HD
ENDBRANCH  12  17
BRANCH  13  19
HETATM   19  O4  UNL     1     -34.696   7.493 -27.695  1.00  0.00    -0.357 OA
ATOM     20  H4  UNL     1     -35.208   8.210 -27.340  1.00  0.00     0.217 HD
ENDBRANCH  13  19
BRANCH  14  21
HETATM   21  C11 UNL     1     -33.197   8.991 -26.011  1.00  0.00     0.089 A
HETATM   22  C12 UNL     1     -32.901   8.415 -24.775  1.00  0.00     0.112 A
HETATM   23  C13 UNL     1     -33.427   8.926 -23.620  1.00  0.00     0.110 A
HETATM   24  N2  UNL     1     -33.169   8.403 -22.403  1.00  0.00    -0.303 N
HETATM   25  C16 UNL     1     -34.268  10.039 -23.744  1.00  0.00     0.177 A
HETATM   26  C14 UNL     1     -33.701   8.928 -21.292  1.00  0.00     0.327 A
ATOM     27  H2  UNL     1     -32.556   7.592 -22.328  1.00  0.00     0.171 HD
HETATM   28  O6  UNL     1     -33.446   8.419 -20.144  1.00  0.00    -0.247 OA
HETATM   29  N3  UNL     1     -34.506   9.994 -21.413  1.00  0.00    -0.273 N
HETATM   30  C15 UNL     1     -34.801  10.559 -22.591  1.00  0.00     0.285 A
ATOM     31  H3  UNL     1     -34.912  10.395 -20.567  1.00  0.00     0.173 HD
HETATM   32  O7  UNL     1     -35.557  11.562 -22.707  1.00  0.00    -0.265 OA
HETATM   33  O8  UNL     1     -34.523  10.551 -24.916  1.00  0.00    -0.267 OA
HETATM   34  C17 UNL     1     -34.037  10.088 -26.040  1.00  0.00     0.302 A
HETATM   35  O9  UNL     1     -34.316  10.623 -27.164  1.00  0.00    -0.259 OA
BRANCH  22  36
HETATM   36  O5  UNL     1     -32.069   7.321 -24.716  1.00  0.00    -0.357 OA
ATOM     37  H5  UNL     1     -32.171   6.690 -24.013  1.00  0.00     0.217 HD
ENDBRANCH  22  36
ENDBRANCH  14  21
BRANCH  15  38
HETATM   38  C19 UNL     1     -30.447   9.421 -26.643  1.00  0.00     0.213 C
HETATM   39  O10 UNL     1     -29.602   8.876 -25.891  1.00  0.00    -0.644 OA
HETATM   40  O11 UNL     1     -30.506  10.815 -26.551  1.00  0.00    -0.644 OA
ENDBRANCH  15  38
BRANCH  16  41
HETATM   41  O12 UNL     1     -29.450   8.264 -28.981  1.00  0.00    -0.358 OA
ATOM     42  H12 UNL     1     -29.113   8.069 -29.847  1.00  0.00     0.217 HD
ENDBRANCH  16  41
ENDBRANCH   6  11
ENDBRANCH   4   5
ENDBRANCH   1   4
TORSDOF 11
ENDMDL