MODEL 2
REMARK VINA RESULT: -7.891475398      7.315     11.263
REMARK  15 active torsions:
REMARK  status: ('A' for Active; 'I' for Inactive)
REMARK    1  A    between atoms: O1_2  and  C2_3
REMARK    2  A    between atoms: C2_3  and  C3_5
REMARK    3  A    between atoms: C3_5  and  C4_6
REMARK    4  A    between atoms: C4_6  and  O3_7
REMARK    5  A    between atoms: C4_6  and  C5_9
REMARK    6  A    between atoms: C7_11  and  O4_12
REMARK    7  A    between atoms: C10_16  and  O5_17
REMARK    8  A    between atoms: C11_19  and  C12_20
REMARK    9  A    between atoms: C13_23  and  C14_24
REMARK   10  A    between atoms: C14_24  and  C15_25
REMARK   11  A    between atoms: C16_28  and  C17_29
REMARK   12  A    between atoms: C17_29  and  O8_30
REMARK   13  A    between atoms: C17_29  and  O9_32
REMARK   14  A    between atoms: C19_34  and  O10_35
REMARK   15  A    between atoms: C21_38  and  O11_39
ROOT
HETATM    1  C5  UNL     1     -31.206   7.227 -25.021  1.00  0.00     0.008 A
HETATM    2  C6  UNL     1     -31.804   7.872 -26.079  1.00  0.00     0.050 A
HETATM    3  C7  UNL     1     -32.846   8.751 -25.890  1.00  0.00     0.081 A
HETATM    4  C8  UNL     1     -33.291   8.982 -24.598  1.00  0.00     0.062 A
HETATM    5  C9  UNL     1     -32.720   8.354 -23.486  1.00  0.00     0.032 A
HETATM    6  C10 UNL     1     -31.669   7.476 -23.744  1.00  0.00     0.087 A
HETATM    7  C11 UNL     1     -33.406   8.802 -22.270  1.00  0.00     0.065 A
HETATM    8  C13 UNL     1     -34.357   9.662 -22.589  1.00  0.00     0.017 A
HETATM    9  C22 UNL     1     -34.338   9.823 -24.059  1.00  0.00     0.193 A
HETATM   10  O12 UNL     1     -35.087  10.553 -24.750  1.00  0.00    -0.287 OA
ENDROOT
BRANCH   8  11
HETATM   11  C14 UNL     1     -35.317  10.390 -21.773  1.00  0.00     0.104 C
BRANCH  11  12
HETATM   12  C15 UNL     1     -36.625   9.676 -21.661  1.00  0.00     0.047 A
HETATM   13  N1  UNL     1     -37.318   9.483 -22.792  1.00  0.00    -0.354 N
HETATM   14  C16 UNL     1     -38.528   8.844 -22.815  1.00  0.00     0.098 A
ATOM     15  H1  UNL     1     -36.927   9.825 -23.670  1.00  0.00     0.166 HD
HETATM   16  C19 UNL     1     -39.016   8.404 -21.612  1.00  0.00     0.096 A
HETATM   17  C20 UNL     1     -38.306   8.595 -20.412  1.00  0.00     0.077 A
HETATM   18  C21 UNL     1     -37.100   9.238 -20.444  1.00  0.00     0.091 A
BRANCH  14  19
HETATM   19  C17 UNL     1     -39.214   8.630 -24.115  1.00  0.00     0.310 C
BRANCH  19  20
HETATM   20  O8  UNL     1     -40.499   9.128 -24.048  1.00  0.00    -0.366 OA
ATOM     21  H8  UNL     1     -40.504  10.037 -24.325  1.00  0.00     0.213 HD
ENDBRANCH  19  20
BRANCH  19  22
HETATM   22  O9  UNL     1     -39.295   7.256 -24.335  1.00  0.00    -0.360 OA
HETATM   23  C18 UNL     1     -40.516   6.941 -24.967  1.00  0.00     0.205 C
ENDBRANCH  19  22
ENDBRANCH  14  19
BRANCH  16  24
HETATM   24  O10 UNL     1     -40.217   7.762 -21.526  1.00  0.00    -0.358 OA
ATOM     25  H10 UNL     1     -40.318   6.970 -21.012  1.00  0.00     0.217 HD
ENDBRANCH  16  24
BRANCH  18  26
HETATM   26  O11 UNL     1     -36.369   9.444 -19.270  1.00  0.00    -0.359 OA
ATOM     27  H11 UNL     1     -35.525   9.880 -19.290  1.00  0.00     0.217 HD
ENDBRANCH  18  26
ENDBRANCH  11  12
ENDBRANCH   8  11
BRANCH   7  28
HETATM   28  C12 UNL     1     -33.096   8.401 -20.920  1.00  0.00     0.211 C
HETATM   29  O6  UNL     1     -32.340   7.401 -20.643  1.00  0.00    -0.644 OA
HETATM   30  O7  UNL     1     -33.578   9.050 -19.802  1.00  0.00    -0.644 OA
ENDBRANCH   7  28
BRANCH   6  31
HETATM   31  O5  UNL     1     -31.023   6.792 -22.739  1.00  0.00    -0.359 OA
ATOM     32  H5  UNL     1     -30.137   7.081 -22.556  1.00  0.00     0.217 HD
ENDBRANCH   6  31
BRANCH   3  33
HETATM   33  O4  UNL     1     -33.420   9.378 -26.983  1.00  0.00    -0.360 OA
ATOM     34  H4  UNL     1     -34.333   9.220 -27.189  1.00  0.00     0.217 HD
ENDBRANCH   3  33
BRANCH   1  35
HETATM   35  C4  UNL     1     -30.083   6.310 -25.282  1.00  0.00     0.163 C
BRANCH  35  36
HETATM   36  C3  UNL     1     -30.567   5.043 -25.975  1.00  0.00     0.147 C
BRANCH  36  37
HETATM   37  C2  UNL     1     -31.024   4.020 -25.008  1.00  0.00     0.261 C
HETATM   38  O2  UNL     1     -31.863   3.145 -25.316  1.00  0.00    -0.265 OA
BRANCH  37  39
HETATM   39  O1  UNL     1     -30.546   3.973 -23.701  1.00  0.00    -0.326 OA
HETATM   40  C1  UNL     1     -31.133   3.109 -22.727  1.00  0.00     0.213 C
ENDBRANCH  37  39
ENDBRANCH  36  37
ENDBRANCH  35  36
BRANCH  35  41
HETATM   41  O3  UNL     1     -29.091   6.923 -26.047  1.00  0.00    -0.390 OA
ATOM     42  H3  UNL     1     -28.705   7.644 -25.563  1.00  0.00     0.210 HD
ENDBRANCH  35  41
ENDBRANCH   1  35
TORSDOF 15
ENDMDL