MODEL 2
REMARK VINA RESULT: -8.299599557      2.703      7.040
REMARK  13 active torsions:
REMARK  status: ('A' for Active; 'I' for Inactive)
REMARK    1  A    between atoms: C3_5  and  N2_6
REMARK    2  A    between atoms: C5_11  and  N4_12
REMARK    3  A    between atoms: C6_17  and  C7_18
REMARK    4  A    between atoms: C7_18  and  N6_19
REMARK    5  A    between atoms: C8_22  and  C9_23
REMARK       I    between atoms: C9_23  and  N7_25
REMARK    6  A    between atoms: N7_25  and  N8_27
REMARK    7  A    between atoms: N8_27  and  N9_29
REMARK    8  A    between atoms: N9_29  and  N10_31
REMARK    9  A    between atoms: N10_31  and  C10_33
REMARK   10  A    between atoms: C10_33  and  C13_40
REMARK   11  A    between atoms: C11_34  and  O3_35
REMARK   12  A    between atoms: C11_34  and  C12_37
REMARK   13  A    between atoms: C20_47  and  O6_48
ROOT
HETATM    1  N6  UNL     1     -28.934   4.743 -27.437  1.00  0.00    -0.294 NA
HETATM    2  O1  UNL     1     -28.549   5.473 -28.409  1.00  0.00    -0.219 OA
ATOM      3  H1  UNL     1     -28.328   5.900 -29.227  1.00  0.00     0.261 HD
ENDROOT
BRANCH   1   4
HETATM    4  C7  UNL     1     -29.210   4.208 -26.412  1.00  0.00     0.249 C
BRANCH   4   5
HETATM    5  C6  UNL     1     -30.233   4.512 -25.428  1.00  0.00     0.100 A
HETATM    6  N5  UNL     1     -30.458   3.532 -24.476  1.00  0.00    -0.188 N
HETATM    7  C5  UNL     1     -31.226   3.794 -23.411  1.00  0.00     0.678 A
ATOM      8  H5  UNL     1     -30.038   2.609 -24.587  1.00  0.00     0.184 HD
HETATM    9  N3  UNL     1     -31.786   4.982 -23.236  1.00  0.00    -0.176 N
HETATM   10  C4  UNL     1     -31.620   6.007 -24.125  1.00  0.00     0.140 A
ATOM     11  H3  UNL     1     -32.361   5.137 -22.408  1.00  0.00     0.186 HD
HETATM   12  N2  UNL     1     -32.099   7.074 -24.036  1.00  0.00    -0.327 N
HETATM   13  C8  UNL     1     -30.794   5.705 -25.268  1.00  0.00     0.108 A
ATOM     14  H2  UNL     1     -31.746   7.541 -24.872  1.00  0.00     0.169 HD
BRANCH   7  15
HETATM   15  N4  UNL     1     -31.404   2.868 -22.555  1.00  0.00    -0.234 N
ATOM     16  H42 UNL     1     -31.182   3.064 -21.580  1.00  0.00     0.174 HD
ATOM     17  H41 UNL     1     -31.765   1.960 -22.848  1.00  0.00     0.174 HD
ENDBRANCH   7  15
BRANCH  12  18
HETATM   18  C3  UNL     1     -32.856   8.049 -23.456  1.00  0.00     0.106 A
HETATM   19  N1  UNL     1     -33.062   8.138 -22.104  1.00  0.00    -0.344 N
HETATM   20  C2  UNL     1     -33.822   9.094 -21.578  1.00  0.00     0.040 A
ATOM     21  H1  UNL     1     -32.622   7.455 -21.487  1.00  0.00     0.167 HD
HETATM   22  C1  UNL     1     -34.063   9.201 -20.100  1.00  0.00     0.071 C
HETATM   23  C20 UNL     1     -34.419  10.019 -22.400  1.00  0.00     0.087 A
HETATM   24  C19 UNL     1     -34.249   9.982 -23.774  1.00  0.00     0.042 A
HETATM   25  C18 UNL     1     -33.464   8.994 -24.304  1.00  0.00     0.051 A
BRANCH  23  26
HETATM   26  O6  UNL     1     -35.204  10.997 -21.820  1.00  0.00    -0.359 OA
ATOM     27  H6  UNL     1     -35.261  11.841 -22.253  1.00  0.00     0.217 HD
ENDBRANCH  23  26
ENDBRANCH  12  18
BRANCH  13  28
HETATM   28  C9  UNL     1     -30.770   6.789 -26.210  1.00  0.00     0.277 C
HETATM   29  O2  UNL     1     -31.805   7.204 -26.808  1.00  0.00    -0.266 OA
HETATM   30  N7  UNL     1     -29.517   7.430 -26.524  1.00  0.00    -0.250 N
ATOM     31  H7  UNL     1     -28.653   7.157 -26.056  1.00  0.00     0.192 HD
BRANCH  30  32
HETATM   32  N8  UNL     1     -29.526   8.407 -27.462  1.00  0.00    -0.225 N
ATOM     33  H8  UNL     1     -29.381   9.315 -27.021  1.00  0.00     0.210 HD
BRANCH  32  34
HETATM   34  N9  UNL     1     -29.648   8.540 -28.621  1.00  0.00    -0.228 N
ATOM     35  H9  UNL     1     -29.282   9.432 -28.954  1.00  0.00     0.210 HD
BRANCH  34  36
HETATM   36  N10 UNL     1     -30.153   7.799 -29.600  1.00  0.00    -0.286 N
ATOM     37  H10 UNL     1     -29.477   7.263 -30.145  1.00  0.00     0.188 HD
BRANCH  36  38
HETATM   38  C10 UNL     1     -31.428   7.666 -29.960  1.00  0.00     0.071 C
HETATM   39  C11 UNL     1     -31.968   6.373 -29.766  1.00  0.00     0.167 C
BRANCH  39  40
HETATM   40  O3  UNL     1     -31.129   5.479 -29.257  1.00  0.00    -0.353 OA
ATOM     41  H3  UNL     1     -30.244   5.514 -29.600  1.00  0.00     0.218 HD
ENDBRANCH  39  40
BRANCH  39  42
HETATM   42  C12 UNL     1     -33.265   5.822 -30.010  1.00  0.00     0.235 C
HETATM   43  O4  UNL     1     -34.177   5.530 -29.225  1.00  0.00    -0.642 OA
HETATM   44  O5  UNL     1     -33.563   5.559 -31.401  1.00  0.00    -0.642 OA
ENDBRANCH  39  42
BRANCH  38  45
HETATM   45  C13 UNL     1     -32.036   8.866 -30.490  1.00  0.00     0.040 C
HETATM   46  C14 UNL     1     -32.284   8.766 -31.962  1.00  0.00     0.011 C
HETATM   47  C15 UNL     1     -33.399   9.726 -32.201  1.00  0.00     0.001 C
HETATM   48  C16 UNL     1     -34.209   9.745 -30.960  1.00  0.00     0.001 C
HETATM   49  C17 UNL     1     -33.309   9.326 -29.853  1.00  0.00     0.011 C
ENDBRANCH  38  45
ENDBRANCH  36  38
ENDBRANCH  34  36
ENDBRANCH  32  34
ENDBRANCH  30  32
ENDBRANCH  13  28
ENDBRANCH   4   5
ENDBRANCH   1   4
TORSDOF 13
ENDMDL