MODEL 4
REMARK VINA RESULT: -7.131430225      2.154      5.168
REMARK  13 active torsions:
REMARK  status: ('A' for Active; 'I' for Inactive)
REMARK    1  A    between atoms: C2_2  and  O1_4
REMARK    2  A    between atoms: O1_4  and  C4_5
REMARK    3  A    between atoms: C4_5  and  N1_6
REMARK    4  A    between atoms: C5_7  and  N2_8
REMARK    5  A    between atoms: N2_8  and  C6_10
REMARK    6  A    between atoms: C6_10  and  C7_11
REMARK    7  A    between atoms: C6_10  and  C8_16
REMARK    8  A    between atoms: C7_11  and  O2_12
REMARK    9  A    between atoms: O2_12  and  N3_13
REMARK   10  A    between atoms: C10_18  and  O5_19
REMARK   11  A    between atoms: C11_21  and  O6_22
REMARK   12  A    between atoms: C12_24  and  O7_25
REMARK   13  A    between atoms: C16_33  and  N5_34
ROOT
HETATM    1  N1  UNL     1     -31.971   7.557 -24.159  1.00  0.00    -0.239 N
HETATM    2  C5  UNL     1     -32.894   8.257 -24.985  1.00  0.00     0.132 A
HETATM    3  C14 UNL     1     -33.915   8.915 -24.320  1.00  0.00     0.110 A
HETATM    4  C15 UNL     1     -34.843   9.682 -24.988  1.00  0.00     0.264 A
HETATM    5  O8  UNL     1     -34.751   9.747 -26.235  1.00  0.00    -0.267 OA
HETATM    6  N4  UNL     1     -35.857  10.400 -24.452  1.00  0.00    -0.303 N
ATOM      7  H4  UNL     1     -36.443  10.905 -25.117  1.00  0.00     0.171 HD
HETATM    8  C16 UNL     1     -36.185  10.532 -23.182  1.00  0.00     0.147 A
HETATM    9  S1  UNL     1     -35.179   9.676 -22.116  1.00  0.00    -0.035 SA
HETATM   10  C17 UNL     1     -33.951   8.823 -22.929  1.00  0.00     0.101 A
HETATM   11  N6  UNL     1     -33.033   8.132 -22.244  1.00  0.00    -0.301 N
ATOM     12  H6  UNL     1     -33.099   8.092 -21.227  1.00  0.00     0.171 HD
HETATM   13  C18 UNL     1     -32.033   7.492 -22.855  1.00  0.00     0.334 A
HETATM   14  O9  UNL     1     -31.174   6.839 -22.180  1.00  0.00    -0.246 OA
ENDROOT
BRANCH   2  15
HETATM   15  N2  UNL     1     -32.590   8.170 -26.337  1.00  0.00    -0.364 N
ATOM     16  H2  UNL     1     -33.187   7.465 -26.768  1.00  0.00     0.162 HD
BRANCH  15  17
HETATM   17  C6  UNL     1     -31.747   8.715 -27.312  1.00  0.00     0.143 C
BRANCH  17  18
HETATM   18  C7  UNL     1     -32.425   9.693 -28.283  1.00  0.00     0.238 C
BRANCH  18  19
HETATM   19  O2  UNL     1     -31.700  10.902 -28.212  1.00  0.00    -0.219 OA
BRANCH  19  20
HETATM   20  N3  UNL     1     -31.525  11.463 -26.965  1.00  0.00     0.005 N
HETATM   21  O3  UNL     1     -32.427  11.976 -26.309  1.00  0.00    -0.511 OA
HETATM   22  O4  UNL     1     -30.258  11.436 -26.441  1.00  0.00    -0.511 OA
ENDBRANCH  19  20
ENDBRANCH  18  19
ENDBRANCH  17  18
BRANCH  17  23
HETATM   23  C8  UNL     1     -31.270   7.557 -28.235  1.00  0.00    -0.028 A
HETATM   24  C9  UNL     1     -32.252   6.862 -28.912  1.00  0.00     0.049 A
HETATM   25  C10 UNL     1     -31.912   5.830 -29.781  1.00  0.00     0.102 A
HETATM   26  C11 UNL     1     -30.587   5.513 -29.954  1.00  0.00     0.132 A
HETATM   27  C12 UNL     1     -29.592   6.191 -29.292  1.00  0.00     0.102 A
HETATM   28  C13 UNL     1     -29.977   7.226 -28.425  1.00  0.00     0.049 A
BRANCH  25  29
HETATM   29  O5  UNL     1     -32.880   5.135 -30.456  1.00  0.00    -0.358 OA
ATOM     30  H5  UNL     1     -32.647   4.508 -31.131  1.00  0.00     0.217 HD
ENDBRANCH  25  29
BRANCH  26  31
HETATM   31  O6  UNL     1     -30.201   4.479 -30.819  1.00  0.00    -0.356 OA
ATOM     32  H6  UNL     1     -29.284   4.320 -31.010  1.00  0.00     0.218 HD
ENDBRANCH  26  31
BRANCH  27  33
HETATM   33  O7  UNL     1     -28.252   5.882 -29.457  1.00  0.00    -0.358 OA
ATOM     34  H7  UNL     1     -27.563   6.520 -29.310  1.00  0.00     0.217 HD
ENDBRANCH  27  33
ENDBRANCH  17  23
ENDBRANCH  15  17
ENDBRANCH   2  15
BRANCH   1  35
HETATM   35  C4  UNL     1     -30.917   6.833 -24.861  1.00  0.00     0.240 C
BRANCH  35  36
HETATM   36  O1  UNL     1     -31.169   5.614 -25.305  1.00  0.00    -0.341 OA
BRANCH  36  37
HETATM   37  C2  UNL     1     -30.473   4.504 -25.119  1.00  0.00     0.121 C
HETATM   38  C1  UNL     1     -31.264   3.568 -24.195  1.00  0.00     0.040 C
HETATM   39  C3  UNL     1     -30.472   3.747 -26.478  1.00  0.00     0.040 C
ENDBRANCH  36  37
ENDBRANCH  35  36
ENDBRANCH   1  35
BRANCH   8  40
HETATM   40  N5  UNL     1     -37.179  11.246 -22.807  1.00  0.00    -0.380 N
ATOM     41  H52 UNL     1     -37.225  12.259 -22.918  1.00  0.00     0.158 HD
ATOM     42  H51 UNL     1     -38.003  10.839 -22.365  1.00  0.00     0.158 HD
ENDBRANCH   8  40
TORSDOF 13
ENDMDL