MODEL 4
REMARK VINA RESULT: -8.223518507      2.238     11.414
REMARK  16 active torsions:
REMARK  status: ('A' for Active; 'I' for Inactive)
REMARK    1  A    between atoms: O1_2  and  C2_3
REMARK    2  A    between atoms: C2_3  and  C3_5
REMARK    3  A    between atoms: C3_5  and  C22_39
REMARK    4  A    between atoms: C4_6  and  C5_7
REMARK    5  A    between atoms: C7_9  and  O3_10
REMARK    6  A    between atoms: C8_12  and  O4_13
REMARK    7  A    between atoms: O4_13  and  C9_14
REMARK    8  A    between atoms: C9_14  and  C10_16
REMARK    9  A    between atoms: C11_17  and  C12_18
REMARK   10  A    between atoms: C14_20  and  O6_21
REMARK   11  A    between atoms: C15_23  and  O7_24
REMARK   12  A    between atoms: C16_26  and  C17_27
REMARK   13  A    between atoms: C17_27  and  O8_28
REMARK   14  A    between atoms: C17_27  and  O9_30
REMARK   15  A    between atoms: C18_32  and  O10_33
REMARK   16  A    between atoms: C19_35  and  O11_36
ROOT
HETATM    1  C9  UNL     1     -28.582   5.312 -30.310  1.00  0.00     0.288 C
HETATM    2  O5  UNL     1     -28.011   6.422 -30.403  1.00  0.00    -0.260 OA
ENDROOT
BRANCH   1   3
HETATM    3  O4  UNL     1     -28.228   4.322 -31.211  1.00  0.00    -0.270 OA
BRANCH   3   4
HETATM    4  C8  UNL     1     -27.675   4.671 -32.457  1.00  0.00     0.145 A
HETATM    5  C7  UNL     1     -26.345   5.038 -32.562  1.00  0.00     0.103 A
HETATM    6  C6  UNL     1     -25.835   5.373 -33.792  1.00  0.00     0.051 A
HETATM    7  C5  UNL     1     -26.637   5.350 -34.943  1.00  0.00    -0.029 A
HETATM    8  C21 UNL     1     -27.963   4.978 -34.786  1.00  0.00     0.051 A
HETATM    9  C19 UNL     1     -28.496   4.637 -33.562  1.00  0.00     0.105 A
BRANCH   5  10
HETATM   10  O3  UNL     1     -25.554   5.060 -31.433  1.00  0.00    -0.358 OA
ATOM     11  H3  UNL     1     -25.812   5.553 -30.663  1.00  0.00     0.217 HD
ENDBRANCH   5  10
BRANCH   7  12
HETATM   12  C4  UNL     1     -26.085   5.769 -36.190  1.00  0.00     0.036 C
HETATM   13  C3  UNL     1     -24.911   6.237 -36.456  1.00  0.00     0.116 C
BRANCH  13  14
HETATM   14  C2  UNL     1     -24.618   6.586 -37.878  1.00  0.00     0.299 C
HETATM   15  O2  UNL     1     -23.571   6.118 -38.367  1.00  0.00    -0.259 OA
BRANCH  14  16
HETATM   16  O1  UNL     1     -25.451   7.378 -38.621  1.00  0.00    -0.322 OA
HETATM   17  C1  UNL     1     -25.607   8.768 -38.401  1.00  0.00     0.213 C
ENDBRANCH  14  16
ENDBRANCH  13  14
BRANCH  13  18
HETATM   18  C22 UNL     1     -23.907   6.510 -35.455  1.00  0.00     0.215 C
HETATM   19  O12 UNL     1     -22.975   5.771 -35.088  1.00  0.00    -0.644 OA
HETATM   20  O13 UNL     1     -23.937   7.756 -34.773  1.00  0.00    -0.644 OA
ENDBRANCH  13  18
ENDBRANCH   7  12
BRANCH   9  21
HETATM   21  O11 UNL     1     -29.815   4.263 -33.391  1.00  0.00    -0.353 OA
HETATM   22  C20 UNL     1     -30.823   5.255 -33.434  1.00  0.00     0.210 C
ENDBRANCH   9  21
ENDBRANCH   3   4
ENDBRANCH   1   3
BRANCH   1  23
HETATM   23  C10 UNL     1     -29.610   5.071 -29.259  1.00  0.00     0.083 C
HETATM   24  C11 UNL     1     -29.222   5.145 -28.024  1.00  0.00     0.020 C
BRANCH  24  25
HETATM   25  C12 UNL     1     -29.967   4.966 -26.809  1.00  0.00     0.001 A
HETATM   26  C13 UNL     1     -30.437   3.704 -26.453  1.00  0.00     0.053 A
HETATM   27  C14 UNL     1     -31.155   3.431 -25.319  1.00  0.00     0.100 A
HETATM   28  C15 UNL     1     -31.422   4.483 -24.484  1.00  0.00     0.112 A
HETATM   29  C16 UNL     1     -30.983   5.759 -24.780  1.00  0.00     0.066 A
HETATM   30  C18 UNL     1     -30.252   6.011 -25.947  1.00  0.00     0.090 A
BRANCH  27  31
HETATM   31  O6  UNL     1     -31.599   2.133 -25.024  1.00  0.00    -0.358 OA
ATOM     32  H6  UNL     1     -32.499   1.959 -24.776  1.00  0.00     0.217 HD
ENDBRANCH  27  31
BRANCH  28  33
HETATM   33  O7  UNL     1     -32.144   4.271 -23.323  1.00  0.00    -0.357 OA
ATOM     34  H7  UNL     1     -32.976   4.713 -23.199  1.00  0.00     0.217 HD
ENDBRANCH  28  33
BRANCH  29  35
HETATM   35  C17 UNL     1     -31.315   6.849 -23.837  1.00  0.00     0.294 C
BRANCH  35  36
HETATM   36  O8  UNL     1     -30.885   6.587 -22.556  1.00  0.00    -0.367 OA
ATOM     37  H8  UNL     1     -31.228   7.207 -21.923  1.00  0.00     0.213 HD
ENDBRANCH  35  36
BRANCH  35  38
HETATM   38  O9  UNL     1     -32.683   7.131 -23.889  1.00  0.00    -0.367 OA
ATOM     39  H9  UNL     1     -32.917   7.747 -23.204  1.00  0.00     0.213 HD
ENDBRANCH  35  38
ENDBRANCH  29  35
BRANCH  30  40
HETATM   40  O10 UNL     1     -29.832   7.290 -26.222  1.00  0.00    -0.359 OA
ATOM     41  H10 UNL     1     -29.038   7.637 -25.835  1.00  0.00     0.217 HD
ENDBRANCH  30  40
ENDBRANCH  24  25
ENDBRANCH   1  23
TORSDOF 16
ENDMDL