MODEL 4
REMARK VINA RESULT: -6.807323888      3.612      6.995
REMARK  12 active torsions:
REMARK  status: ('A' for Active; 'I' for Inactive)
REMARK    1  A    between atoms: C2_2  and  O1_4
REMARK    2  A    between atoms: C2_2  and  N1_6
REMARK       I    between atoms: N1_6  and  C4_8
REMARK    3  A    between atoms: C4_8  and  C5_10
REMARK    4  A    between atoms: C5_10  and  N2_11
REMARK    5  A    between atoms: C5_10  and  C11_19
REMARK    6  A    between atoms: N2_11  and  O3_12
REMARK    7  A    between atoms: O3_12  and  C6_13
REMARK       I    between atoms: C11_19  and  N3_21
REMARK    8  A    between atoms: N3_21  and  C12_23
REMARK    9  A    between atoms: C14_25  and  S1_26
REMARK   10  A    between atoms: S1_26  and  S2_27
REMARK   11  A    between atoms: C16_32  and  O9_33
REMARK   12  A    between atoms: C17_35  and  O10_36
ROOT
HETATM    1  C11 UNL     1     -30.875   9.810 -26.753  1.00  0.00     0.253 C
HETATM    2  O5  UNL     1     -29.669   9.968 -26.499  1.00  0.00    -0.271 OA
HETATM    3  N3  UNL     1     -31.364   8.574 -27.190  1.00  0.00    -0.323 N
ATOM      4  H3  UNL     1     -32.364   8.547 -27.391  1.00  0.00     0.169 HD
ENDROOT
BRANCH   1   5
HETATM    5  C5  UNL     1     -31.762  11.007 -26.571  1.00  0.00     0.290 C
BRANCH   5   6
HETATM    6  C4  UNL     1     -32.277  11.442 -27.909  1.00  0.00     0.251 C
HETATM    7  N1  UNL     1     -32.929  12.694 -28.024  1.00  0.00    -0.328 N
ATOM      8  H1  UNL     1     -33.045  13.287 -27.203  1.00  0.00     0.165 HD
HETATM    9  O2  UNL     1     -32.107  10.673 -28.887  1.00  0.00    -0.271 OA
BRANCH   7  10
HETATM   10  C2  UNL     1     -33.438  13.138 -29.326  1.00  0.00     0.126 C
HETATM   11  C1  UNL     1     -33.909  14.562 -29.237  1.00  0.00     0.070 C
HETATM   12  C3  UNL     1     -34.654  12.297 -29.699  1.00  0.00     0.070 C
BRANCH  10  13
HETATM   13  O1  UNL     1     -32.424  12.980 -30.247  1.00  0.00    -0.372 OA
ATOM     14  H1  UNL     1     -32.740  13.014 -31.142  1.00  0.00     0.212 HD
ENDBRANCH  10  13
ENDBRANCH   7  10
ENDBRANCH   5   6
BRANCH   5  15
HETATM   15  N2  UNL     1     -32.939  10.524 -25.813  1.00  0.00    -0.074 NA
BRANCH  15  16
HETATM   16  O3  UNL     1     -32.539   9.674 -24.838  1.00  0.00    -0.253 OA
BRANCH  16  17
HETATM   17  C6  UNL     1     -33.571   9.035 -24.193  1.00  0.00     0.283 C
HETATM   18  C7  UNL     1     -33.168   8.347 -22.917  1.00  0.00     0.062 C
HETATM   19  C8  UNL     1     -33.766   9.055 -21.714  1.00  0.00     0.007 C
HETATM   20  C9  UNL     1     -35.272   9.036 -21.828  1.00  0.00     0.026 C
HETATM   21  C10 UNL     1     -35.642   9.440 -23.239  1.00  0.00     0.171 C
HETATM   22  O4  UNL     1     -34.534  10.006 -23.866  1.00  0.00    -0.359 OA
ENDBRANCH  16  17
ENDBRANCH  15  16
ENDBRANCH   5  15
ENDBRANCH   1   5
BRANCH   3  23
HETATM   23  C12 UNL     1     -30.671   7.356 -27.395  1.00  0.00     0.072 A
HETATM   24  C13 UNL     1     -30.575   6.344 -26.478  1.00  0.00     0.052 A
HETATM   25  C14 UNL     1     -29.894   5.151 -26.766  1.00  0.00     0.023 A
HETATM   26  C15 UNL     1     -29.329   5.054 -28.018  1.00  0.00     0.059 A
HETATM   27  C16 UNL     1     -29.410   6.045 -28.949  1.00  0.00     0.102 A
HETATM   28  C17 UNL     1     -30.073   7.201 -28.663  1.00  0.00     0.126 A
BRANCH  25  29
HETATM   29  S1  UNL     1     -29.797   3.923 -25.611  1.00  0.00     0.027 SA
BRANCH  29  30
HETATM   30  S2  UNL     1     -31.227   3.837 -24.179  1.00  0.00     0.171 S
HETATM   31  O6  UNL     1     -32.002   2.626 -24.580  1.00  0.00    -0.586 OA
HETATM   32  O7  UNL     1     -32.213   4.907 -23.953  1.00  0.00    -0.586 OA
HETATM   33  O8  UNL     1     -30.328   3.668 -22.792  1.00  0.00    -0.586 OA
ENDBRANCH  29  30
ENDBRANCH  25  29
BRANCH  27  34
HETATM   34  O9  UNL     1     -28.816   5.889 -30.206  1.00  0.00    -0.358 OA
ATOM     35  H9  UNL     1     -28.573   6.648 -30.723  1.00  0.00     0.217 HD
ENDBRANCH  27  34
BRANCH  28  36
HETATM   36  O10 UNL     1     -30.130   8.178 -29.630  1.00  0.00    -0.356 OA
ATOM     37  H10 UNL     1     -30.952   8.489 -29.992  1.00  0.00     0.218 HD
ENDBRANCH  28  36
ENDBRANCH   3  23
TORSDOF 12
ENDMDL