MODEL 2
REMARK VINA RESULT: -7.391053617      1.583      2.014
REMARK  13 active torsions:
REMARK  status: ('A' for Active; 'I' for Inactive)
REMARK    1  A    between atoms: C4_6  and  O1_7
REMARK    2  A    between atoms: C6_10  and  N2_11
REMARK    3  A    between atoms: N2_11  and  N3_13
REMARK    4  A    between atoms: N3_13  and  C7_14
REMARK    5  A    between atoms: C7_14  and  C8_15
REMARK    6  A    between atoms: C8_15  and  O3_17
REMARK    7  A    between atoms: C12_22  and  O4_23
REMARK    8  A    between atoms: O4_23  and  C13_24
REMARK    9  A    between atoms: C13_24  and  C14_26
REMARK   10  A    between atoms: C14_26  and  C15_27
REMARK   11  A    between atoms: C15_27  and  C16_32
REMARK   12  A    between atoms: N4_28  and  O6_30
REMARK   13  A    between atoms: C18_35  and  N5_36
ROOT
HETATM    1  C1  UNL     1     -32.304   8.064 -22.493  1.00  0.00     0.019 C
HETATM    2  C2  UNL     1     -31.995   6.983 -22.941  1.00  0.00    -0.057 C
HETATM    3  C3  UNL     1     -31.607   5.706 -23.469  1.00  0.00     0.116 A
HETATM    4  N1  UNL     1     -31.722   4.501 -22.874  1.00  0.00    -0.328 N
ATOM      5  H1  UNL     1     -32.111   4.344 -21.944  1.00  0.00     0.168 HD
HETATM    6  C4  UNL     1     -31.253   3.540 -23.678  1.00  0.00     0.143 A
HETATM    7  C5  UNL     1     -30.822   4.164 -24.833  1.00  0.00     0.089 A
HETATM    8  C6  UNL     1     -31.040   5.515 -24.707  1.00  0.00     0.084 A
ENDROOT
BRANCH   8   9
HETATM    9  N2  UNL     1     -30.729   6.521 -25.693  1.00  0.00    -0.300 N
ATOM     10  H2  UNL     1     -30.284   7.385 -25.385  1.00  0.00     0.182 HD
BRANCH   9  11
HETATM   11  N3  UNL     1     -31.008   6.363 -27.028  1.00  0.00    -0.116 NA
BRANCH  11  12
HETATM   12  C7  UNL     1     -31.711   7.539 -27.512  1.00  0.00     0.173 C
HETATM   13  C10 UNL     1     -30.726   8.518 -28.159  1.00  0.00     0.116 C
HETATM   14  S1  UNL     1     -31.965   9.697 -28.804  1.00  0.00    -0.164 SA
HETATM   15  C11 UNL     1     -33.347   8.529 -28.953  1.00  0.00     0.109 C
HETATM   16  C12 UNL     1     -32.680   7.234 -28.592  1.00  0.00     0.178 C
BRANCH  12  17
HETATM   17  C8  UNL     1     -32.264   8.238 -26.343  1.00  0.00     0.288 C
HETATM   18  O2  UNL     1     -31.594   9.169 -25.763  1.00  0.00    -0.263 OA
BRANCH  17  19
HETATM   19  O3  UNL     1     -33.496   7.996 -25.759  1.00  0.00    -0.325 OA
HETATM   20  C9  UNL     1     -34.410   9.033 -25.449  1.00  0.00     0.213 C
ENDBRANCH  17  19
ENDBRANCH  12  17
BRANCH  16  21
HETATM   21  O4  UNL     1     -32.007   6.789 -29.790  1.00  0.00    -0.312 OA
BRANCH  21  22
HETATM   22  C13 UNL     1     -32.246   5.540 -30.313  1.00  0.00     0.265 C
HETATM   23  O5  UNL     1     -33.471   5.174 -30.316  1.00  0.00    -0.265 OA
BRANCH  22  24
HETATM   24  C14 UNL     1     -31.305   4.584 -30.862  1.00  0.00     0.172 C
BRANCH  24  25
HETATM   25  C15 UNL     1     -29.868   4.976 -30.714  1.00  0.00     0.068 C
HETATM   26  N4  UNL     1     -29.527   5.356 -29.584  1.00  0.00    -0.271 N
ATOM     27  H4  UNL     1     -30.313   5.332 -28.935  1.00  0.00     0.194 HD
BRANCH  26  28
HETATM   28  O6  UNL     1     -28.428   5.783 -28.988  1.00  0.00    -0.290 OA
ATOM     29  H6  UNL     1     -28.069   5.805 -28.109  1.00  0.00     0.244 HD
ENDBRANCH  26  28
BRANCH  25  30
HETATM   30  C16 UNL     1     -28.934   4.907 -31.865  1.00  0.00     0.066 A
HETATM   31  C17 UNL     1     -29.372   4.634 -33.134  1.00  0.00     0.084 A
HETATM   32  S2  UNL     1     -27.923   4.675 -34.048  1.00  0.00    -0.064 SA
HETATM   33  C18 UNL     1     -26.852   5.032 -32.780  1.00  0.00     0.142 A
HETATM   34  N6  UNL     1     -27.639   5.106 -31.714  1.00  0.00    -0.335 N
ATOM     35  H6  UNL     1     -27.250   5.312 -30.795  1.00  0.00     0.168 HD
BRANCH  33  36
HETATM   36  N5  UNL     1     -25.540   5.204 -32.808  1.00  0.00    -0.380 N
ATOM     37  H52 UNL     1     -25.040   6.028 -33.141  1.00  0.00     0.158 HD
ATOM     38  H51 UNL     1     -24.796   4.571 -32.516  1.00  0.00     0.158 HD
ENDBRANCH  33  36
ENDBRANCH  25  30
ENDBRANCH  24  25
ENDBRANCH  22  24
ENDBRANCH  21  22
ENDBRANCH  16  21
ENDBRANCH  11  12
ENDBRANCH   9  11
ENDBRANCH   8   9
BRANCH   6  39
HETATM   39  O1  UNL     1     -31.197   2.171 -23.425  1.00  0.00    -0.346 OA
ATOM     40  H1  UNL     1     -30.898   1.485 -24.010  1.00  0.00     0.219 HD
ENDBRANCH   6  39
TORSDOF 13
ENDMDL