MODEL 3
REMARK VINA RESULT: -7.582500046      2.441      3.665
REMARK  12 active torsions:
REMARK  status: ('A' for Active; 'I' for Inactive)
REMARK    1  A    between atoms: O1_2  and  C2_3
REMARK    2  A    between atoms: C2_3  and  C3_5
REMARK    3  A    between atoms: C4_6  and  C5_7
REMARK    4  A    between atoms: C6_11  and  C7_12
REMARK    5  A    between atoms: C7_12  and  S1_13
REMARK    6  A    between atoms: S1_13  and  C8_14
REMARK    7  A    between atoms: C10_21  and  O5_22
REMARK    8  A    between atoms: C11_24  and  C12_25
REMARK    9  A    between atoms: C14_29  and  O8_30
REMARK   10  A    between atoms: C14_29  and  C15_32
REMARK   11  A    between atoms: C15_32  and  O9_33
REMARK   12  A    between atoms: O9_33  and  C16_34
ROOT
HETATM    1  C3  UNL     1     -30.851   5.598 -30.005  1.00  0.00     0.093 A
HETATM    2  C4  UNL     1     -32.021   6.055 -29.589  1.00  0.00     0.133 A
HETATM    3  N1  UNL     1     -31.806   6.959 -28.476  1.00  0.00    -0.303 N
HETATM    4  C6  UNL     1     -32.006   7.900 -27.396  1.00  0.00     0.066 A
HETATM    5  C11 UNL     1     -30.570   7.920 -27.198  1.00  0.00     0.095 A
HETATM    6  C13 UNL     1     -30.456   7.047 -28.205  1.00  0.00     0.078 A
HETATM    7  C14 UNL     1     -29.732   6.121 -29.160  1.00  0.00     0.159 A
ENDROOT
BRANCH   4   8
HETATM    8  C7  UNL     1     -33.086   8.442 -26.890  1.00  0.00     0.083 C
BRANCH   8   9
HETATM    9  S1  UNL     1     -33.013   9.807 -25.773  1.00  0.00    -0.077 SA
BRANCH   9  10
HETATM   10  C8  UNL     1     -33.324   9.328 -24.082  1.00  0.00     0.127 A
HETATM   11  N2  UNL     1     -34.248   9.871 -23.251  1.00  0.00    -0.324 N
HETATM   12  C9  UNL     1     -34.158   9.228 -22.073  1.00  0.00     0.178 A
ATOM     13  H2  UNL     1     -34.892  10.628 -23.477  1.00  0.00     0.169 HD
HETATM   14  S2  UNL     1     -35.053   9.498 -20.721  1.00  0.00    -0.040 SA
HETATM   15  N3  UNL     1     -33.201   8.289 -22.128  1.00  0.00    -0.311 N
HETATM   16  C10 UNL     1     -32.677   8.341 -23.367  1.00  0.00     0.177 A
ATOM     17  H3  UNL     1     -32.924   7.657 -21.376  1.00  0.00     0.170 HD
BRANCH  16  18
HETATM   18  O5  UNL     1     -31.661   7.562 -23.892  1.00  0.00    -0.344 OA
ATOM     19  H5  UNL     1     -31.745   6.629 -24.048  1.00  0.00     0.219 HD
ENDBRANCH  16  18
ENDBRANCH   9  10
ENDBRANCH   8   9
ENDBRANCH   4   8
BRANCH   5  20
HETATM   20  C12 UNL     1     -29.625   8.575 -26.330  1.00  0.00     0.213 C
HETATM   21  O6  UNL     1     -28.996   7.947 -25.417  1.00  0.00    -0.644 OA
HETATM   22  O7  UNL     1     -29.348   9.905 -26.433  1.00  0.00    -0.644 OA
ENDBRANCH   5  20
BRANCH   2  23
HETATM   23  C5  UNL     1     -33.375   5.826 -30.068  1.00  0.00     0.228 C
HETATM   24  O3  UNL     1     -33.812   6.145 -31.171  1.00  0.00    -0.643 OA
HETATM   25  O4  UNL     1     -34.332   5.181 -29.241  1.00  0.00    -0.643 OA
ENDBRANCH   2  23
BRANCH   1  26
HETATM   26  C2  UNL     1     -30.669   4.685 -31.138  1.00  0.00     0.295 C
HETATM   27  O2  UNL     1     -31.199   3.584 -31.246  1.00  0.00    -0.259 OA
BRANCH  26  28
HETATM   28  O1  UNL     1     -29.831   5.063 -32.210  1.00  0.00    -0.323 OA
HETATM   29  C1  UNL     1     -28.626   4.369 -32.447  1.00  0.00     0.213 C
ENDBRANCH  26  28
ENDBRANCH   1  26
BRANCH   7  30
HETATM   30  O8  UNL     1     -28.853   6.921 -29.891  1.00  0.00    -0.376 OA
ATOM     31  H8  UNL     1     -28.892   7.832 -29.624  1.00  0.00     0.211 HD
ENDBRANCH   7  30
BRANCH   7  32
HETATM   32  C15 UNL     1     -29.097   5.110 -28.278  1.00  0.00     0.231 C
BRANCH  32  33
HETATM   33  O9  UNL     1     -29.263   5.110 -26.923  1.00  0.00    -0.292 OA
BRANCH  33  34
HETATM   34  C16 UNL     1     -30.159   4.387 -26.152  1.00  0.00     0.332 C
HETATM   35  O10 UNL     1     -30.182   3.145 -26.308  1.00  0.00    -0.624 OA
HETATM   36  O11 UNL     1     -31.016   4.976 -25.232  1.00  0.00    -0.624 OA
ENDBRANCH  33  34
ENDBRANCH  32  33
ENDBRANCH   7  32
TORSDOF 12
ENDMDL