MODEL 2
REMARK VINA RESULT: -8.985018948      1.381      1.421
REMARK  10 active torsions:
REMARK  status: ('A' for Active; 'I' for Inactive)
REMARK    1  A    between atoms: C4_4  and  N1_5
REMARK       I    between atoms: N1_5  and  C5_7
REMARK       I    between atoms: C5_7  and  N2_9
REMARK    2  A    between atoms: C7_16  and  S1_17
REMARK    3  A    between atoms: S1_17  and  S2_18
REMARK    4  A    between atoms: S2_18  and  C8_19
REMARK    5  A    between atoms: C8_19  and  C9_20
REMARK    6  A    between atoms: C9_20  and  C10_22
REMARK    7  A    between atoms: C10_22  and  N5_24
REMARK    8  A    between atoms: N5_24  and  N6_26
REMARK       I    between atoms: N6_26  and  C12_28
REMARK    9  A    between atoms: C14_34  and  O6_35
REMARK   10  A    between atoms: C17_39  and  O7_40
ROOT
HETATM    1  N1  UNL     1     -28.697   5.116 -31.550  1.00  0.00    -0.306 N
ATOM      2  H1  UNL     1     -28.022   5.134 -30.786  1.00  0.00     0.171 HD
HETATM    3  C5  UNL     1     -30.043   5.281 -31.218  1.00  0.00     0.326 C
HETATM    4  O1  UNL     1     -30.954   5.235 -32.137  1.00  0.00    -0.247 OA
HETATM    5  N2  UNL     1     -30.492   5.505 -29.934  1.00  0.00    -0.288 N
ATOM      6  H2  UNL     1     -30.084   4.869 -29.249  1.00  0.00     0.172 HD
HETATM    7  C6  UNL     1     -31.304   6.335 -29.423  1.00  0.00     0.201 A
HETATM    8  N3  UNL     1     -31.519   6.264 -28.055  1.00  0.00    -0.278 N
ATOM      9  H3  UNL     1     -31.003   5.594 -27.486  1.00  0.00     0.189 HD
HETATM   10  N4  UNL     1     -32.389   7.065 -27.506  1.00  0.00    -0.271 N
ATOM     11  H4  UNL     1     -32.529   6.991 -26.498  1.00  0.00     0.189 HD
HETATM   12  C7  UNL     1     -33.115   7.980 -28.171  1.00  0.00     0.216 A
HETATM   13  O4  UNL     1     -32.884   8.026 -29.466  1.00  0.00    -0.246 OA
HETATM   14  C13 UNL     1     -32.035   7.266 -30.096  1.00  0.00     0.336 A
HETATM   15  O5  UNL     1     -31.919   7.442 -31.369  1.00  0.00    -0.255 OA
ENDROOT
BRANCH   1  16
HETATM   16  C4  UNL     1     -28.185   4.923 -32.874  1.00  0.00     0.070 A
HETATM   17  C3  UNL     1     -29.008   4.679 -33.969  1.00  0.00     0.042 A
HETATM   18  C2  UNL     1     -28.464   4.563 -35.245  1.00  0.00    -0.026 A
HETATM   19  C1  UNL     1     -29.347   4.307 -36.418  1.00  0.00     0.051 C
HETATM   20  C17 UNL     1     -27.100   4.699 -35.380  1.00  0.00     0.080 A
HETATM   21  C15 UNL     1     -26.283   4.939 -34.314  1.00  0.00     0.007 A
HETATM   22  C14 UNL     1     -26.807   5.059 -33.033  1.00  0.00     0.101 A
HETATM   23  C16 UNL     1     -24.805   5.050 -34.514  1.00  0.00     0.054 C
BRANCH  20  24
HETATM   24  O7  UNL     1     -26.598   4.574 -36.672  1.00  0.00    -0.360 OA
ATOM     25  H7  UNL     1     -25.706   4.255 -36.745  1.00  0.00     0.217 HD
ENDBRANCH  20  24
BRANCH  22  26
HETATM   26  O6  UNL     1     -25.945   5.304 -31.960  1.00  0.00    -0.358 OA
ATOM     27  H6  UNL     1     -25.032   5.041 -31.967  1.00  0.00     0.217 HD
ENDBRANCH  22  26
ENDBRANCH   1  16
BRANCH  12  28
HETATM   28  S1  UNL     1     -34.315   9.077 -27.486  1.00  0.00    -0.007 SA
BRANCH  28  29
HETATM   29  S2  UNL     1     -33.840   9.961 -25.667  1.00  0.00    -0.057 SA
BRANCH  29  30
HETATM   30  C8  UNL     1     -33.272   8.805 -24.426  1.00  0.00     0.114 C
BRANCH  30  31
HETATM   31  C9  UNL     1     -31.944   8.276 -24.512  1.00  0.00     0.202 C
HETATM   32  O2  UNL     1     -31.121   8.728 -25.370  1.00  0.00    -0.286 OA
BRANCH  31  33
HETATM   33  C10 UNL     1     -31.306   7.172 -23.689  1.00  0.00     0.072 C
HETATM   34  C11 UNL     1     -31.892   7.113 -22.328  1.00  0.00     0.074 C
BRANCH  33  35
HETATM   35  N5  UNL     1     -31.086   6.075 -24.475  1.00  0.00    -0.298 N
ATOM     36  H5  UNL     1     -30.433   6.283 -25.230  1.00  0.00     0.187 HD
BRANCH  35  37
HETATM   37  N6  UNL     1     -31.487   4.834 -24.521  1.00  0.00    -0.254 N
HETATM   38  C12 UNL     1     -31.266   3.675 -23.751  1.00  0.00     0.347 C
HETATM   39  N7  UNL     1     -31.912   2.456 -24.168  1.00  0.00    -0.038 NA
HETATM   40  O3  UNL     1     -30.528   3.708 -22.744  1.00  0.00    -0.249 OA
ATOM     41  H6  UNL     1     -32.114   4.660 -25.307  1.00  0.00     0.191 HD
ENDBRANCH  35  37
ENDBRANCH  33  35
ENDBRANCH  31  33
ENDBRANCH  30  31
ENDBRANCH  29  30
ENDBRANCH  28  29
ENDBRANCH  12  28
TORSDOF 10
ENDMDL