MODEL 2
REMARK VINA RESULT: -7.546178367      3.358      8.647
REMARK  14 active torsions:
REMARK  status: ('A' for Active; 'I' for Inactive)
REMARK    1  A    between atoms: S1_2  and  C2_3
REMARK    2  A    between atoms: C2_3  and  C3_5
REMARK    3  A    between atoms: C3_5  and  N1_6
REMARK    4  A    between atoms: C3_5  and  C14_31
REMARK    5  A    between atoms: N1_6  and  C4_8
REMARK    6  A    between atoms: C4_8  and  O2_9
REMARK    7  A    between atoms: C4_8  and  C5_11
REMARK    8  A    between atoms: C5_11  and  C6_16
REMARK    9  A    between atoms: N2_12  and  O3_14
REMARK   10  A    between atoms: C6_16  and  O4_17
REMARK   11  A    between atoms: C6_16  and  C13_28
REMARK   12  A    between atoms: O4_17  and  C7_18
REMARK       I    between atoms: C7_18  and  N3_20
REMARK   13  A    between atoms: N3_20  and  C8_22
REMARK   14  A    between atoms: C16_37  and  O10_38
ROOT
HETATM    1  C5  UNL     1     -30.402   6.404 -25.527  1.00  0.00     0.122 C
HETATM    2  N2  UNL     1     -29.851   5.251 -25.825  1.00  0.00    -0.266 N
ATOM      3  H2  UNL     1     -29.920   4.502 -25.137  1.00  0.00     0.194 HD
ENDROOT
BRANCH   1   4
HETATM    4  C4  UNL     1     -30.341   7.535 -26.473  1.00  0.00     0.165 C
BRANCH   4   5
HETATM    5  N1  UNL     1     -31.341   7.522 -27.497  1.00  0.00    -0.352 N
ATOM      6  H1  UNL     1     -32.297   7.229 -27.297  1.00  0.00     0.162 HD
BRANCH   5   7
HETATM    7  C3  UNL     1     -30.962   7.923 -28.771  1.00  0.00     0.209 C
BRANCH   7   8
HETATM    8  C2  UNL     1     -31.829   8.863 -29.489  1.00  0.00     0.213 C
HETATM    9  O1  UNL     1     -31.628   9.314 -30.577  1.00  0.00    -0.283 OA
BRANCH   8  10
HETATM   10  S1  UNL     1     -33.347   9.386 -28.652  1.00  0.00    -0.095 SA
HETATM   11  C1  UNL     1     -33.032  10.745 -27.518  1.00  0.00     0.099 C
ENDBRANCH   8  10
ENDBRANCH   7   8
BRANCH   7  12
HETATM   12  C14 UNL     1     -30.872   6.702 -29.655  1.00  0.00     0.069 A
HETATM   13  S2  UNL     1     -32.145   5.897 -30.455  1.00  0.00    -0.027 SA
HETATM   14  C15 UNL     1     -31.228   4.676 -31.215  1.00  0.00     0.290 A
HETATM   15  O9  UNL     1     -31.618   3.724 -31.982  1.00  0.00    -0.260 OA
HETATM   16  N4  UNL     1     -29.985   4.943 -30.818  1.00  0.00    -0.297 N
HETATM   17  C16 UNL     1     -29.783   5.961 -30.030  1.00  0.00     0.159 A
ATOM     18  H4  UNL     1     -29.205   4.361 -31.124  1.00  0.00     0.171 HD
BRANCH  17  19
HETATM   19  O10 UNL     1     -28.486   6.319 -29.557  1.00  0.00    -0.345 OA
ATOM     20  H10 UNL     1     -27.714   5.996 -30.006  1.00  0.00     0.219 HD
ENDBRANCH  17  19
ENDBRANCH   7  12
ENDBRANCH   5   7
ENDBRANCH   4   5
BRANCH   4  21
HETATM   21  O2  UNL     1     -29.059   7.831 -26.831  1.00  0.00    -0.345 OA
ATOM     22  H2  UNL     1     -28.750   7.526 -27.677  1.00  0.00     0.219 HD
ENDBRANCH   4  21
ENDBRANCH   1   4
BRANCH   1  23
HETATM   23  C6  UNL     1     -31.094   6.430 -24.220  1.00  0.00     0.290 C
BRANCH  23  24
HETATM   24  O4  UNL     1     -32.428   6.958 -24.381  1.00  0.00    -0.281 OA
BRANCH  24  25
HETATM   25  C7  UNL     1     -32.834   8.120 -23.774  1.00  0.00     0.362 C
HETATM   26  O5  UNL     1     -32.525   9.217 -24.291  1.00  0.00    -0.238 OA
HETATM   27  N3  UNL     1     -33.590   8.096 -22.584  1.00  0.00    -0.330 N
ATOM     28  H3  UNL     1     -33.846   7.206 -22.158  1.00  0.00     0.165 HD
BRANCH  27  29
HETATM   29  C8  UNL     1     -34.002   9.343 -21.971  1.00  0.00     0.117 C
HETATM   30  C9  UNL     1     -34.050   9.233 -20.470  1.00  0.00     0.054 C
HETATM   31  C10 UNL     1     -35.129  10.243 -20.130  1.00  0.00     0.170 C
HETATM   32  O6  UNL     1     -35.663  10.697 -21.323  1.00  0.00    -0.384 OA
HETATM   33  C11 UNL     1     -35.442   9.700 -22.283  1.00  0.00     0.140 C
HETATM   34  C12 UNL     1     -36.400   8.578 -22.044  1.00  0.00     0.041 C
ENDBRANCH  27  29
ENDBRANCH  24  25
ENDBRANCH  23  24
BRANCH  23  35
HETATM   35  C13 UNL     1     -31.219   5.103 -23.616  1.00  0.00     0.210 C
HETATM   36  O7  UNL     1     -30.533   4.638 -22.684  1.00  0.00    -0.646 OA
HETATM   37  O8  UNL     1     -32.214   4.232 -24.121  1.00  0.00    -0.646 OA
ENDBRANCH  23  35
ENDBRANCH   1  23
BRANCH   2  38
HETATM   38  O3  UNL     1     -29.204   4.987 -26.973  1.00  0.00    -0.290 OA
ATOM     39  H3  UNL     1     -29.615   4.648 -27.759  1.00  0.00     0.244 HD
ENDBRANCH   2  38
TORSDOF 14
ENDMDL