MODEL 2
REMARK VINA RESULT: -6.207726301      2.228      6.731
REMARK  5 active torsions:
REMARK  status: ('A' for Active; 'I' for Inactive)
REMARK    1  A    between atoms: C2_2  and  O1_3
REMARK    2  A    between atoms: O1_3  and  C3_4
REMARK       I    between atoms: C3_4  and  N1_6
REMARK    3  A    between atoms: C6_11  and  C7_12
REMARK    4  A    between atoms: N5_19  and  N6_20
REMARK    5  A    between atoms: C9_23  and  N7_24
ROOT
HETATM    1  C3  UNL     1     -14.316  -2.234   1.591  1.00  0.00     0.388 C
HETATM    2  O2  UNL     1     -15.175  -3.011   2.045  1.00  0.00    -0.236 OA
HETATM    3  N1  UNL     1     -12.909  -2.411   1.764  1.00  0.00    -0.182 N
HETATM    4  N2  UNL     1     -11.963  -1.586   1.285  1.00  0.00    -0.291 N
ATOM      5  H2  UNL     1     -12.158  -0.743   0.744  1.00  0.00     0.187 HD
HETATM    6  C4  UNL     1     -10.749  -1.999   1.599  1.00  0.00     0.040 A
HETATM    7  C5  UNL     1      -9.439  -1.361   1.253  1.00  0.00     0.071 C
HETATM    8  C6  UNL     1     -10.875  -3.154   2.324  1.00  0.00     0.080 A
HETATM    9  C9  UNL     1     -12.262  -3.391   2.413  1.00  0.00     0.142 A
ENDROOT
BRANCH   8  10
HETATM   10  C7  UNL     1      -9.841  -3.991   2.899  1.00  0.00     0.162 A
HETATM   11  N3  UNL     1      -9.439  -5.158   2.378  1.00  0.00    -0.279 N
HETATM   12  N4  UNL     1      -8.483  -5.694   3.121  1.00  0.00    -0.248 N
ATOM     13  H3  UNL     1      -9.817  -5.576   1.527  1.00  0.00     0.189 HD
HETATM   14  C8  UNL     1      -8.268  -4.849   4.144  1.00  0.00     0.361 A
ATOM     15  H4  UNL     1      -8.003  -6.577   2.950  1.00  0.00     0.192 HD
HETATM   16  O3  UNL     1      -7.443  -4.965   5.092  1.00  0.00    -0.243 OA
HETATM   17  N5  UNL     1      -9.109  -3.780   4.018  1.00  0.00    -0.192 N
BRANCH  17  18
HETATM   18  N6  UNL     1      -9.186  -2.693   4.884  1.00  0.00    -0.333 N
ATOM     19  H62 UNL     1      -8.691  -1.808   4.781  1.00  0.00     0.177 HD
ATOM     20  H61 UNL     1      -9.739  -2.622   5.738  1.00  0.00     0.177 HD
ENDBRANCH  17  18
ENDBRANCH   8  10
BRANCH   9  21
HETATM   21  N7  UNL     1     -12.739  -4.410   3.037  1.00  0.00    -0.383 N
ATOM     22  H72 UNL     1     -12.246  -5.303   3.069  1.00  0.00     0.157 HD
ATOM     23  H71 UNL     1     -13.611  -4.499   3.559  1.00  0.00     0.157 HD
ENDBRANCH   9  21
BRANCH   1  24
HETATM   24  O1  UNL     1     -14.796  -1.141   0.878  1.00  0.00    -0.303 OA
BRANCH  24  25
HETATM   25  C2  UNL     1     -14.998   0.126   1.470  1.00  0.00     0.176 C
HETATM   26  C1  UNL     1     -16.457   0.465   1.628  1.00  0.00     0.034 C
ENDBRANCH  24  25
ENDBRANCH   1  24
TORSDOF 5
ENDMDL