MODEL 1
REMARK VINA RESULT: -5.377396797      0.000      0.000
REMARK  4 active torsions:
REMARK  status: ('A' for Active; 'I' for Inactive)
REMARK    1  A    between atoms: O1_2  and  C2_3
REMARK    2  A    between atoms: C5_13  and  N3_14
REMARK    3  A    between atoms: C5_13  and  N4_18
REMARK    4  A    between atoms: N4_18  and  N5_19
ROOT
HETATM    1  C2  UNL     1     -13.698  -1.425   0.524  1.00  0.00     0.287 C
HETATM    2  N1  UNL     1     -14.712  -0.449   0.867  1.00  0.00    -0.326 N
ATOM      3  H1  UNL     1     -14.928   0.290   0.198  1.00  0.00     0.165 HD
HETATM    4  C3  UNL     1     -15.415  -0.481   2.096  1.00  0.00     0.222 C
HETATM    5  N2  UNL     1     -15.929   0.606   2.535  1.00  0.00    -0.365 N
ATOM      6  H21 UNL     1     -16.435   0.583   3.419  1.00  0.00     0.159 HD
ATOM      7  H22 UNL     1     -15.865   1.503   2.054  1.00  0.00     0.159 HD
HETATM    8  O2  UNL     1     -15.502  -1.706   2.751  1.00  0.00    -0.243 OA
HETATM    9  C4  UNL     1     -14.898  -2.782   2.152  1.00  0.00     0.325 C
HETATM   10  O3  UNL     1     -15.426  -3.900   2.204  1.00  0.00    -0.260 OA
HETATM   11  C5  UNL     1     -13.623  -2.591   1.451  1.00  0.00     0.337 C
ENDROOT
BRANCH  11  12
HETATM   12  N3  UNL     1     -13.377  -3.778   0.628  1.00  0.00    -0.040 N
ATOM     13  H33 UNL     1     -13.414  -3.586  -0.374  1.00  0.00     0.277 HD
ATOM     14  H32 UNL     1     -12.410  -4.099   0.664  1.00  0.00     0.277 HD
ATOM     15  H31 UNL     1     -14.046  -4.490   0.923  1.00  0.00     0.277 HD
ENDBRANCH  11  12
BRANCH  11  16
HETATM   16  N4  UNL     1     -12.610  -2.455   2.473  1.00  0.00    -0.111 NA
BRANCH  16  17
HETATM   17  N5  UNL     1     -11.610  -3.390   2.410  1.00  0.00    -0.228 NA
HETATM   18  C6  UNL     1     -10.355  -2.704   2.164  1.00  0.00     0.135 C
HETATM   19  C7  UNL     1      -9.405  -2.833   3.331  1.00  0.00     0.183 C
HETATM   20  O4  UNL     1      -9.110  -4.140   3.645  1.00  0.00    -0.389 OA
HETATM   21  C8  UNL     1     -10.222  -4.952   3.680  1.00  0.00     0.183 C
HETATM   22  C9  UNL     1     -11.463  -4.097   3.668  1.00  0.00     0.135 C
ENDBRANCH  16  17
ENDBRANCH  11  16
BRANCH   1  23
HETATM   23  O1  UNL     1     -12.509  -0.752   0.375  1.00  0.00    -0.367 OA
HETATM   24  C1  UNL     1     -12.737   0.441  -0.298  1.00  0.00     0.204 C
ENDBRANCH   1  23
TORSDOF 4
ENDMDL