MODEL 5
REMARK VINA RESULT: -5.626364884      2.463      3.245
REMARK  3 active torsions:
REMARK  status: ('A' for Active; 'I' for Inactive)
REMARK    1  A    between atoms: C4_14  and  C5_15
REMARK    2  A    between atoms: C5_15  and  O3_16
REMARK    3  A    between atoms: C5_15  and  O4_18
ROOT
HETATM    1  O1  UNL     1     -14.757   0.777   2.003  1.00  0.00    -0.194 OA
HETATM    2  S1  UNL     1     -14.429  -0.289   3.031  1.00  0.00     0.285 S
HETATM    3  O2  UNL     1     -14.876   0.220   4.382  1.00  0.00    -0.194 OA
HETATM    4  N1  UNL     1     -12.735  -0.634   3.033  1.00  0.00    -0.291 N
ATOM      5  H1  UNL     1     -11.984   0.055   3.009  1.00  0.00     0.174 HD
HETATM    6  C1  UNL     1     -12.569  -2.057   3.073  1.00  0.00     0.205 C
HETATM    7  S2  UNL     1     -10.916  -2.441   3.655  1.00  0.00    -0.116 SA
HETATM    8  C2  UNL     1      -9.994  -3.002   2.204  1.00  0.00     0.215 C
HETATM    9  N2  UNL     1     -10.660  -2.756   0.977  1.00  0.00    -0.327 N
ATOM     10  H2  UNL     1     -10.143  -2.399   0.174  1.00  0.00     0.181 HD
HETATM   11  N3  UNL     1     -12.016  -3.004   0.878  1.00  0.00    -0.308 N
ATOM     12  H3  UNL     1     -12.358  -3.454   0.029  1.00  0.00     0.186 HD
HETATM   13  C3  UNL     1     -12.864  -2.710   1.775  1.00  0.00     0.056 C
HETATM   14  C4  UNL     1     -14.288  -3.044   1.520  1.00  0.00     0.169 C
HETATM   15  S3  UNL     1     -15.406  -2.084   2.575  1.00  0.00     0.001 SA
ENDROOT
BRANCH  14  16
HETATM   16  C5  UNL     1     -14.554  -4.526   1.633  1.00  0.00     0.274 C
BRANCH  16  17
HETATM   17  O3  UNL     1     -14.048  -5.124   0.469  1.00  0.00    -0.370 OA
ATOM     18  H3  UNL     1     -13.829  -4.422  -0.132  1.00  0.00     0.212 HD
ENDBRANCH  16  17
BRANCH  16  19
HETATM   19  O4  UNL     1     -15.923  -4.785   1.652  1.00  0.00    -0.370 OA
ATOM     20  H4  UNL     1     -16.122  -5.521   2.219  1.00  0.00     0.212 HD
ENDBRANCH  16  19
ENDBRANCH  14  16
TORSDOF 3
ENDMDL