MODEL 4
REMARK VINA RESULT: -5.114818766      1.886      3.959
REMARK  8 active torsions:
REMARK  status: ('A' for Active; 'I' for Inactive)
REMARK    1  A    between atoms: N1_2  and  N2_3
REMARK    2  A    between atoms: N1_2  and  C2_8
REMARK    3  A    between atoms: N2_3  and  N3_5
REMARK    4  A    between atoms: C2_8  and  O1_10
REMARK    5  A    between atoms: O1_10  and  C3_11
REMARK    6  A    between atoms: C3_11  and  N4_12
REMARK    7  A    between atoms: N4_12  and  N5_13
REMARK    8  A    between atoms: N4_12  and  O2_16
ROOT
HETATM    1  C3  UNL     1     -14.232  -3.098   2.118  1.00  0.00     0.216 C
HETATM    2  C4  UNL     1     -13.500  -3.452   0.830  1.00  0.00     0.189 C
HETATM    3  N6  UNL     1     -12.153  -2.959   0.833  1.00  0.00    -0.360 N
ATOM      4  H6  UNL     1     -11.717  -2.792  -0.074  1.00  0.00     0.162 HD
HETATM    5  C5  UNL     1     -11.456  -2.713   1.863  1.00  0.00     0.184 C
HETATM    6  N7  UNL     1     -10.115  -2.224   1.789  1.00  0.00    -0.064 NA
HETATM    7  N8  UNL     1     -12.022  -2.929   3.145  1.00  0.00    -0.360 N
ATOM      8  H8  UNL     1     -11.575  -2.565   3.987  1.00  0.00     0.162 HD
HETATM    9  C6  UNL     1     -13.254  -3.684   3.221  1.00  0.00     0.189 C
ENDROOT
BRANCH   1  10
HETATM   10  O1  UNL     1     -14.376  -1.804   2.415  1.00  0.00    -0.286 OA
BRANCH  10  11
HETATM   11  C2  UNL     1     -15.077  -0.704   2.453  1.00  0.00     0.234 C
HETATM   12  S1  UNL     1     -15.577  -0.187   3.971  1.00  0.00    -0.031 SA
BRANCH  11  13
HETATM   13  N1  UNL     1     -15.475   0.116   1.383  1.00  0.00    -0.252 N
HETATM   14  C1  UNL     1     -16.680   0.910   1.317  1.00  0.00     0.182 C
BRANCH  13  15
HETATM   15  N2  UNL     1     -14.626   0.183   0.254  1.00  0.00    -0.245 N
ATOM     16  H2  UNL     1     -14.961  -0.057  -0.679  1.00  0.00     0.208 HD
BRANCH  15  17
HETATM   17  N3  UNL     1     -13.410   0.562   0.456  1.00  0.00    -0.331 N
ATOM     18  H32 UNL     1     -12.777  -0.007   1.018  1.00  0.00     0.178 HD
ATOM     19  H31 UNL     1     -13.121   1.443   0.030  1.00  0.00     0.178 HD
ENDBRANCH  15  17
ENDBRANCH  13  15
ENDBRANCH  11  13
ENDBRANCH  10  11
ENDBRANCH   1  10
BRANCH   1  20
HETATM   20  N4  UNL     1     -15.405  -3.928   2.320  1.00  0.00    -0.167 N
BRANCH  20  21
HETATM   21  N5  UNL     1     -16.201  -3.814   3.440  1.00  0.00    -0.321 N
ATOM     22  H52 UNL     1     -16.659  -2.926   3.642  1.00  0.00     0.179 HD
ATOM     23  H51 UNL     1     -16.344  -4.591   4.085  1.00  0.00     0.179 HD
ENDBRANCH  20  21
BRANCH  20  24
HETATM   24  O2  UNL     1     -15.695  -4.753   1.450  1.00  0.00    -0.270 OA
ATOM     25  H2  UNL     1     -15.715  -5.673   1.689  1.00  0.00     0.246 HD
ENDBRANCH  20  24
ENDBRANCH   1  20
TORSDOF 8
ENDMDL