MODEL 1
REMARK VINA RESULT: -6.959347998      0.000      0.000
REMARK  4 active torsions:
REMARK  status: ('A' for Active; 'I' for Inactive)
REMARK    1  A    between atoms: C2_2  and  C3_4
REMARK    2  A    between atoms: C5_10  and  N3_11
REMARK    3  A    between atoms: N3_11  and  C6_13
REMARK    4  A    between atoms: C7_22  and  N9_23
ROOT
HETATM    1  C3  UNL     1      -9.115  -4.657   3.341  1.00  0.00     0.182 A
HETATM    2  N1  UNL     1     -10.004  -4.389   2.362  1.00  0.00    -0.169 N
ATOM      3  H1  UNL     1     -10.087  -4.879   1.471  1.00  0.00     0.186 HD
HETATM    4  C4  UNL     1     -10.769  -3.350   2.780  1.00  0.00     0.735 A
HETATM    5  N2  UNL     1     -11.799  -2.675   2.215  1.00  0.00    -0.019 N
ATOM      6  H2  UNL     1     -12.123  -2.944   1.286  1.00  0.00     0.203 HD
HETATM    7  C5  UNL     1     -12.401  -1.659   2.854  1.00  0.00     0.726 A
HETATM    8  N8  UNL     1     -12.005  -1.271   4.079  1.00  0.00    -0.019 N
ATOM      9  H8  UNL     1     -12.463  -0.499   4.563  1.00  0.00     0.203 HD
HETATM   10  C7  UNL     1     -10.983  -1.937   4.645  1.00  0.00     0.727 A
HETATM   11  N10 UNL     1     -10.371  -2.965   4.005  1.00  0.00     0.092 N
HETATM   12  N11 UNL     1      -9.372  -3.772   4.316  1.00  0.00    -0.246 N
ATOM     13  H11 UNL     1      -8.857  -3.728   5.195  1.00  0.00     0.190 HD
ENDROOT
BRANCH   7  14
HETATM   14  N3  UNL     1     -13.490  -0.996   2.178  1.00  0.00    -0.019 N
ATOM     15  H3  UNL     1     -14.408  -0.939   2.618  1.00  0.00     0.203 HD
BRANCH  14  16
HETATM   16  C6  UNL     1     -13.293  -0.474   1.004  1.00  0.00     0.722 A
HETATM   17  N4  UNL     1     -12.191   0.139   0.545  1.00  0.00    -0.116 N
HETATM   18  N5  UNL     1     -12.454   0.504  -0.698  1.00  0.00     0.006 NA
ATOM     19  H4  UNL     1     -11.320   0.292   1.055  1.00  0.00     0.202 HD
HETATM   20  N6  UNL     1     -13.681   0.144  -1.037  1.00  0.00     0.006 NA
HETATM   21  N7  UNL     1     -14.204  -0.469   0.029  1.00  0.00    -0.116 N
ATOM     22  H7  UNL     1     -15.142  -0.866   0.088  1.00  0.00     0.202 HD
ENDBRANCH  14  16
ENDBRANCH   7  14
BRANCH  10  23
HETATM   23  N9  UNL     1     -10.566  -1.591   5.839  1.00  0.00    -0.232 N
ATOM     24  H92 UNL     1     -11.209  -1.658   6.627  1.00  0.00     0.174 HD
ATOM     25  H91 UNL     1      -9.608  -1.261   5.961  1.00  0.00     0.174 HD
ENDBRANCH  10  23
BRANCH   1  26
HETATM   26  C2  UNL     1      -8.077  -5.708   3.332  1.00  0.00     0.191 C
HETATM   27  C1  UNL     1      -6.983  -5.581   4.327  1.00  0.00     0.100 C
HETATM   28  O1  UNL     1      -8.132  -6.652   2.520  1.00  0.00    -0.290 OA
ENDBRANCH   1  26
TORSDOF 4
ENDMDL