MODEL 2
REMARK VINA RESULT: -6.985400972      0.779      1.041
REMARK  5 active torsions:
REMARK  status: ('A' for Active; 'I' for Inactive)
REMARK    1  A    between atoms: N1_1  and  C1_4
REMARK    2  A    between atoms: N4_11  and  N5_12
REMARK    3  A    between atoms: N5_12  and  C3_14
REMARK    4  A    between atoms: C3_14  and  C4_15
REMARK    5  A    between atoms: C6_17  and  N6_18
ROOT
HETATM    1  C1  UNL     1     -13.834  -0.622   0.621  1.00  0.00     0.694 A
HETATM    2  N2  UNL     1     -14.048  -1.925   0.878  1.00  0.00    -0.021 N
ATOM      3  H2  UNL     1     -15.002  -2.285   0.882  1.00  0.00     0.203 HD
HETATM    4  C2  UNL     1     -13.021  -2.761   1.130  1.00  0.00     0.716 A
HETATM    5  N3  UNL     1     -13.237  -4.022   1.378  1.00  0.00    -0.232 N
ATOM      6  H31 UNL     1     -12.460  -4.655   1.569  1.00  0.00     0.174 HD
ATOM      7  H32 UNL     1     -14.206  -4.339   1.373  1.00  0.00     0.174 HD
HETATM    8  N4  UNL     1     -11.740  -2.342   1.137  1.00  0.00    -0.031 N
HETATM    9  C7  UNL     1     -11.531  -1.034   0.878  1.00  0.00     0.374 A
HETATM   10  O4  UNL     1     -10.326  -0.618   0.880  1.00  0.00    -0.244 OA
HETATM   11  N8  UNL     1     -12.557  -0.198   0.627  1.00  0.00    -0.139 N
ATOM     12  H8  UNL     1     -12.360   0.784   0.435  1.00  0.00     0.189 HD
ENDROOT
BRANCH   8  13
HETATM   13  N5  UNL     1     -10.662  -3.192   1.395  1.00  0.00    -0.284 N
ATOM     14  H5  UNL     1     -10.302  -3.776   0.641  1.00  0.00     0.187 HD
BRANCH  13  15
HETATM   15  C3  UNL     1     -10.107  -3.261   2.557  1.00  0.00     0.140 C
BRANCH  15  16
HETATM   16  C4  UNL     1      -9.289  -4.383   2.972  1.00  0.00     0.076 A
HETATM   17  C5  UNL     1      -8.481  -4.410   4.068  1.00  0.00     0.097 A
HETATM   18  C6  UNL     1      -7.881  -5.668   4.097  1.00  0.00     0.238 A
HETATM   19  O3  UNL     1      -8.338  -6.328   3.053  1.00  0.00    -0.213 OA
HETATM   20  N7  UNL     1      -9.173  -5.578   2.378  1.00  0.00    -0.258 N
ATOM     21  H7  UNL     1      -9.662  -5.862   1.528  1.00  0.00     0.195 HD
BRANCH  18  22
HETATM   22  N6  UNL     1      -6.964  -6.123   5.072  1.00  0.00    -0.088 N
HETATM   23  O1  UNL     1      -6.530  -7.277   5.035  1.00  0.00    -0.530 OA
HETATM   24  O2  UNL     1      -6.548  -5.281   6.070  1.00  0.00    -0.530 OA
ENDBRANCH  18  22
ENDBRANCH  15  16
ENDBRANCH  13  15
ENDBRANCH   8  13
BRANCH   1  25
HETATM   25  N1  UNL     1     -14.798   0.208   0.376  1.00  0.00    -0.234 N
ATOM     26  H12 UNL     1     -15.752  -0.131   0.258  1.00  0.00     0.174 HD
ATOM     27  H11 UNL     1     -14.649   1.214   0.292  1.00  0.00     0.174 HD
ENDBRANCH   1  25
TORSDOF 5
ENDMDL