MODEL 4
REMARK VINA RESULT: -5.284437037      2.384      5.044
REMARK  7 active torsions:
REMARK  status: ('A' for Active; 'I' for Inactive)
REMARK    1  A    between atoms: O1_2  and  C2_3
REMARK    2  A    between atoms: C2_3  and  O2_4
REMARK    3  A    between atoms: C2_3  and  C3_6
REMARK    4  A    between atoms: C6_9  and  N1_10
REMARK    5  A    between atoms: N1_10  and  C7_12
REMARK    6  A    between atoms: C9_19  and  N4_20
REMARK    7  A    between atoms: C10_25  and  N6_26
ROOT
HETATM    1  C3  UNL     1     -11.105  -2.922   3.010  1.00  0.00     0.142 A
HETATM    2  C4  UNL     1     -11.000  -1.880   2.064  1.00  0.00     0.016 A
HETATM    3  C5  UNL     1      -9.799  -1.801   1.208  1.00  0.00     0.055 C
HETATM    4  C6  UNL     1     -12.017  -1.004   1.842  1.00  0.00     0.131 A
HETATM    5  N2  UNL     1     -13.176  -1.092   2.510  1.00  0.00    -0.174 N
ATOM      6  H2  UNL     1     -13.936  -0.433   2.338  1.00  0.00     0.186 HD
HETATM    7  C8  UNL     1     -13.302  -2.075   3.411  1.00  0.00     0.720 A
HETATM    8  N3  UNL     1     -14.464  -2.173   4.098  1.00  0.00    -0.021 N
ATOM      9  H3  UNL     1     -15.202  -1.498   3.900  1.00  0.00     0.203 HD
HETATM   10  C9  UNL     1     -14.692  -3.110   5.024  1.00  0.00     0.705 A
HETATM   11  N5  UNL     1     -13.720  -3.973   5.264  1.00  0.00    -0.021 N
ATOM     12  H5  UNL     1     -13.855  -4.703   5.964  1.00  0.00     0.203 HD
HETATM   13  C10 UNL     1     -12.535  -3.897   4.583  1.00  0.00     0.712 A
HETATM   14  N7  UNL     1     -12.313  -2.966   3.665  1.00  0.00     0.029 N
ENDROOT
BRANCH   1  15
HETATM   15  C2  UNL     1      -9.962  -3.728   3.276  1.00  0.00     0.207 C
BRANCH  15  16
HETATM   16  O1  UNL     1      -8.873  -3.729   4.084  1.00  0.00    -0.334 OA
HETATM   17  C1  UNL     1      -8.679  -2.772   5.156  1.00  0.00     0.212 C
ENDBRANCH  15  16
BRANCH  15  18
HETATM   18  O2  UNL     1      -9.904  -4.821   2.545  1.00  0.00    -0.339 OA
ATOM     19  H2  UNL     1      -8.986  -5.055   2.466  1.00  0.00     0.220 HD
ENDBRANCH  15  18
ENDBRANCH   1  15
BRANCH   4  20
HETATM   20  N1  UNL     1     -11.878   0.096   0.929  1.00  0.00    -0.320 N
ATOM     21  H1  UNL     1     -11.121   0.768   1.048  1.00  0.00     0.169 HD
BRANCH  20  22
HETATM   22  C7  UNL     1     -12.807   0.244  -0.150  1.00  0.00     0.354 C
HETATM   23  O3  UNL     1     -12.401   0.812  -1.192  1.00  0.00    -0.283 OA
ENDBRANCH  20  22
ENDBRANCH   4  20
BRANCH  13  24
HETATM   24  N6  UNL     1     -11.689  -4.775   4.911  1.00  0.00    -0.233 N
ATOM     25  H62 UNL     1     -10.779  -4.880   4.463  1.00  0.00     0.174 HD
ATOM     26  H61 UNL     1     -11.987  -5.380   5.676  1.00  0.00     0.174 HD
ENDBRANCH  13  24
BRANCH  10  27
HETATM   27  N4  UNL     1     -15.816  -3.151   5.643  1.00  0.00    -0.234 N
ATOM     28  H42 UNL     1     -16.655  -2.700   5.281  1.00  0.00     0.174 HD
ATOM     29  H41 UNL     1     -15.898  -3.647   6.530  1.00  0.00     0.174 HD
ENDBRANCH  10  27
TORSDOF 7
ENDMDL