MODEL 3
REMARK VINA RESULT: -6.546400572      1.257      2.484
REMARK  4 active torsions:
REMARK  status: ('A' for Active; 'I' for Inactive)
REMARK    1  A    between atoms: C2_5  and  C3_6
REMARK    2  A    between atoms: N3_8  and  N4_9
REMARK    3  A    between atoms: C5_12  and  N5_13
REMARK    4  A    between atoms: C7_23  and  N9_24
ROOT
HETATM    1  C1  UNL     1     -14.124  -3.635   1.997  1.00  0.00     0.179 C
HETATM    2  N1  UNL     1     -12.704  -3.513   2.253  1.00  0.00    -0.276 N
HETATM    3  N2  UNL     1     -11.930  -4.431   2.742  1.00  0.00    -0.279 N
ATOM      4  H2  UNL     1     -12.223  -5.370   3.013  1.00  0.00     0.189 HD
HETATM    5  C2  UNL     1     -10.674  -3.943   2.835  1.00  0.00     0.173 A
HETATM    6  N7  UNL     1     -10.733  -2.677   2.374  1.00  0.00    -0.213 N
HETATM    7  N8  UNL     1      -9.999  -1.612   2.151  1.00  0.00    -0.254 N
ATOM      8  H8  UNL     1      -8.999  -1.537   2.335  1.00  0.00     0.191 HD
HETATM    9  C6  UNL     1     -10.764  -0.642   1.645  1.00  0.00     0.297 A
HETATM   10  O1  UNL     1     -10.404   0.532   1.304  1.00  0.00    -0.264 OA
HETATM   11  C7  UNL     1     -12.061  -1.125   1.541  1.00  0.00     0.219 A
HETATM   12  C8  UNL     1     -11.995  -2.418   2.015  1.00  0.00     0.184 A
ENDROOT
BRANCH   5  13
HETATM   13  C3  UNL     1      -9.523  -4.699   3.346  1.00  0.00     0.114 A
HETATM   14  C4  UNL     1      -8.757  -4.499   4.466  1.00  0.00     0.168 A
HETATM   15  N3  UNL     1      -7.786  -5.452   4.548  1.00  0.00    -0.102 N
HETATM   16  C5  UNL     1      -7.950  -6.245   3.477  1.00  0.00     0.697 A
HETATM   17  N6  UNL     1      -8.988  -5.799   2.754  1.00  0.00    -0.185 N
ATOM     18  H6  UNL     1      -9.325  -6.222   1.890  1.00  0.00     0.184 HD
BRANCH  15  19
HETATM   19  N4  UNL     1      -6.861  -5.508   5.571  1.00  0.00    -0.325 N
ATOM     20  H42 UNL     1      -6.963  -5.314   6.567  1.00  0.00     0.178 HD
ATOM     21  H41 UNL     1      -5.885  -5.773   5.431  1.00  0.00     0.178 HD
ENDBRANCH  15  19
BRANCH  16  22
HETATM   22  N5  UNL     1      -7.174  -7.260   3.259  1.00  0.00    -0.233 N
ATOM     23  H52 UNL     1      -6.475  -7.393   2.529  1.00  0.00     0.174 HD
ATOM     24  H51 UNL     1      -7.198  -8.089   3.854  1.00  0.00     0.174 HD
ENDBRANCH  16  22
ENDBRANCH   5  13
BRANCH  11  25
HETATM   25  N9  UNL     1     -13.191  -0.421   1.053  1.00  0.00    -0.106 N
HETATM   26  O2  UNL     1     -14.023   0.049   1.829  1.00  0.00    -0.531 OA
HETATM   27  O3  UNL     1     -13.343  -0.271  -0.289  1.00  0.00    -0.531 OA
ENDBRANCH  11  25
TORSDOF 4
ENDMDL