MODEL 3
REMARK VINA RESULT: -5.951441183      1.022      1.372
REMARK  2 active torsions:
REMARK  status: ('A' for Active; 'I' for Inactive)
REMARK    1  A    between atoms: N3_6  and  N4_7
REMARK       I    between atoms: N4_7  and  C4_9
REMARK    2  A    between atoms: C6_18  and  N10_21
ROOT
HETATM    1  N1  UNL     1     -12.032   0.094   3.894  1.00  0.00    -0.193 NA
HETATM    2  C1  UNL     1     -11.932  -0.804   3.187  1.00  0.00     0.115 C
HETATM    3  C2  UNL     1     -11.789  -1.949   2.272  1.00  0.00     0.294 C
HETATM    4  C3  UNL     1     -10.595  -1.753   1.488  1.00  0.00     0.115 C
HETATM    5  N2  UNL     1      -9.623  -1.598   0.867  1.00  0.00    -0.193 NA
HETATM    6  N3  UNL     1     -12.973  -2.165   1.479  1.00  0.00    -0.218 N
HETATM    7  C5  UNL     1     -13.189  -3.558   1.437  1.00  0.00     0.211 C
HETATM    8  N7  UNL     1     -14.058  -4.271   0.526  1.00  0.00    -0.062 NA
HETATM    9  N8  UNL     1     -12.487  -4.123   2.343  1.00  0.00    -0.316 N
ATOM     10  H8  UNL     1     -12.482  -5.131   2.500  1.00  0.00     0.166 HD
HETATM   11  C6  UNL     1     -11.713  -3.208   3.112  1.00  0.00     0.313 C
HETATM   12  C7  UNL     1     -12.270  -2.975   4.450  1.00  0.00     0.125 C
HETATM   13  N9  UNL     1     -12.688  -2.783   5.492  1.00  0.00    -0.192 NA
ENDROOT
BRANCH   6  14
HETATM   14  N4  UNL     1     -13.740  -1.163   0.880  1.00  0.00    -0.266 N
HETATM   15  C4  UNL     1     -14.843  -0.542   1.540  1.00  0.00     0.201 C
HETATM   16  N5  UNL     1     -14.868   0.740   1.640  1.00  0.00    -0.372 N
HETATM   17  N6  UNL     1     -15.916  -1.288   2.093  1.00  0.00    -0.062 NA
ATOM     18  H52 UNL     1     -14.097   1.276   1.242  1.00  0.00     0.158 HD
ATOM     19  H51 UNL     1     -15.656   1.184   2.111  1.00  0.00     0.158 HD
ATOM     20  H4  UNL     1     -13.503  -0.863  -0.066  1.00  0.00     0.190 HD
ENDBRANCH   6  14
BRANCH  11  21
HETATM   21  N10 UNL     1     -10.329  -3.574   3.240  1.00  0.00    -0.103 N
HETATM   22  O1  UNL     1      -9.899  -4.513   2.543  1.00  0.00    -0.533 OA
HETATM   23  O2  UNL     1      -9.543  -2.894   4.105  1.00  0.00    -0.533 OA
ENDBRANCH  11  21
TORSDOF 2
ENDMDL