MODEL 2
REMARK VINA RESULT: -6.399335637      1.471      3.968
REMARK  4 active torsions:
REMARK  status: ('A' for Active; 'I' for Inactive)
REMARK    1  A    between atoms: C3_8  and  C4_9
REMARK    2  A    between atoms: C5_10  and  O2_11
REMARK    3  A    between atoms: O2_11  and  C6_12
REMARK       I    between atoms: C6_12  and  N3_14
REMARK    4  A    between atoms: N3_14  and  N4_16
ROOT
HETATM    1  C4  UNL     1     -12.678  -2.007   0.999  1.00  0.00     0.104 A
HETATM    2  C5  UNL     1     -11.342  -2.094   1.306  1.00  0.00     0.176 A
HETATM    3  C7  UNL     1     -10.569  -0.970   1.181  1.00  0.00     0.340 A
HETATM    4  O4  UNL     1      -9.330  -0.957   1.441  1.00  0.00    -0.255 OA
HETATM    5  O5  UNL     1     -11.081   0.182   0.774  1.00  0.00    -0.190 OA
HETATM    6  N5  UNL     1     -12.337   0.289   0.480  1.00  0.00    -0.221 N
ATOM      7  H5  UNL     1     -12.711   1.186   0.169  1.00  0.00     0.198 HD
HETATM    8  C8  UNL     1     -13.139  -0.758   0.578  1.00  0.00     0.281 A
HETATM    9  O6  UNL     1     -14.361  -0.686   0.300  1.00  0.00    -0.265 OA
ENDROOT
BRANCH   1  10
HETATM   10  C3  UNL     1     -13.574  -3.143   1.101  1.00  0.00     0.099 A
HETATM   11  C2  UNL     1     -14.415  -3.486   2.131  1.00  0.00     0.060 A
HETATM   12  C1  UNL     1     -14.561  -2.711   3.386  1.00  0.00     0.072 C
HETATM   13  N1  UNL     1     -15.059  -4.637   1.772  1.00  0.00    -0.244 N
HETATM   14  O1  UNL     1     -14.625  -4.966   0.590  1.00  0.00    -0.156 OA
ATOM     15  H1  UNL     1     -15.749  -5.144   2.327  1.00  0.00     0.196 HD
HETATM   16  N2  UNL     1     -13.739  -4.090   0.169  1.00  0.00    -0.239 N
ATOM     17  H2  UNL     1     -13.253  -4.126  -0.727  1.00  0.00     0.197 HD
ENDBRANCH   1  10
BRANCH   2  18
HETATM   18  O2  UNL     1     -10.815  -3.290   1.727  1.00  0.00    -0.253 OA
BRANCH  18  19
HETATM   19  C6  UNL     1     -10.499  -3.570   3.034  1.00  0.00     0.384 C
HETATM   20  O3  UNL     1     -11.343  -4.272   3.682  1.00  0.00    -0.236 OA
HETATM   21  N3  UNL     1      -9.312  -3.124   3.665  1.00  0.00    -0.252 N
ATOM     22  H3  UNL     1      -8.642  -2.563   3.138  1.00  0.00     0.191 HD
BRANCH  21  23
HETATM   23  N4  UNL     1      -9.048  -3.439   4.993  1.00  0.00    -0.341 N
ATOM     24  H42 UNL     1      -9.807  -3.806   5.568  1.00  0.00     0.177 HD
ATOM     25  H41 UNL     1      -8.117  -3.308   5.388  1.00  0.00     0.177 HD
ENDBRANCH  21  23
ENDBRANCH  18  19
ENDBRANCH   2  18
TORSDOF 4
ENDMDL