MODEL 2
REMARK VINA RESULT: -7.742423640      4.926      9.939
REMARK  12 active torsions:
REMARK  status: ('A' for Active; 'I' for Inactive)
REMARK    1  A    between atoms: N1_1  and  C1_5
REMARK    2  A    between atoms: C1_5  and  N2_6
REMARK    3  A    between atoms: C1_5  and  C11_23
REMARK    4  A    between atoms: C1_5  and  C12_28
REMARK       I    between atoms: N2_6  and  C2_8
REMARK    5  A    between atoms: C2_8  and  C3_10
REMARK    6  A    between atoms: C7_14  and  N3_15
REMARK    7  A    between atoms: C11_23  and  O2_24
REMARK    8  A    between atoms: C11_23  and  O3_26
REMARK    9  A    between atoms: C12_28  and  C13_29
REMARK   10  A    between atoms: C12_28  and  N6_34
REMARK   11  A    between atoms: C13_29  and  O4_30
REMARK   12  A    between atoms: C13_29  and  O5_32
ROOT
HETATM    1  C1  UNL     1     -31.182   7.858 -26.143  1.00  0.00     0.293 C
ENDROOT
BRANCH   1   2
HETATM    2  N1  UNL     1     -31.990   7.422 -27.211  1.00  0.00    -0.042 N
ATOM      3  H13 UNL     1     -32.881   7.912 -27.287  1.00  0.00     0.278 HD
ATOM      4  H12 UNL     1     -31.640   7.682 -28.133  1.00  0.00     0.278 HD
ATOM      5  H11 UNL     1     -32.079   6.416 -27.066  1.00  0.00     0.278 HD
ENDBRANCH   1   2
BRANCH   1   6
HETATM    6  N2  UNL     1     -31.945   8.981 -25.538  1.00  0.00    -0.315 N
HETATM    7  C2  UNL     1     -33.349   8.974 -25.412  1.00  0.00     0.254 C
HETATM    8  O1  UNL     1     -34.056   8.030 -25.833  1.00  0.00    -0.268 OA
ATOM      9  H2  UNL     1     -31.430   9.793 -25.198  1.00  0.00     0.165 HD
BRANCH   7  10
HETATM   10  C3  UNL     1     -34.025  10.093 -24.775  1.00  0.00     0.034 A
HETATM   11  C4  UNL     1     -34.227  11.304 -25.396  1.00  0.00     0.017 A
HETATM   12  C5  UNL     1     -34.887  12.344 -24.737  1.00  0.00     0.003 A
HETATM   13  C6  UNL     1     -35.352  12.179 -23.441  1.00  0.00     0.031 A
HETATM   14  C7  UNL     1     -35.163  10.973 -22.793  1.00  0.00     0.058 A
HETATM   15  C10 UNL     1     -34.512   9.989 -23.482  1.00  0.00     0.048 A
BRANCH  14  16
HETATM   16  N3  UNL     1     -35.632  10.766 -21.453  1.00  0.00    -0.252 N
HETATM   17  C8  UNL     1     -36.602  11.466 -20.819  1.00  0.00     0.136 A
HETATM   18  C9  UNL     1     -36.760  10.973 -19.565  1.00  0.00     0.128 A
HETATM   19  N4  UNL     1     -35.878   9.968 -19.437  1.00  0.00    -0.296 N
HETATM   20  N5  UNL     1     -35.220   9.869 -20.579  1.00  0.00    -0.236 N
ATOM     21  H4  UNL     1     -35.742   9.387 -18.609  1.00  0.00     0.187 HD
ATOM     22  H5  UNL     1     -34.486   9.184 -20.762  1.00  0.00     0.209 HD
ENDBRANCH  14  16
ENDBRANCH   7  10
ENDBRANCH   1   6
BRANCH   1  23
HETATM   23  C11 UNL     1     -29.957   8.593 -26.744  1.00  0.00     0.317 C
BRANCH  23  24
HETATM   24  O2  UNL     1     -29.689   8.236 -28.030  1.00  0.00    -0.367 OA
ATOM     25  H2  UNL     1     -28.961   7.631 -28.110  1.00  0.00     0.212 HD
ENDBRANCH  23  24
BRANCH  23  26
HETATM   26  O3  UNL     1     -28.872   8.511 -25.886  1.00  0.00    -0.367 OA
ATOM     27  H3  UNL     1     -29.136   8.708 -24.995  1.00  0.00     0.212 HD
ENDBRANCH  23  26
ENDBRANCH   1  23
BRANCH   1  28
HETATM   28  C12 UNL     1     -30.718   6.897 -25.130  1.00  0.00     0.126 C
BRANCH  28  29
HETATM   29  C13 UNL     1     -31.339   6.684 -23.827  1.00  0.00     0.307 C
BRANCH  29  30
HETATM   30  O4  UNL     1     -32.685   6.350 -23.813  1.00  0.00    -0.366 OA
ATOM     31  H4  UNL     1     -33.163   6.509 -23.007  1.00  0.00     0.213 HD
ENDBRANCH  29  30
BRANCH  29  32
HETATM   32  O5  UNL     1     -30.615   5.874 -22.947  1.00  0.00    -0.366 OA
ATOM     33  H5  UNL     1     -30.657   6.130 -22.033  1.00  0.00     0.213 HD
ENDBRANCH  29  32
ENDBRANCH  28  29
BRANCH  28  34
HETATM   34  N6  UNL     1     -30.441   5.565 -25.714  1.00  0.00    -0.267 N
HETATM   35  C14 UNL     1     -29.471   5.159 -26.537  1.00  0.00     0.117 A
HETATM   36  C15 UNL     1     -29.605   3.801 -26.787  1.00  0.00     0.038 A
HETATM   37  C16 UNL     1     -30.712   3.416 -26.067  1.00  0.00     0.109 A
HETATM   38  N7  UNL     1     -31.177   4.510 -25.443  1.00  0.00    -0.306 N
ATOM     39  H7  UNL     1     -31.996   4.522 -24.835  1.00  0.00     0.186 HD
ENDBRANCH  28  34
ENDBRANCH   1  28
TORSDOF 12
ENDMDL