MODEL 2
REMARK VINA RESULT: -6.912141781      1.656      2.018
REMARK  12 active torsions:
REMARK  status: ('A' for Active; 'I' for Inactive)
REMARK    1  A    between atoms: N1_1  and  C1_5
REMARK    2  A    between atoms: C1_5  and  C2_6
REMARK    3  A    between atoms: C4_8  and  N2_9
REMARK    4  A    between atoms: C5_13  and  O1_14
REMARK    5  A    between atoms: O1_14  and  C6_15
REMARK    6  A    between atoms: C8_17  and  O2_18
REMARK    7  A    between atoms: O2_18  and  C9_19
REMARK    8  A    between atoms: C10_22  and  C11_23
REMARK    9  A    between atoms: C11_23  and  N4_24
REMARK   10  A    between atoms: C12_29  and  N5_30
REMARK   11  A    between atoms: C14_35  and  N6_36
REMARK   12  A    between atoms: C15_40  and  O5_41
ROOT
HETATM    1  C6  UNL     1     -31.623   6.987 -27.716  1.00  0.00     0.155 C
HETATM    2  C7  UNL     1     -31.002   5.718 -27.165  1.00  0.00     0.068 C
HETATM    3  C8  UNL     1     -30.385   5.968 -25.831  1.00  0.00     0.160 C
HETATM    4  C12 UNL     1     -30.111   7.423 -25.531  1.00  0.00     0.214 C
HETATM    5  C13 UNL     1     -31.287   8.319 -25.716  1.00  0.00     0.070 C
HETATM    6  C14 UNL     1     -32.336   7.638 -26.557  1.00  0.00     0.214 C
ENDROOT
BRANCH   1   7
HETATM    7  O1  UNL     1     -32.422   6.747 -28.810  1.00  0.00    -0.371 OA
BRANCH   7   8
HETATM    8  C5  UNL     1     -31.768   5.945 -29.697  1.00  0.00     0.207 C
HETATM    9  C4  UNL     1     -32.697   5.173 -30.611  1.00  0.00     0.219 C
HETATM   10  C3  UNL     1     -31.926   4.458 -31.648  1.00  0.00     0.069 C
HETATM   11  C2  UNL     1     -30.459   4.600 -31.629  1.00  0.00     0.152 C
HETATM   12  O6  UNL     1     -29.931   5.726 -31.094  1.00  0.00    -0.352 OA
HETATM   13  C15 UNL     1     -30.812   6.668 -30.630  1.00  0.00     0.288 C
BRANCH   9  14
HETATM   14  N2  UNL     1     -33.689   6.078 -31.201  1.00  0.00    -0.072 N
ATOM     15  H23 UNL     1     -33.246   6.906 -31.599  1.00  0.00     0.274 HD
ATOM     16  H22 UNL     1     -34.090   5.686 -32.054  1.00  0.00     0.274 HD
ATOM     17  H21 UNL     1     -34.415   6.330 -30.530  1.00  0.00     0.274 HD
ENDBRANCH   9  14
BRANCH  11  18
HETATM   18  C1  UNL     1     -29.843   4.423 -33.025  1.00  0.00     0.261 C
BRANCH  18  19
HETATM   19  N1  UNL     1     -30.696   5.182 -33.926  1.00  0.00    -0.077 N
ATOM     20  H13 UNL     1     -31.494   5.620 -33.465  1.00  0.00     0.274 HD
ATOM     21  H12 UNL     1     -30.268   6.043 -34.268  1.00  0.00     0.274 HD
ATOM     22  H11 UNL     1     -30.957   4.531 -34.667  1.00  0.00     0.274 HD
ENDBRANCH  18  19
ENDBRANCH  11  18
BRANCH  13  23
HETATM   23  O5  UNL     1     -31.515   7.225 -31.705  1.00  0.00    -0.369 OA
ATOM     24  H5  UNL     1     -31.243   6.821 -32.520  1.00  0.00     0.212 HD
ENDBRANCH  13  23
ENDBRANCH   7   8
ENDBRANCH   1   7
BRANCH   6  25
HETATM   25  N6  UNL     1     -33.411   8.500 -26.927  1.00  0.00    -0.072 N
ATOM     26  H63 UNL     1     -33.049   9.353 -27.354  1.00  0.00     0.274 HD
ATOM     27  H62 UNL     1     -33.921   8.110 -27.719  1.00  0.00     0.274 HD
ATOM     28  H61 UNL     1     -34.053   8.730 -26.169  1.00  0.00     0.274 HD
ENDBRANCH   6  25
BRANCH   3  29
HETATM   29  O2  UNL     1     -31.090   5.447 -24.775  1.00  0.00    -0.330 OA
BRANCH  29  30
HETATM   30  C9  UNL     1     -30.766   4.110 -24.581  1.00  0.00     0.436 C
HETATM   31  O3  UNL     1     -31.715   3.247 -25.106  1.00  0.00    -0.225 OA
HETATM   32  N3  UNL     1     -31.980   2.325 -24.166  1.00  0.00    -0.062 NA
HETATM   33  C10 UNL     1     -31.516   2.825 -22.912  1.00  0.00     0.272 C
HETATM   34  O4  UNL     1     -30.678   3.866 -23.224  1.00  0.00    -0.312 OA
BRANCH  33  35
HETATM   35  C11 UNL     1     -30.835   1.759 -22.075  1.00  0.00     0.281 C
BRANCH  35  36
HETATM   36  N4  UNL     1     -29.497   2.173 -21.699  1.00  0.00    -0.076 N
ATOM     37  H43 UNL     1     -29.230   3.045 -22.156  1.00  0.00     0.274 HD
ATOM     38  H42 UNL     1     -29.458   2.489 -20.730  1.00  0.00     0.274 HD
ATOM     39  H41 UNL     1     -28.823   1.430 -21.881  1.00  0.00     0.274 HD
ENDBRANCH  35  36
ENDBRANCH  33  35
ENDBRANCH  29  30
ENDBRANCH   3  29
BRANCH   4  40
HETATM   40  N5  UNL     1     -28.906   7.904 -26.199  1.00  0.00    -0.072 N
ATOM     41  H53 UNL     1     -28.597   7.251 -26.919  1.00  0.00     0.274 HD
ATOM     42  H52 UNL     1     -29.107   8.712 -26.790  1.00  0.00     0.274 HD
ATOM     43  H51 UNL     1     -28.155   8.109 -25.539  1.00  0.00     0.274 HD
ENDBRANCH   4  40
TORSDOF 12
ENDMDL