MODEL 1
REMARK VINA RESULT: -7.589191144      0.000      0.000
REMARK  10 active torsions:
REMARK  status: ('A' for Active; 'I' for Inactive)
REMARK       I    between atoms: C1_4  and  N2_5
REMARK       I    between atoms: C1_4  and  N5_31
REMARK    1  A    between atoms: N2_5  and  N3_7
REMARK    2  A    between atoms: C2_9  and  C3_10
REMARK    3  A    between atoms: C2_9  and  C4_13
REMARK    4  A    between atoms: C4_13  and  O2_14
REMARK    5  A    between atoms: C4_13  and  S1_16
REMARK    6  A    between atoms: S1_16  and  C5_19
REMARK    7  A    between atoms: C7_21  and  O5_22
REMARK    8  A    between atoms: C8_24  and  O6_25
REMARK    9  A    between atoms: C9_27  and  O7_28
REMARK   10  A    between atoms: N5_31  and  N6_33
ROOT
HETATM    1  C4  UNL     1     -30.913   8.485 -26.822  1.00  0.00     0.301 C
ENDROOT
BRANCH   1   2
HETATM    2  C2  UNL     1     -31.382   7.656 -25.692  1.00  0.00     0.135 C
HETATM    3  N3  UNL     1     -31.057   6.422 -25.545  1.00  0.00    -0.282 N
ATOM      4  H3  UNL     1     -31.437   5.965 -24.717  1.00  0.00     0.187 HD
BRANCH   3   5
HETATM    5  N2  UNL     1     -30.273   5.635 -26.342  1.00  0.00    -0.131 N
HETATM    6  C1  UNL     1     -30.106   4.261 -26.048  1.00  0.00     0.709 C
HETATM    7  N1  UNL     1     -28.988   3.630 -26.142  1.00  0.00    -0.232 N
HETATM    8  N5  UNL     1     -31.247   3.512 -25.616  1.00  0.00    -0.071 N
ATOM      9  H12 UNL     1     -28.175   4.163 -26.449  1.00  0.00     0.174 HD
ATOM     10  H11 UNL     1     -28.868   2.639 -25.930  1.00  0.00     0.174 HD
ATOM     11  H5  UNL     1     -31.966   3.250 -26.291  1.00  0.00     0.212 HD
ATOM     12  H2  UNL     1     -29.805   6.041 -27.153  1.00  0.00     0.205 HD
BRANCH   8  13
HETATM   13  N6  UNL     1     -31.382   3.138 -24.277  1.00  0.00    -0.024 N
HETATM   14  O8  UNL     1     -32.028   2.111 -23.979  1.00  0.00    -0.516 OA
HETATM   15  O9  UNL     1     -30.799   3.909 -23.309  1.00  0.00    -0.516 OA
ENDBRANCH   8  13
ENDBRANCH   3   5
BRANCH   2  16
HETATM   16  C3  UNL     1     -32.255   8.193 -24.627  1.00  0.00     0.282 C
HETATM   17  N4  UNL     1     -33.247   9.161 -24.814  1.00  0.00    -0.056 NA
HETATM   18  O1  UNL     1     -32.096   7.741 -23.450  1.00  0.00    -0.270 OA
ENDBRANCH   2  16
ENDBRANCH   1   2
BRANCH   1  19
HETATM   19  O2  UNL     1     -31.063   9.834 -26.445  1.00  0.00    -0.374 OA
ATOM     20  H2  UNL     1     -30.440  10.341 -26.951  1.00  0.00     0.211 HD
ENDBRANCH   1  19
BRANCH   1  21
HETATM   21  S1  UNL     1     -31.911   8.164 -28.254  1.00  0.00     0.208 S
HETATM   22  O3  UNL     1     -32.201   9.379 -29.066  1.00  0.00    -0.220 OA
HETATM   23  O4  UNL     1     -33.162   7.457 -27.832  1.00  0.00    -0.220 OA
BRANCH  21  24
HETATM   24  C5  UNL     1     -31.054   7.031 -29.317  1.00  0.00     0.067 A
HETATM   25  C6  UNL     1     -29.680   6.964 -29.331  1.00  0.00     0.063 A
HETATM   26  C7  UNL     1     -29.031   6.067 -30.172  1.00  0.00     0.103 A
HETATM   27  C8  UNL     1     -29.755   5.218 -31.020  1.00  0.00     0.132 A
HETATM   28  C9  UNL     1     -31.127   5.294 -30.996  1.00  0.00     0.103 A
HETATM   29  C10 UNL     1     -31.748   6.206 -30.140  1.00  0.00     0.063 A
BRANCH  26  30
HETATM   30  O5  UNL     1     -27.643   5.987 -30.200  1.00  0.00    -0.358 OA
ATOM     31  H5  UNL     1     -27.174   5.417 -29.601  1.00  0.00     0.217 HD
ENDBRANCH  26  30
BRANCH  27  32
HETATM   32  O6  UNL     1     -29.033   4.353 -31.828  1.00  0.00    -0.356 OA
ATOM     33  H6  UNL     1     -28.812   3.501 -31.470  1.00  0.00     0.218 HD
ENDBRANCH  27  32
BRANCH  28  34
HETATM   34  O7  UNL     1     -31.859   4.468 -31.821  1.00  0.00    -0.358 OA
ATOM     35  H7  UNL     1     -32.489   4.852 -32.419  1.00  0.00     0.217 HD
ENDBRANCH  28  34
ENDBRANCH  21  24
ENDBRANCH   1  21
TORSDOF 10
ENDMDL