MODEL 3
REMARK VINA RESULT: -7.991581590      5.672     10.918
REMARK  9 active torsions:
REMARK  status: ('A' for Active; 'I' for Inactive)
REMARK    1  A    between atoms: N1_1  and  C1_4
REMARK    2  A    between atoms: C4_10  and  C5_11
REMARK    3  A    between atoms: C5_11  and  C6_12
REMARK    4  A    between atoms: C6_12  and  C7_13
REMARK    5  A    between atoms: C7_13  and  N4_14
REMARK    6  A    between atoms: C9_16  and  C10_17
REMARK    7  A    between atoms: C10_17  and  N5_18
REMARK    8  A    between atoms: C10_17  and  O1_22
REMARK    9  A    between atoms: C11_30  and  C12_31
REMARK       I    between atoms: C12_31  and  N9_33
ROOT
HETATM    1  C1  UNL     1     -32.167   5.778 -29.551  1.00  0.00     0.129 A
HETATM    2  N2  UNL     1     -32.804   5.470 -30.690  1.00  0.00    -0.349 N
ATOM      3  H2  UNL     1     -33.806   5.655 -30.750  1.00  0.00     0.167 HD
HETATM    4  C2  UNL     1     -32.192   4.932 -31.751  1.00  0.00     0.107 A
HETATM    5  C3  UNL     1     -30.845   4.695 -31.639  1.00  0.00     0.116 A
HETATM    6  N3  UNL     1     -30.160   4.986 -30.515  1.00  0.00    -0.305 N
HETATM    7  C4  UNL     1     -28.856   4.833 -30.209  1.00  0.00     0.088 A
HETATM    8  N8  UNL     1     -28.704   5.282 -28.966  1.00  0.00    -0.339 N
ATOM      9  H8  UNL     1     -27.818   5.294 -28.461  1.00  0.00     0.167 HD
HETATM   10  C11 UNL     1     -29.896   5.728 -28.453  1.00  0.00     0.133 A
HETATM   11  C14 UNL     1     -30.815   5.537 -29.444  1.00  0.00     0.116 A
ENDROOT
BRANCH   7  12
HETATM   12  C5  UNL     1     -27.810   4.260 -31.125  1.00  0.00     0.079 C
BRANCH  12  13
HETATM   13  C6  UNL     1     -27.717   5.190 -32.315  1.00  0.00     0.029 C
BRANCH  13  14
HETATM   14  C7  UNL     1     -27.694   4.421 -33.620  1.00  0.00     0.150 C
BRANCH  14  15
HETATM   15  N4  UNL     1     -26.639   4.883 -34.497  1.00  0.00    -0.287 N
HETATM   16  C8  UNL     1     -25.576   5.631 -34.215  1.00  0.00     0.142 A
HETATM   17  C9  UNL     1     -24.872   5.798 -35.381  1.00  0.00     0.099 A
HETATM   18  N6  UNL     1     -25.535   5.135 -36.358  1.00  0.00    -0.285 N
HETATM   19  N7  UNL     1     -26.595   4.597 -35.783  1.00  0.00    -0.241 N
ATOM     20  H6  UNL     1     -25.269   5.066 -37.340  1.00  0.00     0.188 HD
ATOM     21  H7  UNL     1     -27.291   4.033 -36.272  1.00  0.00     0.208 HD
BRANCH  17  22
HETATM   22  C10 UNL     1     -23.622   6.551 -35.570  1.00  0.00     0.370 C
BRANCH  22  23
HETATM   23  N5  UNL     1     -23.269   6.581 -36.991  1.00  0.00    -0.047 N
ATOM     24  H53 UNL     1     -22.295   6.843 -37.139  1.00  0.00     0.277 HD
ATOM     25  H52 UNL     1     -23.233   5.646 -37.396  1.00  0.00     0.277 HD
ATOM     26  H51 UNL     1     -23.912   7.193 -37.495  1.00  0.00     0.277 HD
ENDBRANCH  22  23
BRANCH  22  27
HETATM   27  O1  UNL     1     -22.616   5.933 -34.838  1.00  0.00    -0.365 OA
ATOM     28  H1  UNL     1     -21.776   6.252 -35.147  1.00  0.00     0.212 HD
ENDBRANCH  22  27
ENDBRANCH  17  22
ENDBRANCH  14  15
ENDBRANCH  13  14
ENDBRANCH  12  13
ENDBRANCH   7  12
BRANCH  10  29
HETATM   29  C12 UNL     1     -30.075   6.277 -27.132  1.00  0.00     0.277 C
HETATM   30  O2  UNL     1     -30.856   5.880 -26.259  1.00  0.00    -0.266 OA
HETATM   31  N9  UNL     1     -29.268   7.426 -26.739  1.00  0.00    -0.291 N
HETATM   32  C13 UNL     1     -29.863   8.591 -26.783  1.00  0.00     0.212 C
ATOM     33  H9  UNL     1     -28.296   7.327 -26.448  1.00  0.00     0.172 HD
HETATM   34  N10 UNL     1     -31.202   8.870 -27.167  1.00  0.00    -0.256 N
HETATM   35  N13 UNL     1     -29.299   9.854 -26.453  1.00  0.00    -0.256 N
HETATM   36  N11 UNL     1     -31.362  10.254 -27.265  1.00  0.00    -0.006 NA
ATOM     37  H10 UNL     1     -31.927   8.174 -27.342  1.00  0.00     0.187 HD
HETATM   38  N12 UNL     1     -30.264  10.840 -26.676  1.00  0.00    -0.006 NA
ATOM     39  H13 UNL     1     -28.351  10.013 -26.111  1.00  0.00     0.187 HD
ENDBRANCH  10  29
BRANCH   1  40
HETATM   40  N1  UNL     1     -32.858   6.286 -28.610  1.00  0.00    -0.384 N
ATOM     41  H12 UNL     1     -33.569   5.764 -28.097  1.00  0.00     0.157 HD
ATOM     42  H11 UNL     1     -32.681   7.261 -28.370  1.00  0.00     0.157 HD
ENDBRANCH   1  40
TORSDOF 9
ENDMDL