MODEL 1
REMARK VINA RESULT: -6.561736213      0.000      0.000
REMARK  13 active torsions:
REMARK  status: ('A' for Active; 'I' for Inactive)
REMARK    1  A    between atoms: N1_1  and  C1_5
REMARK    2  A    between atoms: C3_7  and  N2_8
REMARK    3  A    between atoms: C4_12  and  O1_13
REMARK    4  A    between atoms: O1_13  and  C5_14
REMARK    5  A    between atoms: C6_15  and  N3_16
REMARK    6  A    between atoms: C8_21  and  N4_22
REMARK    7  A    between atoms: C9_26  and  O2_27
REMARK    8  A    between atoms: O2_27  and  C10_28
REMARK    9  A    between atoms: C11_29  and  N5_30
REMARK   10  A    between atoms: C13_35  and  O3_36
REMARK   11  A    between atoms: O3_36  and  C14_37
REMARK   12  A    between atoms: N6_38  and  O4_40
REMARK   13  A    between atoms: C15_42  and  O5_43
ROOT
HETATM    1  C5  UNL     1     -30.484   6.293 -29.164  1.00  0.00     0.183 C
HETATM    2  C6  UNL     1     -30.811   7.733 -29.556  1.00  0.00     0.217 C
HETATM    3  C7  UNL     1     -31.843   8.226 -28.570  1.00  0.00     0.071 C
HETATM    4  C8  UNL     1     -31.257   8.363 -27.178  1.00  0.00     0.217 C
HETATM    5  C9  UNL     1     -30.079   7.455 -26.971  1.00  0.00     0.183 C
HETATM    6  C15 UNL     1     -30.228   6.140 -27.708  1.00  0.00     0.180 C
ENDROOT
BRANCH   5   7
HETATM    7  O2  UNL     1     -30.063   7.112 -25.600  1.00  0.00    -0.371 OA
BRANCH   7   8
HETATM    8  C10 UNL     1     -31.259   6.604 -25.169  1.00  0.00     0.182 C
HETATM    9  C11 UNL     1     -31.962   7.401 -24.089  1.00  0.00     0.217 C
HETATM   10  C12 UNL     1     -31.188   6.590 -23.070  1.00  0.00     0.070 C
HETATM   11  C13 UNL     1     -31.027   5.516 -24.139  1.00  0.00     0.162 C
BRANCH   9  12
HETATM   12  N5  UNL     1     -33.357   7.063 -24.040  1.00  0.00    -0.072 N
ATOM     13  H53 UNL     1     -33.938   7.789 -24.459  1.00  0.00     0.274 HD
ATOM     14  H52 UNL     1     -33.584   6.299 -24.677  1.00  0.00     0.274 HD
ATOM     15  H51 UNL     1     -33.643   6.855 -23.083  1.00  0.00     0.274 HD
ENDBRANCH   9  12
BRANCH  11  16
HETATM   16  O3  UNL     1     -32.009   4.510 -24.117  1.00  0.00    -0.337 OA
BRANCH  16  17
HETATM   17  C14 UNL     1     -31.565   3.201 -23.866  1.00  0.00     0.248 C
HETATM   18  N6  UNL     1     -31.239   2.920 -22.652  1.00  0.00    -0.259 N
ATOM     19  H6  UNL     1     -31.303   3.622 -21.916  1.00  0.00     0.195 HD
BRANCH  18  20
HETATM   20  O4  UNL     1     -30.803   1.650 -22.379  1.00  0.00    -0.289 OA
ATOM     21  H4  UNL     1     -30.816   1.358 -21.476  1.00  0.00     0.244 HD
ENDBRANCH  18  20
ENDBRANCH  16  17
ENDBRANCH  11  16
ENDBRANCH   7   8
ENDBRANCH   5   7
BRANCH   4  22
HETATM   22  N4  UNL     1     -30.951   9.748 -26.970  1.00  0.00    -0.072 N
ATOM     23  H43 UNL     1     -30.373  10.143 -27.712  1.00  0.00     0.274 HD
ATOM     24  H42 UNL     1     -31.760  10.357 -27.094  1.00  0.00     0.274 HD
ATOM     25  H41 UNL     1     -30.525   9.835 -26.047  1.00  0.00     0.274 HD
ENDBRANCH   4  22
BRANCH   6  26
HETATM   26  O5  UNL     1     -29.031   5.435 -27.475  1.00  0.00    -0.390 OA
ATOM     27  H5  UNL     1     -28.337   6.021 -27.195  1.00  0.00     0.210 HD
ENDBRANCH   6  26
BRANCH   1  28
HETATM   28  O1  UNL     1     -31.508   5.519 -29.654  1.00  0.00    -0.374 OA
BRANCH  28  29
HETATM   29  C4  UNL     1     -31.143   4.629 -30.638  1.00  0.00     0.154 C
HETATM   30  C3  UNL     1     -30.189   5.196 -31.647  1.00  0.00     0.214 C
HETATM   31  C2  UNL     1     -30.967   5.809 -32.763  1.00  0.00     0.068 C
HETATM   32  C1  UNL     1     -32.323   5.206 -32.667  1.00  0.00     0.188 C
HETATM   33  C16 UNL     1     -32.408   4.341 -31.458  1.00  0.00     0.067 C
BRANCH  30  34
HETATM   34  N2  UNL     1     -29.404   4.102 -32.200  1.00  0.00    -0.072 N
ATOM     35  H23 UNL     1     -29.968   3.442 -32.736  1.00  0.00     0.274 HD
ATOM     36  H22 UNL     1     -28.788   4.399 -32.956  1.00  0.00     0.274 HD
ATOM     37  H21 UNL     1     -28.901   3.659 -31.431  1.00  0.00     0.274 HD
ENDBRANCH  30  34
BRANCH  32  38
HETATM   38  N1  UNL     1     -32.687   4.422 -33.852  1.00  0.00    -0.075 N
ATOM     39  H13 UNL     1     -32.110   4.682 -34.653  1.00  0.00     0.274 HD
ATOM     40  H12 UNL     1     -32.399   3.448 -33.747  1.00  0.00     0.274 HD
ATOM     41  H11 UNL     1     -33.679   4.485 -34.083  1.00  0.00     0.274 HD
ENDBRANCH  32  38
ENDBRANCH  28  29
ENDBRANCH   1  28
BRANCH   2  42
HETATM   42  N3  UNL     1     -29.657   8.554 -29.654  1.00  0.00    -0.072 N
ATOM     43  H33 UNL     1     -28.822   7.992 -29.821  1.00  0.00     0.274 HD
ATOM     44  H32 UNL     1     -29.667   9.095 -30.518  1.00  0.00     0.274 HD
ATOM     45  H31 UNL     1     -29.532   9.162 -28.844  1.00  0.00     0.274 HD
ENDBRANCH   2  42
TORSDOF 13
ENDMDL