MODEL 1
REMARK VINA RESULT: -6.300147363      0.000      0.000
REMARK  11 active torsions:
REMARK  status: ('A' for Active; 'I' for Inactive)
REMARK    1  A    between atoms: O1_2  and  C2_3
REMARK    2  A    between atoms: C3_5  and  C4_6
REMARK    3  A    between atoms: C4_6  and  N1_7
REMARK    4  A    between atoms: N1_7  and  N2_8
REMARK    5  A    between atoms: C6_12  and  O3_13
REMARK    6  A    between atoms: O3_13  and  C7_14
REMARK    7  A    between atoms: C10_21  and  O5_22
REMARK    8  A    between atoms: O5_22  and  C11_23
REMARK    9  A    between atoms: C13_25  and  N4_26
REMARK   10  A    between atoms: C15_31  and  N5_32
REMARK   11  A    between atoms: C16_36  and  O6_37
ROOT
HETATM    1  C2  UNL     1     -31.156   8.765 -26.987  1.00  0.00     0.290 C
HETATM    2  O2  UNL     1     -31.071  10.002 -26.254  1.00  0.00    -0.352 OA
HETATM    3  C3  UNL     1     -32.318  10.525 -26.465  1.00  0.00     0.143 C
HETATM    4  C5  UNL     1     -33.411   9.804 -25.835  1.00  0.00     0.068 C
HETATM    5  C6  UNL     1     -32.993   8.382 -25.358  1.00  0.00     0.162 C
HETATM    6  C10 UNL     1     -31.826   7.805 -26.023  1.00  0.00     0.206 C
ENDROOT
BRANCH   6   7
HETATM    7  O5  UNL     1     -30.935   7.438 -25.021  1.00  0.00    -0.370 OA
BRANCH   7   8
HETATM    8  C11 UNL     1     -30.539   6.141 -25.059  1.00  0.00     0.155 C
HETATM    9  C12 UNL     1     -30.897   5.468 -26.422  1.00  0.00     0.067 C
HETATM   10  C13 UNL     1     -30.479   4.045 -26.354  1.00  0.00     0.188 C
HETATM   11  C14 UNL     1     -31.047   3.285 -25.185  1.00  0.00     0.068 C
HETATM   12  C15 UNL     1     -30.839   4.040 -23.858  1.00  0.00     0.216 C
HETATM   13  C16 UNL     1     -31.434   5.392 -24.089  1.00  0.00     0.177 C
BRANCH  10  14
HETATM   14  N4  UNL     1     -29.055   3.908 -26.410  1.00  0.00    -0.075 N
ATOM     15  H43 UNL     1     -28.587   4.789 -26.199  1.00  0.00     0.274 HD
ATOM     16  H42 UNL     1     -28.704   3.352 -25.629  1.00  0.00     0.274 HD
ATOM     17  H41 UNL     1     -28.747   3.528 -27.305  1.00  0.00     0.274 HD
ENDBRANCH  10  14
BRANCH  12  18
HETATM   18  N5  UNL     1     -31.593   3.296 -22.854  1.00  0.00    -0.072 N
ATOM     19  H53 UNL     1     -32.548   3.079 -23.138  1.00  0.00     0.274 HD
ATOM     20  H52 UNL     1     -31.278   2.333 -22.738  1.00  0.00     0.274 HD
ATOM     21  H51 UNL     1     -31.538   3.848 -21.999  1.00  0.00     0.274 HD
ENDBRANCH  12  18
BRANCH  13  22
HETATM   22  O6  UNL     1     -31.811   6.088 -22.975  1.00  0.00    -0.391 OA
ATOM     23  H6  UNL     1     -32.622   6.577 -23.051  1.00  0.00     0.210 HD
ENDBRANCH  13  22
ENDBRANCH   7   8
ENDBRANCH   6   7
BRANCH   1  24
HETATM   24  O1  UNL     1     -29.965   8.442 -27.487  1.00  0.00    -0.363 OA
HETATM   25  C1  UNL     1     -30.065   8.071 -28.868  1.00  0.00     0.204 C
ENDBRANCH   1  24
BRANCH   5  26
HETATM   26  O3  UNL     1     -32.843   8.531 -23.949  1.00  0.00    -0.331 OA
BRANCH  26  27
HETATM   27  C7  UNL     1     -34.001   9.067 -23.416  1.00  0.00     0.469 C
HETATM   28  N3  UNL     1     -33.844   8.865 -21.917  1.00  0.00    -0.023 N
HETATM   29  C8  UNL     1     -35.147   9.239 -21.449  1.00  0.00     0.264 C
ATOM     30  H32 UNL     1     -33.525   7.939 -21.631  1.00  0.00     0.283 HD
ATOM     31  H31 UNL     1     -33.065   9.365 -21.488  1.00  0.00     0.283 HD
HETATM   32  C9  UNL     1     -36.029   8.832 -22.607  1.00  0.00     0.200 C
HETATM   33  O4  UNL     1     -35.164   8.398 -23.637  1.00  0.00    -0.337 OA
ENDBRANCH  26  27
ENDBRANCH   5  26
BRANCH   3  34
HETATM   34  C4  UNL     1     -32.387  12.019 -26.502  1.00  0.00     0.166 C
BRANCH  34  35
HETATM   35  N1  UNL     1     -31.963  12.410 -27.828  1.00  0.00    -0.146 NA
BRANCH  35  36
HETATM   36  N2  UNL     1     -32.386  11.566 -28.787  1.00  0.00    -0.348 N
ATOM     37  H22 UNL     1     -31.898  11.454 -29.675  1.00  0.00     0.172 HD
ATOM     38  H21 UNL     1     -33.235  11.063 -28.530  1.00  0.00     0.172 HD
ENDBRANCH  35  36
ENDBRANCH  34  35
ENDBRANCH   3  34
TORSDOF 11
ENDMDL