MODEL 1
REMARK VINA RESULT: -6.770515709      0.000      0.000
REMARK  13 active torsions:
REMARK  status: ('A' for Active; 'I' for Inactive)
REMARK    1  A    between atoms: C1_2  and  C2_4
REMARK    2  A    between atoms: C2_4  and  O3_5
REMARK    3  A    between atoms: C2_4  and  C3_7
REMARK    4  A    between atoms: C3_7  and  C4_8
REMARK    5  A    between atoms: C4_8  and  N1_9
REMARK    6  A    between atoms: C6_11  and  S1_12
REMARK    7  A    between atoms: S1_12  and  C7_14
REMARK    8  A    between atoms: C7_14  and  C8_15
REMARK    9  A    between atoms: C8_15  and  O5_16
REMARK   10  A    between atoms: N2_18  and  O6_19
REMARK   11  A    between atoms: C11_24  and  O7_25
REMARK   12  A    between atoms: C11_24  and  C12_27
REMARK   13  A    between atoms: C12_27  and  O8_28
ROOT
HETATM    1  S1  UNL     1     -31.518   7.103 -24.206  1.00  0.00     0.141 S
HETATM    2  O4  UNL     1     -31.347   6.302 -22.871  1.00  0.00    -0.238 OA
ENDROOT
BRANCH   1   3
HETATM    3  C6  UNL     1     -32.677   7.915 -23.213  1.00  0.00     0.142 A
HETATM    4  C5  UNL     1     -33.610   8.766 -23.616  1.00  0.00     0.149 A
HETATM    5  N1  UNL     1     -34.205   9.277 -22.494  1.00  0.00    -0.284 N
HETATM    6  N5  UNL     1     -33.605   8.706 -21.454  1.00  0.00    -0.020 NA
HETATM    7  N4  UNL     1     -32.652   7.856 -21.914  1.00  0.00    -0.274 N
ATOM      8  H4  UNL     1     -32.032   7.279 -21.346  1.00  0.00     0.185 HD
BRANCH   5   9
HETATM    9  C4  UNL     1     -35.278  10.248 -22.441  1.00  0.00     0.149 C
BRANCH   9  10
HETATM   10  C3  UNL     1     -36.091   9.951 -21.232  1.00  0.00     0.064 C
BRANCH  10  11
HETATM   11  C2  UNL     1     -35.872  10.828 -20.047  1.00  0.00     0.220 C
BRANCH  11  12
HETATM   12  C1  UNL     1     -37.032  11.111 -19.220  1.00  0.00     0.203 C
HETATM   13  O1  UNL     1     -38.089  10.448 -19.366  1.00  0.00    -0.646 OA
HETATM   14  O2  UNL     1     -37.024  12.101 -18.256  1.00  0.00    -0.646 OA
ENDBRANCH  11  12
BRANCH  11  15
HETATM   15  O3  UNL     1     -34.886  10.172 -19.264  1.00  0.00    -0.385 OA
ATOM     16  H3  UNL     1     -34.405   9.563 -19.811  1.00  0.00     0.210 HD
ENDBRANCH  11  15
ENDBRANCH  10  11
ENDBRANCH   9  10
ENDBRANCH   5   9
ENDBRANCH   1   3
BRANCH   1  17
HETATM   17  C7  UNL     1     -31.069   7.134 -25.339  1.00  0.00    -0.012 C
BRANCH  17  18
HETATM   18  C8  UNL     1     -30.543   7.200 -26.665  1.00  0.00     0.253 C
HETATM   19  N2  UNL     1     -31.403   6.496 -27.608  1.00  0.00    -0.059 NA
HETATM   20  N3  UNL     1     -30.768   6.373 -28.812  1.00  0.00    -0.136 NA
HETATM   21  C9  UNL     1     -30.391   7.641 -29.405  1.00  0.00     0.134 C
HETATM   22  C10 UNL     1     -30.755   8.809 -28.541  1.00  0.00     0.063 C
HETATM   23  C11 UNL     1     -30.492   8.647 -27.091  1.00  0.00     0.140 C
BRANCH  18  24
HETATM   24  O5  UNL     1     -29.260   6.627 -26.720  1.00  0.00    -0.360 OA
ATOM     25  H5  UNL     1     -28.951   6.581 -27.617  1.00  0.00     0.213 HD
ENDBRANCH  18  24
BRANCH  19  26
HETATM   26  O6  UNL     1     -32.621   7.069 -27.650  1.00  0.00    -0.293 OA
ATOM     27  H6  UNL     1     -33.202   6.655 -27.023  1.00  0.00     0.238 HD
ENDBRANCH  19  26
BRANCH  23  28
HETATM   28  O7  UNL     1     -31.457   9.347 -26.336  1.00  0.00    -0.382 OA
ATOM     29  H7  UNL     1     -31.062   9.566 -25.500  1.00  0.00     0.210 HD
ENDBRANCH  23  28
BRANCH  23  30
HETATM   30  C12 UNL     1     -29.146   9.190 -26.661  1.00  0.00     0.207 C
BRANCH  30  31
HETATM   31  O8  UNL     1     -29.206  10.518 -26.272  1.00  0.00    -0.398 OA
ATOM     32  H8  UNL     1     -28.834  10.664 -25.410  1.00  0.00     0.209 HD
ENDBRANCH  30  31
ENDBRANCH  23  30
ENDBRANCH  17  18
ENDBRANCH   1  17
TORSDOF 13
ENDMDL