MODEL 3
REMARK VINA RESULT: -5.676327162      4.124      7.575
REMARK  13 active torsions:
REMARK  status: ('A' for Active; 'I' for Inactive)
REMARK    1  A    between atoms: C3_3  and  O1_4
REMARK    2  A    between atoms: C3_3  and  C4_6
REMARK    3  A    between atoms: C4_6  and  C5_7
REMARK    4  A    between atoms: C4_6  and  O3_10
REMARK    5  A    between atoms: C5_7  and  O2_8
REMARK    6  A    between atoms: O3_10  and  C6_11
REMARK    7  A    between atoms: C7_13  and  O4_14
REMARK    8  A    between atoms: O4_14  and  C8_15
REMARK    9  A    between atoms: C9_16  and  N1_17
REMARK   10  A    between atoms: C11_22  and  N2_23
REMARK   11  A    between atoms: C13_28  and  N3_29
REMARK   12  A    between atoms: C14_33  and  N4_34
REMARK   13  A    between atoms: C16_39  and  N5_40
ROOT
HETATM    1  C1  UNL     1     -31.616   7.057 -23.336  1.00  0.00     0.100 C
HETATM    2  C2  UNL     1     -31.542   5.854 -23.531  1.00  0.00    -0.154 C
HETATM    3  C3  UNL     1     -31.448   4.410 -23.744  1.00  0.00     0.214 C
ENDROOT
BRANCH   3   4
HETATM    4  O1  UNL     1     -30.807   3.875 -22.627  1.00  0.00    -0.382 OA
ATOM      5  H1  UNL     1     -30.141   4.499 -22.364  1.00  0.00     0.211 HD
ENDBRANCH   3   4
BRANCH   3   6
HETATM    6  C4  UNL     1     -30.670   4.141 -25.012  1.00  0.00     0.186 C
BRANCH   6   7
HETATM    7  C5  UNL     1     -31.250   2.888 -25.638  1.00  0.00     0.199 C
BRANCH   7   8
HETATM    8  O2  UNL     1     -31.952   2.215 -24.666  1.00  0.00    -0.398 OA
ATOM      9  H2  UNL     1     -31.566   2.429 -23.825  1.00  0.00     0.209 HD
ENDBRANCH   7   8
ENDBRANCH   6   7
BRANCH   6  10
HETATM   10  O3  UNL     1     -30.632   5.205 -25.868  1.00  0.00    -0.362 OA
BRANCH  10  11
HETATM   11  C6  UNL     1     -30.885   4.928 -27.184  1.00  0.00     0.216 C
HETATM   12  S1  UNL     1     -31.548   6.418 -28.012  1.00  0.00    -0.101 SA
HETATM   13  C7  UNL     1     -30.329   7.141 -29.133  1.00  0.00     0.216 C
HETATM   14  C14 UNL     1     -29.665   6.033 -29.979  1.00  0.00     0.224 C
HETATM   15  C15 UNL     1     -29.965   4.678 -29.422  1.00  0.00     0.072 C
HETATM   16  C16 UNL     1     -29.652   4.528 -27.969  1.00  0.00     0.224 C
BRANCH  13  17
HETATM   17  O4  UNL     1     -30.923   7.971 -30.000  1.00  0.00    -0.364 OA
BRANCH  17  18
HETATM   18  C8  UNL     1     -32.247   8.216 -29.930  1.00  0.00     0.184 C
HETATM   19  C9  UNL     1     -32.864   8.018 -31.290  1.00  0.00     0.216 C
HETATM   20  C10 UNL     1     -34.332   8.303 -31.255  1.00  0.00     0.068 C
HETATM   21  C11 UNL     1     -34.922   8.623 -29.930  1.00  0.00     0.187 C
HETATM   22  C12 UNL     1     -34.107   9.542 -29.073  1.00  0.00     0.068 C
HETATM   23  C13 UNL     1     -32.646   9.579 -29.459  1.00  0.00     0.216 C
BRANCH  19  24
HETATM   24  N1  UNL     1     -32.586   6.661 -31.740  1.00  0.00    -0.072 N
ATOM     25  H13 UNL     1     -31.744   6.606 -32.313  1.00  0.00     0.274 HD
ATOM     26  H12 UNL     1     -32.281   6.053 -30.979  1.00  0.00     0.274 HD
ATOM     27  H11 UNL     1     -33.409   6.298 -32.221  1.00  0.00     0.274 HD
ENDBRANCH  19  24
BRANCH  21  28
HETATM   28  N2  UNL     1     -35.303   7.426 -29.200  1.00  0.00    -0.075 N
ATOM     29  H23 UNL     1     -35.945   6.850 -29.743  1.00  0.00     0.274 HD
ATOM     30  H22 UNL     1     -34.522   6.774 -29.128  1.00  0.00     0.274 HD
ATOM     31  H21 UNL     1     -35.689   7.645 -28.281  1.00  0.00     0.274 HD
ENDBRANCH  21  28
BRANCH  23  32
HETATM   32  N3  UNL     1     -32.491  10.612 -30.460  1.00  0.00    -0.072 N
ATOM     33  H33 UNL     1     -33.172  10.491 -31.210  1.00  0.00     0.274 HD
ATOM     34  H32 UNL     1     -32.796  11.514 -30.096  1.00  0.00     0.274 HD
ATOM     35  H31 UNL     1     -31.546  10.678 -30.840  1.00  0.00     0.274 HD
ENDBRANCH  23  32
ENDBRANCH  17  18
ENDBRANCH  13  17
BRANCH  14  36
HETATM   36  N4  UNL     1     -28.249   6.202 -30.080  1.00  0.00    -0.072 N
ATOM     37  H43 UNL     1     -27.942   6.165 -31.052  1.00  0.00     0.274 HD
ATOM     38  H42 UNL     1     -27.976   7.159 -29.858  1.00  0.00     0.274 HD
ATOM     39  H41 UNL     1     -27.737   5.531 -29.507  1.00  0.00     0.274 HD
ENDBRANCH  14  36
BRANCH  16  40
HETATM   40  N5  UNL     1     -28.563   5.342 -27.513  1.00  0.00    -0.072 N
ATOM     41  H53 UNL     1     -28.148   5.903 -28.257  1.00  0.00     0.274 HD
ATOM     42  H52 UNL     1     -28.867   6.113 -26.918  1.00  0.00     0.274 HD
ATOM     43  H51 UNL     1     -27.890   4.729 -27.056  1.00  0.00     0.274 HD
ENDBRANCH  16  40
ENDBRANCH  10  11
ENDBRANCH   6  10
ENDBRANCH   3   6
TORSDOF 13
ENDMDL