MODEL 5
REMARK VINA RESULT: -5.573007960      3.609      6.709
REMARK  12 active torsions:
REMARK  status: ('A' for Active; 'I' for Inactive)
REMARK    1  A    between atoms: N1_1  and  C1_5
REMARK    2  A    between atoms: C3_7  and  O1_8
REMARK    3  A    between atoms: O1_8  and  C4_9
REMARK    4  A    between atoms: C5_11  and  O3_12
REMARK    5  A    between atoms: O3_12  and  C6_13
REMARK    6  A    between atoms: C7_14  and  O4_15
REMARK    7  A    between atoms: C8_17  and  O5_18
REMARK    8  A    between atoms: O5_18  and  C9_19
REMARK    9  A    between atoms: C11_22  and  N2_23
REMARK   10  A    between atoms: C12_27  and  N3_28
REMARK   11  A    between atoms: C14_33  and  N4_34
REMARK   12  A    between atoms: C16_39  and  O7_40
ROOT
HETATM    1  C4  UNL     1     -29.368   5.943 -27.048  1.00  0.00     0.293 C
HETATM    2  O2  UNL     1     -29.554   6.780 -28.116  1.00  0.00    -0.327 OA
HETATM    3  C5  UNL     1     -29.715   6.166 -29.328  1.00  0.00     0.294 C
HETATM    4  C12 UNL     1     -31.004   5.343 -29.247  1.00  0.00     0.240 C
HETATM    5  C13 UNL     1     -30.708   4.214 -28.290  1.00  0.00     0.075 C
HETATM    6  C14 UNL     1     -30.302   4.782 -26.980  1.00  0.00     0.240 C
ENDROOT
BRANCH   3   7
HETATM    7  O3  UNL     1     -28.647   5.402 -29.737  1.00  0.00    -0.348 OA
BRANCH   7   8
HETATM    8  C6  UNL     1     -28.309   5.659 -31.051  1.00  0.00     0.187 A
HETATM    9  C7  UNL     1     -28.548   4.537 -32.054  1.00  0.00     0.181 A
HETATM   10  C8  UNL     1     -27.137   4.956 -31.682  1.00  0.00     0.187 A
BRANCH   9  11
HETATM   11  O4  UNL     1     -29.039   4.874 -33.310  1.00  0.00    -0.390 OA
ATOM     12  H4  UNL     1     -29.574   4.236 -33.767  1.00  0.00     0.210 HD
ENDBRANCH   9  11
BRANCH  10  13
HETATM   13  O5  UNL     1     -26.435   5.538 -32.713  1.00  0.00    -0.348 OA
BRANCH  13  14
HETATM   14  C9  UNL     1     -25.979   4.582 -33.616  1.00  0.00     0.292 A
HETATM   15  O6  UNL     1     -26.782   4.451 -34.758  1.00  0.00    -0.357 OA
HETATM   16  C10 UNL     1     -25.846   5.017 -35.633  1.00  0.00     0.209 A
HETATM   17  C11 UNL     1     -24.879   5.089 -34.493  1.00  0.00     0.262 A
BRANCH  17  18
HETATM   18  N2  UNL     1     -24.370   6.398 -34.181  1.00  0.00    -0.068 N
ATOM     19  H23 UNL     1     -23.379   6.449 -34.420  1.00  0.00     0.275 HD
ATOM     20  H22 UNL     1     -24.753   7.082 -34.833  1.00  0.00     0.275 HD
ATOM     21  H21 UNL     1     -24.511   6.718 -33.223  1.00  0.00     0.275 HD
ENDBRANCH  17  18
ENDBRANCH  13  14
ENDBRANCH  10  13
ENDBRANCH   7   8
ENDBRANCH   3   7
BRANCH   4  22
HETATM   22  N3  UNL     1     -31.440   4.893 -30.530  1.00  0.00    -0.070 N
ATOM     23  H33 UNL     1     -32.086   5.559 -30.954  1.00  0.00     0.274 HD
ATOM     24  H32 UNL     1     -30.685   4.941 -31.213  1.00  0.00     0.274 HD
ATOM     25  H31 UNL     1     -31.846   3.958 -30.494  1.00  0.00     0.274 HD
ENDBRANCH   4  22
BRANCH   1  26
HETATM   26  O1  UNL     1     -29.574   6.684 -25.882  1.00  0.00    -0.354 OA
BRANCH  26  27
HETATM   27  C3  UNL     1     -30.894   6.902 -25.590  1.00  0.00     0.129 C
HETATM   28  C2  UNL     1     -31.327   8.337 -25.716  1.00  0.00     0.067 C
HETATM   29  C1  UNL     1     -32.564   8.388 -24.833  1.00  0.00     0.214 C
HETATM   30  C16 UNL     1     -32.415   7.282 -23.832  1.00  0.00     0.151 C
HETATM   31  C15 UNL     1     -31.093   6.634 -24.111  1.00  0.00     0.066 C
BRANCH  29  32
HETATM   32  N1  UNL     1     -33.777   8.214 -25.579  1.00  0.00    -0.072 N
ATOM     33  H13 UNL     1     -33.615   8.337 -26.578  1.00  0.00     0.274 HD
ATOM     34  H12 UNL     1     -34.071   7.237 -25.580  1.00  0.00     0.274 HD
ATOM     35  H11 UNL     1     -34.528   8.822 -25.251  1.00  0.00     0.274 HD
ENDBRANCH  29  32
BRANCH  30  36
HETATM   36  O7  UNL     1     -32.408   7.813 -22.521  1.00  0.00    -0.393 OA
ATOM     37  H7  UNL     1     -33.278   7.758 -22.145  1.00  0.00     0.210 HD
ENDBRANCH  30  36
ENDBRANCH  26  27
ENDBRANCH   1  26
BRANCH   6  38
HETATM   38  N4  UNL     1     -29.639   3.714 -26.218  1.00  0.00    -0.070 N
ATOM     39  H43 UNL     1     -28.622   3.757 -26.282  1.00  0.00     0.274 HD
ATOM     40  H42 UNL     1     -29.717   3.842 -25.209  1.00  0.00     0.274 HD
ATOM     41  H41 UNL     1     -30.018   2.823 -26.535  1.00  0.00     0.274 HD
ENDBRANCH   6  38
TORSDOF 12
ENDMDL