MODEL 2
REMARK VINA RESULT: -7.668297342      2.588      5.382
REMARK  11 active torsions:
REMARK  status: ('A' for Active; 'I' for Inactive)
REMARK    1  A    between atoms: C2_2  and  N1_3
REMARK    2  A    between atoms: C2_2  and  C12_36
REMARK    3  A    between atoms: N1_3  and  N2_5
REMARK    4  A    between atoms: N2_5  and  C3_7
REMARK    5  A    between atoms: C3_7  and  O1_8
REMARK    6  A    between atoms: C3_7  and  C4_10
REMARK    7  A    between atoms: C5_11  and  C6_12
REMARK    8  A    between atoms: C7_15  and  O4_16
REMARK    9  A    between atoms: C8_20  and  N4_21
REMARK   10  A    between atoms: C9_24  and  N5_25
REMARK       I    between atoms: N5_25  and  C10_27
REMARK   11  A    between atoms: C10_27  and  C11_29
ROOT
HETATM    1  C4  UNL     1     -31.025   5.952 -24.951  1.00  0.00     0.068 A
HETATM    2  C5  UNL     1     -30.788   4.607 -25.067  1.00  0.00     0.108 A
HETATM    3  C7  UNL     1     -30.087   4.128 -26.200  1.00  0.00     0.160 A
HETATM    4  N3  UNL     1     -29.662   4.943 -27.151  1.00  0.00    -0.321 N
ATOM      5  H3  UNL     1     -29.162   4.550 -27.949  1.00  0.00     0.169 HD
HETATM    6  C8  UNL     1     -29.862   6.254 -27.104  1.00  0.00     0.129 A
HETATM    7  C9  UNL     1     -30.532   6.753 -26.022  1.00  0.00     0.095 A
ENDROOT
BRANCH   1   8
HETATM    8  C3  UNL     1     -31.752   6.631 -23.933  1.00  0.00     0.169 C
BRANCH   8   9
HETATM    9  N2  UNL     1     -32.976   7.263 -23.822  1.00  0.00    -0.279 N
ATOM     10  H2  UNL     1     -33.757   7.055 -24.443  1.00  0.00     0.189 HD
BRANCH   9  11
HETATM   11  N1  UNL     1     -33.070   8.249 -22.753  1.00  0.00    -0.298 N
ATOM     12  H1  UNL     1     -32.351   8.310 -22.032  1.00  0.00     0.186 HD
BRANCH  11  13
HETATM   13  C2  UNL     1     -34.086   9.043 -22.744  1.00  0.00     0.086 C
HETATM   14  C1  UNL     1     -34.926   9.267 -21.548  1.00  0.00     0.075 C
BRANCH  13  15
HETATM   15  C12 UNL     1     -34.400   9.739 -23.980  1.00  0.00     0.278 C
HETATM   16  N10 UNL     1     -34.951   9.004 -25.053  1.00  0.00    -0.056 NA
HETATM   17  O6  UNL     1     -34.192  10.982 -24.121  1.00  0.00    -0.270 OA
ENDBRANCH  13  15
ENDBRANCH  11  13
ENDBRANCH   9  11
ENDBRANCH   8   9
BRANCH   8  18
HETATM   18  O1  UNL     1     -31.078   6.651 -22.776  1.00  0.00    -0.344 OA
ATOM     19  H1  UNL     1     -30.506   5.898 -22.690  1.00  0.00     0.219 HD
ENDBRANCH   8  18
ENDBRANCH   1   8
BRANCH   2  20
HETATM   20  C6  UNL     1     -31.304   3.641 -24.166  1.00  0.00     0.214 C
HETATM   21  O2  UNL     1     -32.141   2.762 -24.200  1.00  0.00    -0.644 OA
HETATM   22  O3  UNL     1     -30.716   3.654 -22.837  1.00  0.00    -0.644 OA
ENDBRANCH   2  20
BRANCH   7  23
HETATM   23  N5  UNL     1     -30.674   8.185 -26.024  1.00  0.00    -0.316 N
HETATM   24  C10 UNL     1     -31.729   8.758 -26.788  1.00  0.00     0.292 C
HETATM   25  O5  UNL     1     -32.495   8.029 -27.429  1.00  0.00    -0.264 OA
ATOM     26  H5  UNL     1     -30.034   8.774 -25.491  1.00  0.00     0.169 HD
BRANCH  24  27
HETATM   27  C11 UNL     1     -31.922  10.196 -26.830  1.00  0.00     0.200 A
HETATM   28  N6  UNL     1     -33.070  10.867 -26.979  1.00  0.00    -0.266 N
HETATM   29  N7  UNL     1     -32.806  12.168 -26.963  1.00  0.00    -0.007 NA
ATOM     30  H6  UNL     1     -33.995  10.448 -27.087  1.00  0.00     0.185 HD
HETATM   31  N8  UNL     1     -31.507  12.351 -26.806  1.00  0.00    -0.007 NA
HETATM   32  N9  UNL     1     -30.963  11.149 -26.724  1.00  0.00    -0.266 N
ATOM     33  H9  UNL     1     -29.967  10.964 -26.599  1.00  0.00     0.185 HD
ENDBRANCH  24  27
ENDBRANCH   7  23
BRANCH   3  34
HETATM   34  O4  UNL     1     -29.866   2.752 -26.265  1.00  0.00    -0.345 OA
ATOM     35  H4  UNL     1     -29.680   2.391 -27.124  1.00  0.00     0.219 HD
ENDBRANCH   3  34
BRANCH   6  36
HETATM   36  N4  UNL     1     -29.435   7.036 -28.057  1.00  0.00    -0.384 N
ATOM     37  H42 UNL     1     -28.825   6.687 -28.796  1.00  0.00     0.157 HD
ATOM     38  H41 UNL     1     -29.699   8.022 -28.089  1.00  0.00     0.157 HD
ENDBRANCH   6  36
TORSDOF 11
ENDMDL