MODEL 3
REMARK VINA RESULT: -4.428778655      1.225      2.428
REMARK  0 active torsions:
REMARK  status: ('A' for Active; 'I' for Inactive)
ROOT
HETATM    1  C1  UNL     1       0.812  77.942  79.496  1.00  0.00     0.143 C
HETATM    2  N1  UNL     1       2.015  77.487  80.139  1.00  0.00    -0.200 NA
HETATM    3  C2  UNL     1       2.942  76.845  79.269  1.00  0.00     0.139 C
HETATM    4  C3  UNL     1       2.411  75.796  78.383  1.00  0.00     0.130 C
HETATM    5  N2  UNL     1       1.548  74.875  79.013  1.00  0.00    -0.418 N
ATOM      6  H2  UNL     1       0.829  74.388  78.477  1.00  0.00     0.153 HD
HETATM    7  C4  UNL     1       1.694  74.642  80.379  1.00  0.00     0.142 C
HETATM    8  C5  UNL     1       0.923  75.741  81.123  1.00  0.00     0.213 C
HETATM    9  O1  UNL     1       1.771  76.796  81.282  1.00  0.00    -0.302 OA
ENDROOT
TORSDOF 0
ENDMDL