MODEL 5
REMARK VINA RESULT: -4.690671970      1.607      2.523
REMARK  0 active torsions:
REMARK  status: ('A' for Active; 'I' for Inactive)
ROOT
HETATM    1  N1  UNL     1      -0.380  76.356  79.404  1.00  0.00    -0.195 NA
HETATM    2  C1  UNL     1      -0.716  75.278  79.654  1.00  0.00     0.095 C
HETATM    3  C2  UNL     1      -1.122  73.888  79.970  1.00  0.00     0.328 C
HETATM    4  N2  UNL     1       0.068  73.042  79.786  1.00  0.00    -0.030 N
ATOM      5  H21 UNL     1       0.375  72.519  80.606  1.00  0.00     0.280 HD
ATOM      6  H22 UNL     1       0.953  73.536  79.670  1.00  0.00     0.280 HD
HETATM    7  C3  UNL     1      -0.373  72.239  78.639  1.00  0.00     0.505 C
HETATM    8  N3  UNL     1      -1.650  71.925  78.884  1.00  0.00     0.125 N
HETATM    9  C4  UNL     1      -2.916  72.228  79.147  1.00  0.00     0.314 A
HETATM   10  C5  UNL     1      -2.145  73.390  79.002  1.00  0.00     0.297 A
ENDROOT
TORSDOF 0
ENDMDL