MODEL 3
REMARK VINA RESULT: -4.896154954      1.473      2.634
REMARK  3 active torsions:
REMARK  status: ('A' for Active; 'I' for Inactive)
REMARK    1  A    between atoms: C3_5  and  C4_7
REMARK    2  A    between atoms: C5_8  and  C6_9
REMARK    3  A    between atoms: C6_9  and  N3_10
ROOT
HETATM    1  C1  UNL     1       0.742  77.551  79.819  1.00  0.00     0.123 C
HETATM    2  C2  UNL     1       1.176  76.594  80.446  1.00  0.00    -0.074 C
HETATM    3  N1  UNL     1       1.655  75.494  81.148  1.00  0.00    -0.307 N
ATOM      4  H1  UNL     1       2.531  75.585  81.661  1.00  0.00     0.177 HD
HETATM    5  C3  UNL     1       1.036  74.367  81.176  1.00  0.00     0.177 C
HETATM    6  N2  UNL     1       1.612  73.309  81.923  1.00  0.00    -0.072 NA
ENDROOT
BRANCH   5   7
HETATM    7  C4  UNL     1      -0.195  74.221  80.461  1.00  0.00    -0.031 C
HETATM    8  C5  UNL     1      -1.233  74.087  79.847  1.00  0.00    -0.071 C
BRANCH   8   9
HETATM    9  C6  UNL     1      -2.502  73.910  79.123  1.00  0.00     0.323 C
BRANCH   9  10
HETATM   10  N3  UNL     1      -3.539  73.660  80.100  1.00  0.00    -0.069 N
ATOM     11  H33 UNL     1      -3.169  73.504  81.037  1.00  0.00     0.275 HD
ATOM     12  H32 UNL     1      -4.093  74.490  80.309  1.00  0.00     0.275 HD
ATOM     13  H31 UNL     1      -4.104  72.881  79.763  1.00  0.00     0.275 HD
ENDBRANCH   9  10
ENDBRANCH   8   9
ENDBRANCH   5   7
TORSDOF 3
ENDMDL