MODEL 1
REMARK VINA RESULT: -4.303497799      0.000      0.000
REMARK  1 active torsions:
REMARK  status: ('A' for Active; 'I' for Inactive)
REMARK    1  A    between atoms: N2_3  and  C2_5
ROOT
HETATM    1  N1  UNL     1       4.109  78.163  77.614  1.00  0.00    -0.172 NA
HETATM    2  C1  UNL     1       3.066  77.636  77.577  1.00  0.00     0.183 C
HETATM    3  N2  UNL     1       1.820  77.008  77.521  1.00  0.00    -0.272 N
ATOM      4  H2  UNL     1       1.678  76.243  76.860  1.00  0.00     0.180 HD
ENDROOT
BRANCH   3   5
HETATM    5  C2  UNL     1       0.745  77.404  78.357  1.00  0.00     0.194 C
HETATM    6  N3  UNL     1      -0.521  77.691  77.727  1.00  0.00    -0.069 NA
HETATM    7  S1  UNL     1       0.877  77.544  79.965  1.00  0.00    -0.043 SA
ENDBRANCH   3   5
TORSDOF 1
ENDMDL