MODEL 4
REMARK VINA RESULT: -4.567197474      3.057      3.458
REMARK  1 active torsions:
REMARK  status: ('A' for Active; 'I' for Inactive)
REMARK    1  A    between atoms: N2_6  and  O1_7
ROOT
HETATM    1  C1  UNL     1       2.632  76.684  80.614  1.00  0.00     0.298 C
HETATM    2  N1  UNL     1       2.748  76.302  79.205  1.00  0.00     0.020 N
HETATM    3  C2  UNL     1       2.185  74.961  79.110  1.00  0.00     0.298 C
HETATM    4  C3  UNL     1       2.049  77.257  78.390  1.00  0.00     0.279 C
HETATM    5  C4  UNL     1       3.069  77.793  77.427  1.00  0.00     0.173 C
HETATM    6  N2  UNL     1       4.304  77.232  77.877  1.00  0.00    -0.083 NA
HETATM    7  N3  UNL     1       4.057  76.236  78.778  1.00  0.00     0.072 NA
ENDROOT
BRANCH   6   8
HETATM    8  O1  UNL     1       5.207  78.148  78.281  1.00  0.00    -0.295 OA
ATOM      9  H1  UNL     1       6.093  77.973  77.985  1.00  0.00     0.238 HD
ENDBRANCH   6   8
TORSDOF 1
ENDMDL