MODEL 4
REMARK VINA RESULT: -4.360043450      2.193      2.693
REMARK  1 active torsions:
REMARK  status: ('A' for Active; 'I' for Inactive)
REMARK    1  A    between atoms: C5_9  and  O1_10
ROOT
HETATM    1  C1  UNL     1       1.102  77.025  80.834  1.00  0.00     0.312 C
HETATM    2  N1  UNL     1       2.392  76.941  80.202  1.00  0.00     0.120 N
HETATM    3  C2  UNL     1       2.993  75.613  80.457  1.00  0.00     0.310 C
HETATM    4  C3  UNL     1       3.096  75.131  79.046  1.00  0.00     0.249 C
HETATM    5  N2  UNL     1       1.836  75.564  78.433  1.00  0.00    -0.032 N
ATOM      6  H21 UNL     1       0.926  75.217  78.735  1.00  0.00     0.280 HD
ATOM      7  H22 UNL     1       1.559  75.294  77.489  1.00  0.00     0.280 HD
HETATM    8  C4  UNL     1       2.325  76.903  78.764  1.00  0.00     0.450 C
HETATM    9  C5  UNL     1       3.701  76.352  78.358  1.00  0.00     0.211 C
ENDROOT
BRANCH   9  10
HETATM   10  O1  UNL     1       3.811  76.133  77.000  1.00  0.00    -0.389 OA
ATOM     11  H1  UNL     1       3.683  76.944  76.523  1.00  0.00     0.210 HD
ENDBRANCH   9  10
TORSDOF 1
ENDMDL