MODEL 1
REMARK VINA RESULT: -5.131584428      0.000      0.000
REMARK  1 active torsions:
REMARK  status: ('A' for Active; 'I' for Inactive)
REMARK    1  A    between atoms: N4_8  and  O1_9
ROOT
HETATM    1  N1  UNL     1       2.996  78.525  77.492  1.00  0.00    -0.170 NA
HETATM    2  C1  UNL     1       2.244  77.780  77.997  1.00  0.00     0.208 C
HETATM    3  N2  UNL     1       1.330  76.900  78.597  1.00  0.00    -0.158 N
HETATM    4  C2  UNL     1       1.680  75.943  79.499  1.00  0.00     0.151 A
HETATM    5  C3  UNL     1       0.510  75.293  79.850  1.00  0.00     0.131 A
HETATM    6  N3  UNL     1      -0.461  75.898  79.143  1.00  0.00    -0.268 N
ATOM      7  H3  UNL     1      -1.449  75.645  79.183  1.00  0.00     0.190 HD
HETATM    8  N4  UNL     1       0.033  76.865  78.390  1.00  0.00    -0.080 N
ENDROOT
BRANCH   8   9
HETATM    9  O1  UNL     1      -0.663  77.704  77.528  1.00  0.00    -0.252 OA
ATOM     10  H1  UNL     1      -1.355  77.430  76.937  1.00  0.00     0.248 HD
ENDBRANCH   8   9
TORSDOF 1
ENDMDL