MODEL 3
REMARK VINA RESULT: -4.591051618      6.273      6.773
REMARK  1 active torsions:
REMARK  status: ('A' for Active; 'I' for Inactive)
REMARK    1  A    between atoms: O1_1  and  N1_3
ROOT
HETATM    1  N1  UNL     1       2.861  77.744  78.468  1.00  0.00    -0.198 NA
HETATM    2  C1  UNL     1       3.386  76.571  77.835  1.00  0.00     0.122 C
HETATM    3  C2  UNL     1       3.508  75.383  78.718  1.00  0.00     0.043 C
HETATM    4  C3  UNL     1       3.330  75.665  80.178  1.00  0.00     0.169 C
HETATM    5  O2  UNL     1       2.023  75.866  80.561  1.00  0.00    -0.390 OA
HETATM    6  C4  UNL     1       1.643  77.199  80.439  1.00  0.00     0.184 C
HETATM    7  C5  UNL     1       1.524  77.469  78.936  1.00  0.00     0.146 C
ENDROOT
BRANCH   1   8
HETATM    8  O1  UNL     1       2.867  78.754  77.576  1.00  0.00    -0.313 OA
ATOM      9  H1  UNL     1       2.393  79.489  77.947  1.00  0.00     0.237 HD
ENDBRANCH   1   8
TORSDOF 1
ENDMDL