MODEL 3
REMARK VINA RESULT: -6.330260015     15.018     19.748
REMARK  14 active torsions:
REMARK  status: ('A' for Active; 'I' for Inactive)
REMARK    1  A    between atoms: C3_3  and  C4_4
REMARK    2  A    between atoms: C4_4  and  N1_5
REMARK    3  A    between atoms: C5_6  and  O1_7
REMARK    4  A    between atoms: C7_12  and  C8_13
REMARK    5  A    between atoms: C13_21  and  C14_22
REMARK    6  A    between atoms: C14_22  and  C15_23
REMARK    7  A    between atoms: C18_26  and  O3_27
REMARK    8  A    between atoms: C19_31  and  C20_32
REMARK    9  A    between atoms: C20_32  and  C21_33
REMARK   10  A    between atoms: C25_40  and  C26_41
REMARK   11  A    between atoms: C26_41  and  C27_42
REMARK   12  A    between atoms: C27_42  and  C28_43
REMARK   13  A    between atoms: C31_49  and  C32_50
REMARK   14  A    between atoms: C32_50  and  C33_51
ROOT
HETATM    1  C1  UNL     1     -16.353   0.406 -11.186  1.00  0.00     0.097 C
HETATM    2  C2  UNL     1     -15.771   1.419 -11.808  1.00  0.00    -0.186 C
HETATM    3  C3  UNL     1     -15.300   2.468 -12.414  1.00  0.00     0.100 C
ENDROOT
BRANCH   3   4
HETATM    4  C4  UNL     1     -16.209   3.608 -12.593  1.00  0.00     0.147 C
BRANCH   4   5
HETATM    5  N1  UNL     1     -16.900   3.574 -13.882  1.00  0.00    -0.281 N
HETATM    6  C5  UNL     1     -17.994   2.676 -14.032  1.00  0.00     0.226 C
HETATM    7  N2  UNL     1     -18.294   1.645 -14.907  1.00  0.00    -0.318 N
HETATM    8  C6  UNL     1     -18.017   0.248 -15.041  1.00  0.00     0.100 C
ATOM      9  H2  UNL     1     -18.880   1.976 -15.673  1.00  0.00     0.169 HD
HETATM   10  C7  UNL     1     -16.671  -0.266 -15.002  1.00  0.00     0.017 C
HETATM   11  C12 UNL     1     -18.944  -0.413 -16.049  1.00  0.00     0.268 C
HETATM   12  O2  UNL     1     -18.424  -1.467 -16.591  1.00  0.00    -0.266 OA
HETATM   13  N3  UNL     1     -20.225   0.003 -16.404  1.00  0.00    -0.344 N
HETATM   14  C13 UNL     1     -21.447   0.109 -15.593  1.00  0.00     0.159 C
ATOM     15  H3  UNL     1     -20.332   0.279 -17.380  1.00  0.00     0.163 HD
HETATM   16  C18 UNL     1     -21.919   1.491 -15.423  1.00  0.00     0.135 C
HETATM   17  N4  UNL     1     -22.388   2.419 -16.342  1.00  0.00    -0.359 N
HETATM   18  C19 UNL     1     -21.837   2.862 -17.619  1.00  0.00     0.176 C
ATOM     19  H4  UNL     1     -23.266   2.868 -16.080  1.00  0.00     0.162 HD
HETATM   20  C24 UNL     1     -21.898   4.369 -17.645  1.00  0.00     0.244 C
HETATM   21  O4  UNL     1     -23.031   4.815 -18.070  1.00  0.00    -0.271 OA
HETATM   22  N5  UNL     1     -20.921   5.286 -17.276  1.00  0.00    -0.324 N
HETATM   23  C25 UNL     1     -19.660   5.666 -17.807  1.00  0.00     0.080 C
ATOM     24  H5  UNL     1     -21.165   5.804 -16.432  1.00  0.00     0.169 HD
HETATM   25  C30 UNL     1     -18.596   4.646 -17.893  1.00  0.00     0.264 C
HETATM   26  O5  UNL     1     -18.588   3.891 -18.912  1.00  0.00    -0.266 OA
HETATM   27  N6  UNL     1     -17.570   4.419 -16.948  1.00  0.00    -0.342 N
HETATM   28  C31 UNL     1     -17.248   5.271 -15.821  1.00  0.00     0.186 C
ATOM     29  H6  UNL     1     -17.004   3.579 -17.071  1.00  0.00     0.163 HD
HETATM   30  C34 UNL     1     -16.401   4.490 -14.854  1.00  0.00     0.250 C
HETATM   31  O7  UNL     1     -15.161   4.665 -14.917  1.00  0.00    -0.271 OA
BRANCH   6  32
HETATM   32  O1  UNL     1     -18.891   2.955 -13.089  1.00  0.00    -0.332 OA
ATOM     33  H1  UNL     1     -19.184   2.136 -12.708  1.00  0.00     0.221 HD
ENDBRANCH   6  32
BRANCH  10  34
HETATM   34  C8  UNL     1     -15.505  -0.061 -15.799  1.00  0.00    -0.031 C
HETATM   35  C9  UNL     1     -14.289  -0.155 -14.787  1.00  0.00     0.019 C
HETATM   36  C10 UNL     1     -15.134  -1.209 -16.755  1.00  0.00     0.019 C
HETATM   37  C11 UNL     1     -15.203   1.185 -16.530  1.00  0.00     0.019 C
ENDBRANCH  10  34
BRANCH  14  38
HETATM   38  C14 UNL     1     -22.443  -0.860 -16.184  1.00  0.00     0.037 C
BRANCH  38  39
HETATM   39  C15 UNL     1     -23.843  -0.781 -15.738  1.00  0.00    -0.020 C
HETATM   40  C16 UNL     1     -24.402  -1.873 -14.912  1.00  0.00     0.009 C
HETATM   41  C17 UNL     1     -24.718  -0.510 -16.973  1.00  0.00     0.009 C
ENDBRANCH  38  39
ENDBRANCH  14  38
BRANCH  16  42
HETATM   42  O3  UNL     1     -21.872   1.884 -14.173  1.00  0.00    -0.348 OA
ATOM     43  H3  UNL     1     -22.222   2.760 -14.057  1.00  0.00     0.219 HD
ENDBRANCH  16  42
BRANCH  18  44
HETATM   44  C20 UNL     1     -22.832   2.327 -18.646  1.00  0.00     0.038 C
BRANCH  44  45
HETATM   45  C21 UNL     1     -22.414   1.125 -19.388  1.00  0.00    -0.020 C
HETATM   46  C22 UNL     1     -23.272   0.937 -20.610  1.00  0.00     0.009 C
HETATM   47  C23 UNL     1     -20.984   1.344 -19.904  1.00  0.00     0.009 C
ENDBRANCH  44  45
ENDBRANCH  18  44
BRANCH  23  48
HETATM   48  C26 UNL     1     -19.701   6.553 -19.029  1.00  0.00     0.063 C
BRANCH  48  49
HETATM   49  C27 UNL     1     -19.979   7.982 -18.831  1.00  0.00     0.006 C
BRANCH  49  50
HETATM   50  C28 UNL     1     -21.427   8.231 -19.301  1.00  0.00    -0.004 C
HETATM   51  C29 UNL     1     -21.920   9.574 -18.871  1.00  0.00     0.005 C
ENDBRANCH  49  50
ENDBRANCH  48  49
ENDBRANCH  23  48
BRANCH  28  52
HETATM   52  C32 UNL     1     -16.469   6.493 -16.216  1.00  0.00     0.134 C
BRANCH  52  53
HETATM   53  C33 UNL     1     -16.881   7.726 -15.506  1.00  0.00     0.233 C
HETATM   54  N7  UNL     1     -15.851   8.440 -14.784  1.00  0.00    -0.062 NA
HETATM   55  O6  UNL     1     -18.018   8.215 -15.462  1.00  0.00    -0.277 OA
ENDBRANCH  52  53
ENDBRANCH  28  52
ENDBRANCH   4   5
ENDBRANCH   3   4
TORSDOF 14
ENDMDL