MODEL 1
REMARK VINA RESULT: -9.521073946      0.000      0.000
REMARK  13 active torsions:
REMARK  status: ('A' for Active; 'I' for Inactive)
REMARK    1  A    between atoms: C4_6  and  C5_7
REMARK    2  A    between atoms: C5_7  and  C6_8
REMARK    3  A    between atoms: C10_15  and  C11_16
REMARK    4  A    between atoms: C11_16  and  C12_17
REMARK    5  A    between atoms: C12_17  and  C13_18
REMARK    6  A    between atoms: C13_18  and  N3_19
REMARK    7  A    between atoms: C16_28  and  C17_29
REMARK    8  A    between atoms: C17_29  and  C18_30
REMARK    9  A    between atoms: C18_30  and  C19_31
REMARK   10  A    between atoms: C21_35  and  O4_36
REMARK   11  A    between atoms: C22_38  and  C23_39
REMARK   12  A    between atoms: C23_39  and  C24_40
REMARK   13  A    between atoms: C29_47  and  O5_48
ROOT
HETATM    1  C1  UNL     1     -16.337  18.863 -25.325  1.00  0.00     0.029 C
HETATM    2  C2  UNL     1     -16.623  17.998 -24.374  1.00  0.00     0.053 C
HETATM    3  C3  UNL     1     -17.700  17.854 -23.403  1.00  0.00     0.256 C
HETATM    4  O1  UNL     1     -18.476  18.644 -22.761  1.00  0.00    -0.268 OA
HETATM    5  N1  UNL     1     -17.498  16.448 -23.488  1.00  0.00    -0.292 N
HETATM    6  C4  UNL     1     -17.993  15.117 -23.401  1.00  0.00     0.193 C
HETATM    7  N2  UNL     1     -18.625  14.939 -22.077  1.00  0.00    -0.335 N
ATOM      8  H2  UNL     1     -18.520  15.720 -21.429  1.00  0.00     0.164 HD
HETATM    9  C9  UNL     1     -19.339  13.857 -21.599  1.00  0.00     0.265 C
HETATM   10  O2  UNL     1     -20.514  14.122 -21.134  1.00  0.00    -0.266 OA
HETATM   11  C10 UNL     1     -18.996  12.421 -21.521  1.00  0.00     0.080 C
HETATM   12  N6  UNL     1     -17.631  12.073 -21.337  1.00  0.00    -0.324 N
ATOM     13  H6  UNL     1     -17.425  11.110 -21.603  1.00  0.00     0.169 HD
HETATM   14  C15 UNL     1     -16.515  12.757 -20.874  1.00  0.00     0.244 C
HETATM   15  O3  UNL     1     -15.431  12.600 -21.504  1.00  0.00    -0.271 OA
HETATM   16  C16 UNL     1     -16.373  13.664 -19.737  1.00  0.00     0.175 C
HETATM   17  N7  UNL     1     -15.312  14.617 -19.789  1.00  0.00    -0.359 N
ATOM     18  H7  UNL     1     -14.565  14.410 -19.127  1.00  0.00     0.162 HD
HETATM   19  C21 UNL     1     -15.063  15.771 -20.542  1.00  0.00     0.146 C
HETATM   20  C22 UNL     1     -14.707  15.979 -21.946  1.00  0.00     0.303 C
HETATM   21  N9  UNL     1     -15.507  17.085 -22.467  1.00  0.00     0.124 N
HETATM   22  C33 UNL     1     -14.751  18.324 -22.538  1.00  0.00     0.314 C
HETATM   23  C34 UNL     1     -16.095  16.760 -23.763  1.00  0.00     0.367 C
ENDROOT
BRANCH  20  24
HETATM   24  C23 UNL     1     -13.267  16.274 -22.219  1.00  0.00     0.085 C
BRANCH  24  25
HETATM   25  C24 UNL     1     -12.730  15.803 -23.499  1.00  0.00    -0.028 A
HETATM   26  C25 UNL     1     -12.303  14.493 -23.789  1.00  0.00     0.096 A
HETATM   27  N8  UNL     1     -11.842  14.491 -25.034  1.00  0.00    -0.365 N
HETATM   28  C26 UNL     1     -11.937  15.710 -25.587  1.00  0.00     0.043 A
ATOM     29  H8  UNL     1     -11.465  13.671 -25.509  1.00  0.00     0.165 HD
HETATM   30  C27 UNL     1     -11.623  16.220 -26.820  1.00  0.00     0.033 A
HETATM   31  C32 UNL     1     -12.499  16.548 -24.624  1.00  0.00     0.001 A
HETATM   32  C28 UNL     1     -11.833  17.541 -27.178  1.00  0.00     0.039 A
HETATM   33  C29 UNL     1     -12.388  18.381 -26.240  1.00  0.00     0.069 A
HETATM   34  C31 UNL     1     -12.705  17.872 -24.999  1.00  0.00     0.051 A
BRANCH  33  35
HETATM   35  O5  UNL     1     -12.640  19.720 -26.499  1.00  0.00    -0.356 OA
HETATM   36  C30 UNL     1     -13.470  20.135 -27.566  1.00  0.00     0.210 C
ENDBRANCH  33  35
ENDBRANCH  24  25
ENDBRANCH  20  24
BRANCH  19  37
HETATM   37  O4  UNL     1     -15.142  16.925 -19.942  1.00  0.00    -0.348 OA
ATOM     38  H4  UNL     1     -15.972  17.387 -19.965  1.00  0.00     0.219 HD
ENDBRANCH  19  37
BRANCH  16  39
HETATM   39  C17 UNL     1     -16.076  12.704 -18.552  1.00  0.00     0.035 C
BRANCH  39  40
HETATM   40  C18 UNL     1     -14.718  12.937 -17.970  1.00  0.00     0.002 C
BRANCH  40  41
HETATM   41  C19 UNL     1     -14.218  11.611 -17.382  1.00  0.00    -0.004 C
HETATM   42  C20 UNL     1     -14.912  10.516 -18.189  1.00  0.00     0.005 C
ENDBRANCH  40  41
ENDBRANCH  39  40
ENDBRANCH  16  39
BRANCH   6  43
HETATM   43  C5  UNL     1     -18.823  14.665 -24.512  1.00  0.00     0.051 C
BRANCH  43  44
HETATM   44  C6  UNL     1     -20.054  15.336 -24.942  1.00  0.00    -0.019 C
HETATM   45  C7  UNL     1     -19.566  16.428 -25.965  1.00  0.00     0.009 C
HETATM   46  C8  UNL     1     -20.794  16.167 -23.925  1.00  0.00     0.009 C
ENDBRANCH  43  44
ENDBRANCH   6  43
BRANCH  11  47
HETATM   47  C11 UNL     1     -19.977  11.592 -20.759  1.00  0.00     0.064 C
BRANCH  47  48
HETATM   48  C12 UNL     1     -19.773  11.416 -19.306  1.00  0.00     0.026 C
BRANCH  48  49
HETATM   49  C13 UNL     1     -19.186  10.073 -18.937  1.00  0.00     0.122 C
BRANCH  49  50
HETATM   50  N3  UNL     1     -18.501  10.049 -17.685  1.00  0.00    -0.367 N
HETATM   51  C14 UNL     1     -18.388   8.902 -17.103  1.00  0.00     0.196 C
HETATM   52  N4  UNL     1     -17.716   8.828 -15.860  1.00  0.00    -0.067 NA
HETATM   53  N5  UNL     1     -18.909   7.691 -17.650  1.00  0.00    -0.067 NA
ATOM     54  H3  UNL     1     -18.119  10.899 -17.270  1.00  0.00     0.161 HD
ENDBRANCH  49  50
ENDBRANCH  48  49
ENDBRANCH  47  48
ENDBRANCH  11  47
TORSDOF 13
ENDMDL