MODEL 3
REMARK VINA RESULT: -6.603562399      2.506      3.722
REMARK  13 active torsions:
REMARK  status: ('A' for Active; 'I' for Inactive)
REMARK    1  A    between atoms: C2_2  and  C3_4
REMARK    2  A    between atoms: C3_4  and  C4_5
REMARK    3  A    between atoms: C4_5  and  N1_7
REMARK       I    between atoms: N1_7  and  C6_9
REMARK    4  A    between atoms: C6_9  and  C7_11
REMARK    5  A    between atoms: C9_16  and  C10_17
REMARK    6  A    between atoms: C10_17  and  C11_18
REMARK    7  A    between atoms: C15_25  and  C16_26
REMARK    8  A    between atoms: C20_33  and  C21_34
REMARK    9  A    between atoms: C25_41  and  C26_42
REMARK   10  A    between atoms: C26_42  and  C27_43
REMARK   11  A    between atoms: C30_46  and  O7_47
REMARK   12  A    between atoms: C31_51  and  C32_52
REMARK   13  A    between atoms: C32_52  and  C33_53
ROOT
HETATM    1  C7  UNL     1     -19.370   5.631 -17.502  1.00  0.00     0.192 C
HETATM    2  C8  UNL     1     -18.438   4.597 -17.893  1.00  0.00     0.233 C
HETATM    3  O3  UNL     1     -18.692   3.898 -18.919  1.00  0.00    -0.273 OA
HETATM    4  N2  UNL     1     -17.229   4.280 -17.225  1.00  0.00    -0.347 N
ATOM      5  H2  UNL     1     -16.382   4.219 -17.790  1.00  0.00     0.163 HD
HETATM    6  C9  UNL     1     -17.101   4.032 -15.781  1.00  0.00     0.177 C
HETATM    7  C14 UNL     1     -16.164   2.848 -15.717  1.00  0.00     0.241 C
HETATM    8  O4  UNL     1     -14.934   3.124 -15.863  1.00  0.00    -0.271 OA
HETATM    9  N3  UNL     1     -16.586   1.521 -15.516  1.00  0.00    -0.346 N
ATOM     10  H3  UNL     1     -16.145   1.004 -14.755  1.00  0.00     0.163 HD
HETATM   11  C15 UNL     1     -17.589   0.822 -16.291  1.00  0.00     0.180 C
HETATM   12  C19 UNL     1     -18.176  -0.240 -15.442  1.00  0.00     0.241 C
HETATM   13  O5  UNL     1     -17.431  -1.197 -15.104  1.00  0.00    -0.271 OA
HETATM   14  N4  UNL     1     -19.505  -0.243 -14.994  1.00  0.00    -0.346 N
ATOM     15  H4  UNL     1     -19.684  -0.627 -14.067  1.00  0.00     0.163 HD
HETATM   16  C20 UNL     1     -20.644   0.253 -15.738  1.00  0.00     0.180 C
HETATM   17  C24 UNL     1     -20.938   1.651 -15.349  1.00  0.00     0.241 C
HETATM   18  O6  UNL     1     -20.239   2.157 -14.404  1.00  0.00    -0.271 OA
HETATM   19  N5  UNL     1     -21.945   2.446 -15.966  1.00  0.00    -0.347 N
ATOM     20  H5  UNL     1     -22.359   3.201 -15.419  1.00  0.00     0.163 HD
HETATM   21  C25 UNL     1     -22.422   2.250 -17.327  1.00  0.00     0.159 C
HETATM   22  C30 UNL     1     -21.837   3.148 -18.327  1.00  0.00     0.135 C
HETATM   23  N6  UNL     1     -21.430   4.472 -18.274  1.00  0.00    -0.367 N
ATOM     24  H6  UNL     1     -21.610   4.989 -19.136  1.00  0.00     0.161 HD
HETATM   25  C31 UNL     1     -20.813   5.256 -17.259  1.00  0.00     0.105 C
ENDROOT
BRANCH   1  26
HETATM   26  C6  UNL     1     -19.229   6.813 -18.428  1.00  0.00     0.233 C
HETATM   27  N1  UNL     1     -18.566   8.006 -18.013  1.00  0.00    -0.356 N
ATOM     28  H1  UNL     1     -18.185   8.047 -17.068  1.00  0.00     0.162 HD
HETATM   29  O2  UNL     1     -19.684   6.808 -19.607  1.00  0.00    -0.273 OA
BRANCH  27  30
HETATM   30  C4  UNL     1     -18.412   9.149 -18.863  1.00  0.00     0.087 C
HETATM   31  C5  UNL     1     -17.046   9.761 -18.727  1.00  0.00     0.032 C
BRANCH  30  32
HETATM   32  C3  UNL     1     -19.459  10.210 -18.609  1.00  0.00     0.102 C
BRANCH  32  33
HETATM   33  C2  UNL     1     -20.571  10.007 -19.577  1.00  0.00     0.125 C
HETATM   34  C1  UNL     1     -21.961   9.699 -19.113  1.00  0.00     0.091 C
HETATM   35  O1  UNL     1     -20.392  10.084 -20.781  1.00  0.00    -0.298 OA
ENDBRANCH  32  33
ENDBRANCH  30  32
ENDBRANCH  27  30
ENDBRANCH   1  26
BRANCH  25  36
HETATM   36  C32 UNL     1     -21.517   6.631 -17.281  1.00  0.00     0.030 C
BRANCH  36  37
HETATM   37  C33 UNL     1     -21.788   7.229 -15.961  1.00  0.00    -0.021 C
HETATM   38  C34 UNL     1     -20.924   8.404 -15.648  1.00  0.00     0.009 C
HETATM   39  C35 UNL     1     -23.233   7.759 -16.032  1.00  0.00     0.009 C
ENDBRANCH  36  37
ENDBRANCH  25  36
BRANCH   6  40
HETATM   40  C10 UNL     1     -16.437   5.223 -15.142  1.00  0.00     0.038 C
BRANCH  40  41
HETATM   41  C11 UNL     1     -16.351   6.469 -15.913  1.00  0.00    -0.020 C
HETATM   42  C12 UNL     1     -16.945   7.708 -15.363  1.00  0.00     0.009 C
HETATM   43  C13 UNL     1     -14.881   6.666 -16.295  1.00  0.00     0.009 C
ENDBRANCH  40  41
ENDBRANCH   6  40
BRANCH  22  44
HETATM   44  O7  UNL     1     -21.667   2.592 -19.495  1.00  0.00    -0.348 OA
ATOM     45  H7  UNL     1     -21.724   3.204 -20.220  1.00  0.00     0.219 HD
ENDBRANCH  22  44
BRANCH  21  46
HETATM   46  C26 UNL     1     -23.898   2.181 -17.267  1.00  0.00     0.037 C
BRANCH  46  47
HETATM   47  C27 UNL     1     -24.604   0.924 -17.523  1.00  0.00    -0.020 C
HETATM   48  C28 UNL     1     -25.191   0.241 -16.329  1.00  0.00     0.009 C
HETATM   49  C29 UNL     1     -23.848   0.001 -18.423  1.00  0.00     0.009 C
ENDBRANCH  46  47
ENDBRANCH  21  46
BRANCH  11  50
HETATM   50  C16 UNL     1     -16.862   0.215 -17.481  1.00  0.00     0.009 C
HETATM   51  C17 UNL     1     -15.555  -0.393 -17.098  1.00  0.00     0.012 C
HETATM   52  C18 UNL     1     -17.729  -0.774 -18.190  1.00  0.00     0.012 C
ENDBRANCH  11  50
BRANCH  16  53
HETATM   53  C21 UNL     1     -21.808  -0.689 -15.417  1.00  0.00     0.009 C
HETATM   54  C22 UNL     1     -21.715  -1.066 -13.957  1.00  0.00     0.012 C
HETATM   55  C23 UNL     1     -21.527  -1.962 -16.211  1.00  0.00     0.012 C
ENDBRANCH  16  53
TORSDOF 13
ENDMDL