MODEL 3
REMARK VINA RESULT: -7.974203274      2.003      6.023
REMARK  13 active torsions:
REMARK  status: ('A' for Active; 'I' for Inactive)
REMARK    1  A    between atoms: C2_2  and  C3_3
REMARK    2  A    between atoms: C3_3  and  N1_4
REMARK       I    between atoms: N1_4  and  C4_5
REMARK    3  A    between atoms: C4_5  and  C5_7
REMARK    4  A    between atoms: C5_7  and  C6_8
REMARK    5  A    between atoms: C8_13  and  C9_14
REMARK    6  A    between atoms: C9_14  and  C10_15
REMARK    7  A    between atoms: C13_20  and  O3_21
REMARK    8  A    between atoms: C14_23  and  C15_24
REMARK    9  A    between atoms: C15_24  and  C16_25
REMARK   10  A    between atoms: C19_31  and  C20_32
REMARK   11  A    between atoms: C20_32  and  C21_33
REMARK   12  A    between atoms: C25_40  and  C26_41
REMARK   13  A    between atoms: C26_41  and  C27_42
ROOT
HETATM    1  C6  UNL     1     -15.187  13.221 -20.347  1.00  0.00     0.164 C
HETATM    2  N2  UNL     1     -15.989  12.802 -21.489  1.00  0.00    -0.347 N
ATOM      3  H2  UNL     1     -15.547  12.924 -22.399  1.00  0.00     0.163 HD
HETATM    4  C7  UNL     1     -17.267  12.262 -21.518  1.00  0.00     0.241 C
HETATM    5  O2  UNL     1     -17.433  11.230 -22.254  1.00  0.00    -0.271 OA
HETATM    6  C8  UNL     1     -18.496  12.725 -20.803  1.00  0.00     0.175 C
HETATM    7  N3  UNL     1     -19.541  13.086 -21.734  1.00  0.00    -0.359 N
ATOM      8  H3  UNL     1     -20.181  12.320 -21.940  1.00  0.00     0.162 HD
HETATM    9  C13 UNL     1     -19.853  14.253 -22.404  1.00  0.00     0.135 C
HETATM   10  C14 UNL     1     -19.177  15.013 -23.478  1.00  0.00     0.159 C
HETATM   11  N4  UNL     1     -18.371  16.034 -22.856  1.00  0.00    -0.347 N
ATOM     12  H4  UNL     1     -17.868  15.736 -22.020  1.00  0.00     0.163 HD
HETATM   13  C18 UNL     1     -18.171  17.364 -23.221  1.00  0.00     0.241 C
HETATM   14  O4  UNL     1     -18.426  18.290 -22.360  1.00  0.00    -0.271 OA
HETATM   15  C19 UNL     1     -17.683  17.891 -24.522  1.00  0.00     0.177 C
HETATM   16  N5  UNL     1     -16.991  19.150 -24.363  1.00  0.00    -0.346 N
ATOM     17  H5  UNL     1     -17.480  19.992 -24.667  1.00  0.00     0.163 HD
HETATM   18  C24 UNL     1     -15.723  19.312 -23.834  1.00  0.00     0.241 C
HETATM   19  O5  UNL     1     -15.438  20.458 -23.312  1.00  0.00    -0.271 OA
HETATM   20  C25 UNL     1     -14.609  18.344 -23.770  1.00  0.00     0.177 C
HETATM   21  N6  UNL     1     -14.037  18.483 -22.415  1.00  0.00    -0.347 N
ATOM     22  H6  UNL     1     -13.975  19.430 -22.042  1.00  0.00     0.163 HD
HETATM   23  C30 UNL     1     -13.570  17.453 -21.587  1.00  0.00     0.223 C
HETATM   24  O6  UNL     1     -12.397  17.604 -21.149  1.00  0.00    -0.273 OA
HETATM   25  C31 UNL     1     -14.296  16.228 -21.172  1.00  0.00     0.085 C
HETATM   26  C32 UNL     1     -14.901  16.579 -19.832  1.00  0.00     0.020 C
HETATM   27  C33 UNL     1     -13.433  15.054 -21.229  1.00  0.00     0.066 C
HETATM   28  C34 UNL     1     -12.050  15.202 -20.590  1.00  0.00     0.018 C
HETATM   29  C35 UNL     1     -13.914  13.734 -20.857  1.00  0.00     0.154 C
HETATM   30  O7  UNL     1     -13.031  12.847 -21.012  1.00  0.00    -0.295 OA
ENDROOT
BRANCH   1  31
HETATM   31  C5  UNL     1     -14.874  11.966 -19.555  1.00  0.00     0.152 C
BRANCH  31  32
HETATM   32  C4  UNL     1     -15.026  12.225 -18.076  1.00  0.00     0.293 C
HETATM   33  N1  UNL     1     -14.776  11.127 -17.192  1.00  0.00    -0.384 NA
HETATM   34  O1  UNL     1     -15.348  13.359 -17.765  1.00  0.00    -0.257 OA
BRANCH  33  35
HETATM   35  C3  UNL     1     -14.549  10.130 -16.390  1.00  0.00     0.185 C
BRANCH  35  36
HETATM   36  C2  UNL     1     -13.738   8.970 -16.944  1.00  0.00     0.021 C
HETATM   37  C1  UNL     1     -13.959   8.471 -18.128  1.00  0.00     0.013 C
ENDBRANCH  35  36
ENDBRANCH  33  35
ENDBRANCH  31  32
ENDBRANCH   1  31
BRANCH   6  38
HETATM   38  C9  UNL     1     -18.902  11.545 -19.956  1.00  0.00     0.038 C
BRANCH  38  39
HETATM   39  C10 UNL     1     -20.255  11.008 -20.064  1.00  0.00    -0.020 C
HETATM   40  C11 UNL     1     -21.099  10.911 -18.837  1.00  0.00     0.009 C
HETATM   41  C12 UNL     1     -20.333   9.675 -20.794  1.00  0.00     0.009 C
ENDBRANCH  38  39
ENDBRANCH   6  38
BRANCH   9  42
HETATM   42  O3  UNL     1     -20.957  14.858 -22.068  1.00  0.00    -0.348 OA
ATOM     43  H3  UNL     1     -20.925  15.439 -21.317  1.00  0.00     0.219 HD
ENDBRANCH   9  42
BRANCH  10  44
HETATM   44  C15 UNL     1     -18.357  14.264 -24.457  1.00  0.00     0.033 C
BRANCH  44  45
HETATM   45  C16 UNL     1     -18.891  14.293 -25.869  1.00  0.00    -0.002 C
HETATM   46  C17 UNL     1     -20.262  14.945 -25.815  1.00  0.00     0.005 C
ENDBRANCH  44  45
ENDBRANCH  10  44
BRANCH  20  47
HETATM   47  C26 UNL     1     -13.446  18.633 -24.664  1.00  0.00     0.038 C
BRANCH  47  48
HETATM   48  C27 UNL     1     -12.770  17.524 -25.363  1.00  0.00    -0.020 C
HETATM   49  C28 UNL     1     -11.277  17.971 -25.458  1.00  0.00     0.009 C
HETATM   50  C29 UNL     1     -13.160  17.398 -26.835  1.00  0.00     0.009 C
ENDBRANCH  47  48
ENDBRANCH  20  47
BRANCH  15  51
HETATM   51  C20 UNL     1     -18.889  18.055 -25.429  1.00  0.00     0.038 C
BRANCH  51  52
HETATM   52  C21 UNL     1     -18.473  18.267 -26.874  1.00  0.00    -0.020 C
HETATM   53  C22 UNL     1     -17.096  17.636 -27.007  1.00  0.00     0.009 C
HETATM   54  C23 UNL     1     -18.335  19.771 -27.157  1.00  0.00     0.009 C
ENDBRANCH  51  52
ENDBRANCH  15  51
TORSDOF 13
ENDMDL