MODEL 4
REMARK VINA RESULT: -7.969333960      2.370      8.584
REMARK  13 active torsions:
REMARK  status: ('A' for Active; 'I' for Inactive)
REMARK    1  A    between atoms: C5_5  and  C6_6
REMARK    2  A    between atoms: C6_6  and  C7_7
REMARK    3  A    between atoms: C9_11  and  C10_12
REMARK    4  A    between atoms: C10_12  and  C11_13
REMARK    5  A    between atoms: C15_20  and  C16_21
REMARK    6  A    between atoms: C16_21  and  C17_22
REMARK    7  A    between atoms: C21_29  and  C22_30
REMARK    8  A    between atoms: C22_30  and  C23_31
REMARK    9  A    between atoms: C23_31  and  C24_32
REMARK   10  A    between atoms: C24_32  and  C25_33
REMARK   11  A    between atoms: C25_33  and  C26_34
REMARK   12  A    between atoms: C26_34  and  C27_35
REMARK   13  A    between atoms: C34_50  and  N7_51
ROOT
HETATM    1  C1  UNL     1     -15.670  19.739 -25.654  1.00  0.00     0.019 C
HETATM    2  C2  UNL     1     -16.669  19.104 -25.432  1.00  0.00    -0.060 C
HETATM    3  C3  UNL     1     -17.857  18.375 -25.160  1.00  0.00     0.086 A
HETATM    4  C4  UNL     1     -18.094  17.636 -24.010  1.00  0.00     0.047 A
HETATM    5  C5  UNL     1     -19.336  17.080 -24.103  1.00  0.00    -0.039 A
HETATM    6  C35 UNL     1     -19.820  17.517 -25.344  1.00  0.00     0.096 A
HETATM    7  N9  UNL     1     -18.914  18.293 -25.958  1.00  0.00    -0.358 N
ATOM      8  H9  UNL     1     -19.020  18.737 -26.870  1.00  0.00     0.166 HD
ENDROOT
BRANCH   5   9
HETATM    9  C6  UNL     1     -20.071  16.207 -23.183  1.00  0.00     0.062 C
BRANCH   9  10
HETATM   10  C7  UNL     1     -19.313  15.019 -22.641  1.00  0.00     0.158 C
HETATM   11  C8  UNL     1     -20.376  14.121 -22.040  1.00  0.00     0.271 C
HETATM   12  O1  UNL     1     -21.419  14.720 -21.708  1.00  0.00    -0.264 OA
HETATM   13  O2  UNL     1     -20.169  12.823 -21.901  1.00  0.00    -0.306 OA
HETATM   14  C9  UNL     1     -19.679  11.938 -20.971  1.00  0.00     0.224 C
HETATM   15  C14 UNL     1     -19.040  12.572 -19.770  1.00  0.00     0.248 C
HETATM   16  O3  UNL     1     -19.426  13.749 -19.516  1.00  0.00    -0.271 OA
HETATM   17  N1  UNL     1     -18.075  11.949 -18.951  1.00  0.00    -0.346 N
HETATM   18  C15 UNL     1     -17.545  10.641 -19.080  1.00  0.00     0.177 C
ATOM     19  H1  UNL     1     -17.716  12.506 -18.175  1.00  0.00     0.163 HD
HETATM   20  C20 UNL     1     -16.146  10.609 -19.627  1.00  0.00     0.241 C
HETATM   21  O4  UNL     1     -15.936   9.662 -20.466  1.00  0.00    -0.271 OA
HETATM   22  N2  UNL     1     -15.105  11.470 -19.322  1.00  0.00    -0.346 N
HETATM   23  C21 UNL     1     -15.052  12.915 -19.393  1.00  0.00     0.176 C
ATOM     24  H2  UNL     1     -14.248  11.019 -19.000  1.00  0.00     0.163 HD
HETATM   25  C28 UNL     1     -14.134  13.370 -20.471  1.00  0.00     0.243 C
HETATM   26  O5  UNL     1     -12.979  12.802 -20.495  1.00  0.00    -0.271 OA
HETATM   27  N5  UNL     1     -14.439  14.353 -21.439  1.00  0.00    -0.341 N
HETATM   28  C29 UNL     1     -13.538  15.171 -22.223  1.00  0.00     0.127 C
HETATM   29  C32 UNL     1     -15.795  14.694 -21.820  1.00  0.00     0.125 C
HETATM   30  C30 UNL     1     -14.262  16.470 -22.335  1.00  0.00     0.022 C
HETATM   31  C31 UNL     1     -15.695  16.010 -22.509  1.00  0.00     0.032 C
HETATM   32  C33 UNL     1     -16.392  13.586 -22.620  1.00  0.00     0.087 C
HETATM   33  N6  UNL     1     -17.442  13.797 -23.469  1.00  0.00    -0.356 N
HETATM   34  C34 UNL     1     -18.549  14.273 -23.657  1.00  0.00     0.109 C
ATOM     35  H6  UNL     1     -17.180  13.351 -24.349  1.00  0.00     0.166 HD
BRANCH  14  36
HETATM   36  C10 UNL     1     -20.834  11.131 -20.417  1.00  0.00     0.046 C
BRANCH  36  37
HETATM   37  C11 UNL     1     -20.602   9.663 -20.344  1.00  0.00    -0.020 C
HETATM   38  C12 UNL     1     -21.574   9.061 -19.312  1.00  0.00     0.009 C
HETATM   39  C13 UNL     1     -20.999   8.983 -21.657  1.00  0.00     0.009 C
ENDBRANCH  36  37
ENDBRANCH  14  36
BRANCH  18  40
HETATM   40  C16 UNL     1     -17.465   9.934 -17.760  1.00  0.00     0.038 C
BRANCH  40  41
HETATM   41  C17 UNL     1     -18.573   9.044 -17.376  1.00  0.00    -0.020 C
HETATM   42  C18 UNL     1     -18.829   8.813 -15.933  1.00  0.00     0.009 C
HETATM   43  C19 UNL     1     -18.460   7.706 -18.137  1.00  0.00     0.009 C
ENDBRANCH  40  41
ENDBRANCH  18  40
BRANCH  23  44
HETATM   44  C22 UNL     1     -14.695  13.507 -18.040  1.00  0.00     0.035 C
BRANCH  44  45
HETATM   45  C23 UNL     1     -14.863  12.554 -16.899  1.00  0.00     0.002 C
BRANCH  45  46
HETATM   46  C24 UNL     1     -13.634  11.639 -16.808  1.00  0.00     0.000 C
BRANCH  46  47
HETATM   47  C25 UNL     1     -13.989  10.472 -15.913  1.00  0.00     0.007 C
BRANCH  47  48
HETATM   48  C26 UNL     1     -13.988   9.170 -16.641  1.00  0.00     0.072 C
BRANCH  48  49
HETATM   49  C27 UNL     1     -14.911   8.236 -15.940  1.00  0.00     0.086 C
HETATM   50  N3  UNL     1     -15.199   7.065 -16.401  1.00  0.00    -0.391 N
ATOM     51  H32 UNL     1     -14.761   6.797 -17.283  1.00  0.00     0.157 HD
ATOM     52  H31 UNL     1     -15.831   6.425 -15.920  1.00  0.00     0.157 HD
HETATM   53  N4  UNL     1     -15.523   8.611 -14.709  1.00  0.00    -0.088 NA
ENDBRANCH  48  49
ENDBRANCH  47  48
ENDBRANCH  46  47
ENDBRANCH  45  46
ENDBRANCH  44  45
ENDBRANCH  23  44
BRANCH  34  54
HETATM   54  N7  UNL     1     -19.187  14.076 -24.927  1.00  0.00    -0.295 N
HETATM   55  N8  UNL     1     -18.595  14.110 -26.034  1.00  0.00    -0.344 N
ATOM     56  H82 UNL     1     -17.592  14.291 -26.010  1.00  0.00     0.176 HD
ATOM     57  H81 UNL     1     -19.048  13.970 -26.936  1.00  0.00     0.176 HD
ATOM     58  H7  UNL     1     -20.191  13.895 -24.931  1.00  0.00     0.187 HD
ENDBRANCH  34  54
ENDBRANCH   9  10
ENDBRANCH   5   9
TORSDOF 13
ENDMDL