MODEL 3
REMARK VINA RESULT: -7.833496385      0.837      1.359
REMARK  13 active torsions:
REMARK  status: ('A' for Active; 'I' for Inactive)
REMARK    1  A    between atoms: C2_2  and  C3_3
REMARK    2  A    between atoms: C3_3  and  C4_4
REMARK    3  A    between atoms: C4_4  and  C5_5
REMARK    4  A    between atoms: C6_8  and  O1_9
REMARK    5  A    between atoms: C8_13  and  C9_14
REMARK    6  A    between atoms: C9_14  and  C10_15
REMARK       I    between atoms: C10_15  and  N2_17
REMARK    7  A    between atoms: N2_17  and  C11_18
REMARK    8  A    between atoms: N2_17  and  C13_20
REMARK    9  A    between atoms: C15_24  and  O4_25
REMARK   10  A    between atoms: C16_27  and  C17_28
REMARK   11  A    between atoms: C17_28  and  C18_29
REMARK   12  A    between atoms: C22_36  and  C23_37
REMARK   13  A    between atoms: C23_37  and  C24_38
ROOT
HETATM    1  C5  UNL     1     -17.158  18.806 -24.826  1.00  0.00     0.176 C
HETATM    2  N1  UNL     1     -17.025  19.122 -23.453  1.00  0.00    -0.355 N
ATOM      3  H1  UNL     1     -17.899  19.118 -22.928  1.00  0.00     0.162 HD
HETATM    4  C6  UNL     1     -15.881  19.443 -22.690  1.00  0.00     0.185 C
HETATM    5  C7  UNL     1     -14.648  18.736 -22.533  1.00  0.00     0.222 C
HETATM    6  O2  UNL     1     -13.589  19.430 -22.785  1.00  0.00    -0.286 OA
HETATM    7  C8  UNL     1     -14.410  17.328 -22.119  1.00  0.00     0.170 C
HETATM    8  N3  UNL     1     -14.906  17.075 -20.798  1.00  0.00    -0.360 N
ATOM      9  H3  UNL     1     -15.354  17.885 -20.371  1.00  0.00     0.162 HD
HETATM   10  C15 UNL     1     -14.900  15.955 -19.984  1.00  0.00     0.135 C
HETATM   11  C16 UNL     1     -15.171  14.536 -20.171  1.00  0.00     0.159 C
HETATM   12  N4  UNL     1     -15.196  14.094 -21.554  1.00  0.00    -0.347 N
ATOM     13  H4  UNL     1     -14.366  14.300 -22.110  1.00  0.00     0.163 HD
HETATM   14  C21 UNL     1     -16.233  13.416 -22.212  1.00  0.00     0.241 C
HETATM   15  O5  UNL     1     -15.947  12.993 -23.398  1.00  0.00    -0.271 OA
HETATM   16  C22 UNL     1     -17.579  13.117 -21.768  1.00  0.00     0.181 C
HETATM   17  N6  UNL     1     -18.594  13.348 -22.795  1.00  0.00    -0.346 N
ATOM     18  H6  UNL     1     -19.395  12.718 -22.757  1.00  0.00     0.163 HD
HETATM   19  C32 UNL     1     -18.637  14.281 -23.806  1.00  0.00     0.240 C
HETATM   20  O6  UNL     1     -18.774  13.890 -25.020  1.00  0.00    -0.271 OA
HETATM   21  C33 UNL     1     -18.541  15.787 -23.690  1.00  0.00     0.172 C
HETATM   22  C34 UNL     1     -18.588  16.197 -22.250  1.00  0.00     0.042 C
HETATM   23  N7  UNL     1     -17.420  16.241 -24.447  1.00  0.00    -0.346 N
ATOM     24  H7  UNL     1     -16.632  15.594 -24.433  1.00  0.00     0.163 HD
HETATM   25  C35 UNL     1     -17.183  17.379 -25.199  1.00  0.00     0.241 C
HETATM   26  O7  UNL     1     -16.934  17.196 -26.460  1.00  0.00    -0.271 OA
ENDROOT
BRANCH  16  27
HETATM   27  C23 UNL     1     -17.808  11.795 -21.114  1.00  0.00     0.075 C
BRANCH  27  28
HETATM   28  C24 UNL     1     -18.889  11.639 -20.178  1.00  0.00    -0.028 A
HETATM   29  C25 UNL     1     -19.177  12.462 -19.077  1.00  0.00     0.096 A
HETATM   30  N5  UNL     1     -20.275  12.033 -18.442  1.00  0.00    -0.365 N
HETATM   31  C26 UNL     1     -20.711  10.955 -19.098  1.00  0.00     0.042 A
ATOM     32  H5  UNL     1     -20.699  12.452 -17.614  1.00  0.00     0.165 HD
HETATM   33  C27 UNL     1     -21.805  10.165 -18.805  1.00  0.00     0.030 A
HETATM   34  C31 UNL     1     -19.874  10.698 -20.164  1.00  0.00    -0.002 A
HETATM   35  C28 UNL     1     -22.104   9.072 -19.582  1.00  0.00     0.002 A
HETATM   36  C29 UNL     1     -21.293   8.773 -20.662  1.00  0.00     0.001 A
HETATM   37  C30 UNL     1     -20.211   9.576 -20.930  1.00  0.00     0.014 A
ENDBRANCH  27  28
ENDBRANCH  16  27
BRANCH  11  38
HETATM   38  C17 UNL     1     -14.374  13.603 -19.315  1.00  0.00     0.037 C
BRANCH  38  39
HETATM   39  C18 UNL     1     -14.976  12.478 -18.630  1.00  0.00    -0.020 C
HETATM   40  C19 UNL     1     -16.098  13.094 -17.731  1.00  0.00     0.009 C
HETATM   41  C20 UNL     1     -14.215  11.616 -17.707  1.00  0.00     0.009 C
ENDBRANCH  38  39
ENDBRANCH  11  38
BRANCH  10  42
HETATM   42  O4  UNL     1     -14.578  16.256 -18.744  1.00  0.00    -0.348 OA
ATOM     43  H4  UNL     1     -13.731  15.898 -18.504  1.00  0.00     0.219 HD
ENDBRANCH  10  42
BRANCH   7  44
HETATM   44  C9  UNL     1     -12.934  17.023 -22.294  1.00  0.00     0.136 C
BRANCH  44  45
HETATM   45  C10 UNL     1     -12.738  15.944 -23.258  1.00  0.00     0.222 C
HETATM   46  O3  UNL     1     -12.850  14.746 -22.929  1.00  0.00    -0.273 OA
HETATM   47  N2  UNL     1     -12.407  16.237 -24.615  1.00  0.00    -0.353 N
BRANCH  47  48
HETATM   48  C11 UNL     1     -12.260  17.616 -25.078  1.00  0.00     0.121 C
HETATM   49  C12 UNL     1     -13.496  18.005 -25.899  1.00  0.00     0.026 C
ENDBRANCH  47  48
BRANCH  47  50
HETATM   50  C13 UNL     1     -12.204  15.187 -25.582  1.00  0.00     0.121 C
HETATM   51  C14 UNL     1     -11.332  15.645 -26.735  1.00  0.00     0.026 C
ENDBRANCH  47  50
ENDBRANCH  44  45
ENDBRANCH   7  44
BRANCH   1  52
HETATM   52  C4  UNL     1     -18.494  19.368 -25.362  1.00  0.00     0.035 C
BRANCH  52  53
HETATM   53  C3  UNL     1     -19.650  18.511 -24.873  1.00  0.00     0.002 C
BRANCH  53  54
HETATM   54  C2  UNL     1     -20.112  17.705 -26.074  1.00  0.00    -0.004 C
HETATM   55  C1  UNL     1     -21.053  16.620 -25.596  1.00  0.00     0.005 C
ENDBRANCH  53  54
ENDBRANCH  52  53
ENDBRANCH   1  52
BRANCH   4  56
HETATM   56  O1  UNL     1     -15.950  20.569 -22.011  1.00  0.00    -0.344 OA
ATOM     57  H1  UNL     1     -16.664  20.626 -21.387  1.00  0.00     0.219 HD
ENDBRANCH   4  56
TORSDOF 13
ENDMDL