MODEL 2
REMARK VINA RESULT: -5.895007622      2.074      7.291
REMARK  13 active torsions:
REMARK  status: ('A' for Active; 'I' for Inactive)
REMARK    1  A    between atoms: C2_2  and  C4_4
REMARK    2  A    between atoms: C4_4  and  C5_5
REMARK    3  A    between atoms: C7_10  and  C8_11
REMARK    4  A    between atoms: C8_11  and  C9_12
REMARK    5  A    between atoms: C9_12  and  C10_13
REMARK    6  A    between atoms: C10_13  and  C11_14
REMARK    7  A    between atoms: C11_14  and  N2_15
REMARK    8  A    between atoms: C13_23  and  C14_24
REMARK    9  A    between atoms: C19_32  and  C20_33
REMARK   10  A    between atoms: C20_33  and  C21_34
REMARK   11  A    between atoms: C25_41  and  C26_42
REMARK   12  A    between atoms: C30_49  and  C31_50
REMARK   13  A    between atoms: C31_50  and  C32_51
ROOT
HETATM    1  C5  UNL     1     -16.952   3.757 -13.829  1.00  0.00     0.177 C
HETATM    2  N1  UNL     1     -16.048   3.576 -14.944  1.00  0.00    -0.346 N
ATOM      3  H1  UNL     1     -15.266   2.943 -14.776  1.00  0.00     0.163 HD
HETATM    4  C6  UNL     1     -16.095   4.142 -16.213  1.00  0.00     0.241 C
HETATM    5  O1  UNL     1     -16.134   3.308 -17.200  1.00  0.00    -0.271 OA
HETATM    6  C7  UNL     1     -16.106   5.584 -16.568  1.00  0.00     0.176 C
HETATM    7  N3  UNL     1     -17.015   6.392 -15.814  1.00  0.00    -0.347 N
ATOM      8  H3  UNL     1     -16.627   6.736 -14.935  1.00  0.00     0.163 HD
HETATM    9  C12 UNL     1     -18.330   6.803 -16.048  1.00  0.00     0.224 C
HETATM   10  O2  UNL     1     -18.541   8.079 -16.162  1.00  0.00    -0.273 OA
HETATM   11  C13 UNL     1     -19.567   6.026 -16.193  1.00  0.00     0.100 C
HETATM   12  C17 UNL     1     -19.541   4.810 -17.031  1.00  0.00     0.137 C
HETATM   13  N4  UNL     1     -19.087   5.064 -18.380  1.00  0.00    -0.358 N
ATOM     14  H4  UNL     1     -18.770   6.005 -18.611  1.00  0.00     0.162 HD
HETATM   15  C18 UNL     1     -19.059   4.088 -19.390  1.00  0.00     0.240 C
HETATM   16  O3  UNL     1     -18.506   4.378 -20.481  1.00  0.00    -0.271 OA
HETATM   17  C19 UNL     1     -19.663   2.724 -19.212  1.00  0.00     0.177 C
HETATM   18  N5  UNL     1     -18.628   1.709 -19.167  1.00  0.00    -0.346 N
ATOM     19  H5  UNL     1     -17.804   1.874 -19.745  1.00  0.00     0.163 HD
HETATM   20  C24 UNL     1     -18.640   0.533 -18.419  1.00  0.00     0.241 C
HETATM   21  O4  UNL     1     -18.149  -0.511 -18.963  1.00  0.00    -0.271 OA
HETATM   22  C25 UNL     1     -19.165   0.352 -17.042  1.00  0.00     0.180 C
HETATM   23  N6  UNL     1     -18.469  -0.741 -16.359  1.00  0.00    -0.346 N
ATOM     24  H6  UNL     1     -18.415  -1.635 -16.845  1.00  0.00     0.163 HD
HETATM   25  C29 UNL     1     -17.874  -0.660 -15.096  1.00  0.00     0.241 C
HETATM   26  O5  UNL     1     -18.023  -1.619 -14.294  1.00  0.00    -0.271 OA
HETATM   27  C30 UNL     1     -17.050   0.500 -14.595  1.00  0.00     0.177 C
HETATM   28  N7  UNL     1     -17.828   1.331 -13.709  1.00  0.00    -0.346 N
ATOM     29  H7  UNL     1     -18.307   0.846 -12.950  1.00  0.00     0.163 HD
HETATM   30  C35 UNL     1     -18.011   2.719 -13.754  1.00  0.00     0.241 C
HETATM   31  O6  UNL     1     -19.215   3.166 -13.725  1.00  0.00    -0.271 OA
ENDROOT
BRANCH   6  32
HETATM   32  C8  UNL     1     -14.655   6.133 -16.398  1.00  0.00     0.035 C
BRANCH  32  33
HETATM   33  C9  UNL     1     -14.692   7.632 -16.374  1.00  0.00     0.004 C
BRANCH  33  34
HETATM   34  C10 UNL     1     -13.958   8.311 -17.466  1.00  0.00     0.027 C
BRANCH  34  35
HETATM   35  C11 UNL     1     -14.778   9.462 -17.992  1.00  0.00     0.229 C
BRANCH  35  36
HETATM   36  N2  UNL     1     -16.198   9.104 -17.963  1.00  0.00    -0.079 N
ATOM     37  H23 UNL     1     -16.713   9.501 -18.748  1.00  0.00     0.274 HD
ATOM     38  H22 UNL     1     -16.351   8.117 -18.171  1.00  0.00     0.274 HD
ATOM     39  H21 UNL     1     -16.597   9.375 -17.063  1.00  0.00     0.274 HD
ENDBRANCH  35  36
ENDBRANCH  34  35
ENDBRANCH  33  34
ENDBRANCH  32  33
ENDBRANCH   6  32
BRANCH   1  40
HETATM   40  C4  UNL     1     -16.107   3.752 -12.542  1.00  0.00     0.038 C
BRANCH  40  41
HETATM   41  C2  UNL     1     -16.830   3.097 -11.406  1.00  0.00    -0.020 C
HETATM   42  C1  UNL     1     -17.208   4.181 -10.415  1.00  0.00     0.009 C
HETATM   43  C3  UNL     1     -15.873   2.114 -10.769  1.00  0.00     0.009 C
ENDBRANCH  40  41
ENDBRANCH   1  40
BRANCH  11  44
HETATM   44  C14 UNL     1     -20.676   6.920 -16.747  1.00  0.00     0.000 A
HETATM   45  C15 UNL     1     -21.616   7.565 -15.795  1.00  0.00     0.006 A
HETATM   46  C16 UNL     1     -22.053   6.433 -16.700  1.00  0.00     0.006 A
ENDBRANCH  11  44
BRANCH  27  47
HETATM   47  C31 UNL     1     -15.820  -0.060 -13.861  1.00  0.00     0.038 C
BRANCH  47  48
HETATM   48  C32 UNL     1     -14.595   0.341 -14.688  1.00  0.00    -0.020 C
HETATM   49  C33 UNL     1     -14.914   0.197 -16.170  1.00  0.00     0.009 C
HETATM   50  C34 UNL     1     -13.397  -0.502 -14.308  1.00  0.00     0.009 C
ENDBRANCH  47  48
ENDBRANCH  27  47
BRANCH  17  51
HETATM   51  C20 UNL     1     -20.529   2.406 -20.403  1.00  0.00     0.038 C
BRANCH  51  52
HETATM   52  C21 UNL     1     -19.875   1.460 -21.376  1.00  0.00    -0.020 C
HETATM   53  C22 UNL     1     -19.709   2.037 -22.741  1.00  0.00     0.009 C
HETATM   54  C23 UNL     1     -20.779   0.242 -21.478  1.00  0.00     0.009 C
ENDBRANCH  51  52
ENDBRANCH  17  51
BRANCH  22  55
HETATM   55  C26 UNL     1     -20.631   0.027 -16.990  1.00  0.00     0.009 C
HETATM   56  C27 UNL     1     -21.183   0.694 -15.741  1.00  0.00     0.012 C
HETATM   57  C28 UNL     1     -20.904  -1.455 -16.854  1.00  0.00     0.012 C
ENDBRANCH  22  55
TORSDOF 13
ENDMDL