MODEL 5
REMARK VINA RESULT: -7.979373503      8.789     15.764
REMARK  13 active torsions:
REMARK  status: ('A' for Active; 'I' for Inactive)
REMARK    1  A    between atoms: C2_2  and  C3_3
REMARK    2  A    between atoms: N2_5  and  C4_7
REMARK    3  A    between atoms: C4_7  and  C5_8
REMARK    4  A    between atoms: C5_8  and  C6_9
REMARK    5  A    between atoms: C6_9  and  C7_10
REMARK    6  A    between atoms: C13_19  and  N4_20
REMARK    7  A    between atoms: N4_20  and  S1_22
REMARK    8  A    between atoms: C18_32  and  C19_33
REMARK    9  A    between atoms: C19_33  and  C20_34
REMARK   10  A    between atoms: C24_41  and  C25_42
REMARK   11  A    between atoms: C25_42  and  C26_43
REMARK   12  A    between atoms: N7_48  and  C30_49
REMARK   13  A    between atoms: C30_49  and  C31_50
ROOT
HETATM    1  C7  UNL     1     -19.672   7.401 -18.289  1.00  0.00     0.179 C
HETATM    2  C8  UNL     1     -19.912   6.043 -17.822  1.00  0.00     0.240 C
HETATM    3  O1  UNL     1     -20.733   5.898 -16.848  1.00  0.00    -0.271 OA
HETATM    4  N3  UNL     1     -19.347   4.841 -18.321  1.00  0.00    -0.358 N
ATOM      5  H3  UNL     1     -19.350   4.030 -17.705  1.00  0.00     0.162 HD
HETATM    6  C9  UNL     1     -18.768   4.676 -19.633  1.00  0.00     0.134 C
HETATM    7  C10 UNL     1     -19.176   3.282 -20.123  1.00  0.00     0.113 C
HETATM    8  C11 UNL     1     -19.027   2.266 -19.171  1.00  0.00    -0.103 C
HETATM    9  C12 UNL     1     -18.931   1.449 -18.409  1.00  0.00    -0.080 C
HETATM   10  C13 UNL     1     -18.844   0.401 -17.450  1.00  0.00     0.184 C
HETATM   11  C15 UNL     1     -17.713   0.664 -16.485  1.00  0.00     0.109 C
HETATM   12  C16 UNL     1     -17.072  -0.670 -16.160  1.00  0.00     0.023 C
HETATM   13  C17 UNL     1     -16.669   1.580 -17.005  1.00  0.00     0.229 C
HETATM   14  O4  UNL     1     -15.794   0.973 -17.738  1.00  0.00    -0.273 OA
HETATM   15  N5  UNL     1     -16.490   2.950 -16.832  1.00  0.00    -0.322 N
ATOM     16  H5  UNL     1     -16.546   3.478 -17.702  1.00  0.00     0.169 HD
HETATM   17  C18 UNL     1     -16.243   3.769 -15.684  1.00  0.00     0.099 C
HETATM   18  C23 UNL     1     -17.468   4.454 -15.154  1.00  0.00     0.268 C
HETATM   19  O5  UNL     1     -18.406   3.735 -14.630  1.00  0.00    -0.266 OA
HETATM   20  N6  UNL     1     -17.731   5.833 -15.160  1.00  0.00    -0.342 N
ATOM     21  H6  UNL     1     -18.471   6.160 -14.539  1.00  0.00     0.163 HD
HETATM   22  C24 UNL     1     -17.040   6.861 -15.977  1.00  0.00     0.177 C
HETATM   23  C29 UNL     1     -17.990   7.902 -16.393  1.00  0.00     0.243 C
HETATM   24  O6  UNL     1     -18.288   8.738 -15.446  1.00  0.00    -0.271 OA
HETATM   25  N7  UNL     1     -18.641   8.166 -17.625  1.00  0.00    -0.337 N
ENDROOT
BRANCH   1  26
HETATM   26  C6  UNL     1     -21.007   8.168 -18.345  1.00  0.00     0.037 C
BRANCH  26  27
HETATM   27  C5  UNL     1     -21.625   8.051 -19.723  1.00  0.00     0.022 C
BRANCH  27  28
HETATM   28  C4  UNL     1     -20.866   8.945 -20.715  1.00  0.00     0.120 C
BRANCH  28  29
HETATM   29  N2  UNL     1     -20.827  10.308 -20.230  1.00  0.00    -0.382 N
HETATM   30  C3  UNL     1     -19.918  11.131 -20.596  1.00  0.00     0.088 C
HETATM   31  N1  UNL     1     -18.925  10.689 -21.502  1.00  0.00    -0.088 NA
ATOM     32  H2  UNL     1     -21.544  10.621 -19.577  1.00  0.00     0.160 HD
BRANCH  30  33
HETATM   33  C2  UNL     1     -19.855  12.530 -20.113  1.00  0.00     0.068 C
HETATM   34  C1  UNL     1     -18.481  13.132 -20.409  1.00  0.00     0.012 C
ENDBRANCH  30  33
ENDBRANCH  28  29
ENDBRANCH  27  28
ENDBRANCH  26  27
ENDBRANCH   1  26
BRANCH  25  35
HETATM   35  C30 UNL     1     -18.284   9.411 -18.337  1.00  0.00     0.130 C
BRANCH  35  36
HETATM   36  C31 UNL     1     -16.888   9.865 -18.150  1.00  0.00    -0.005 C
HETATM   37  C32 UNL     1     -16.865  11.261 -17.496  1.00  0.00     0.011 C
HETATM   38  C33 UNL     1     -16.002   9.959 -19.329  1.00  0.00     0.011 C
ENDBRANCH  35  36
ENDBRANCH  25  35
BRANCH  22  39
HETATM   39  C25 UNL     1     -15.924   7.306 -15.083  1.00  0.00     0.038 C
BRANCH  39  40
HETATM   40  C26 UNL     1     -14.600   7.646 -15.627  1.00  0.00    -0.020 C
HETATM   41  C27 UNL     1     -14.451   9.211 -15.429  1.00  0.00     0.009 C
HETATM   42  C28 UNL     1     -14.423   7.538 -17.129  1.00  0.00     0.009 C
ENDBRANCH  39  40
ENDBRANCH  22  39
BRANCH  17  43
HETATM   43  C19 UNL     1     -15.293   3.313 -14.673  1.00  0.00     0.012 C
BRANCH  43  44
HETATM   44  C20 UNL     1     -15.580   2.424 -13.566  1.00  0.00     0.002 C
HETATM   45  C21 UNL     1     -14.706   1.163 -13.858  1.00  0.00     0.013 C
HETATM   46  C22 UNL     1     -15.120   2.831 -12.193  1.00  0.00     0.013 C
ENDBRANCH  43  44
ENDBRANCH  17  43
BRANCH  10  47
HETATM   47  N4  UNL     1     -18.663  -0.849 -18.146  1.00  0.00    -0.303 N
ATOM     48  H4  UNL     1     -17.742  -1.254 -18.314  1.00  0.00     0.173 HD
BRANCH  47  49
HETATM   49  S1  UNL     1     -20.099  -1.596 -18.665  1.00  0.00     0.223 S
HETATM   50  C14 UNL     1     -21.482  -1.201 -17.631  1.00  0.00     0.186 C
HETATM   51  O2  UNL     1     -19.909  -3.090 -18.590  1.00  0.00    -0.206 OA
HETATM   52  O3  UNL     1     -20.432  -1.290 -20.099  1.00  0.00    -0.206 OA
ENDBRANCH  47  49
ENDBRANCH  10  47
TORSDOF 13
ENDMDL