MODEL 3
REMARK VINA RESULT: -8.564885446      2.278      3.628
REMARK  14 active torsions:
REMARK  status: ('A' for Active; 'I' for Inactive)
REMARK    1  A    between atoms: C4_4  and  C5_5
REMARK    2  A    between atoms: C6_6  and  C7_7
REMARK    3  A    between atoms: C7_7  and  C8_8
REMARK    4  A    between atoms: C8_8  and  C9_9
REMARK    5  A    between atoms: C9_9  and  C10_10
REMARK    6  A    between atoms: C10_10  and  C11_11
REMARK    7  A    between atoms: C11_11  and  C12_12
REMARK    8  A    between atoms: C12_12  and  C13_13
REMARK    9  A    between atoms: C13_13  and  C14_14
REMARK   10  A    between atoms: C14_14  and  N1_15
REMARK       I    between atoms: N1_15  and  C15_17
REMARK   11  A    between atoms: C15_17  and  C16_19
REMARK   12  A    between atoms: C16_19  and  C17_20
REMARK   13  A    between atoms: C17_20  and  C18_21
REMARK   14  A    between atoms: C18_21  and  N2_22
ROOT
HETATM    1  C1  UNL     1     -16.290   2.767 -15.018  1.00  0.00     0.027 C
HETATM    2  C2  UNL     1     -15.857   3.848 -15.313  1.00  0.00    -0.025 C
HETATM    3  C3  UNL     1     -15.364   5.134 -15.681  1.00  0.00    -0.002 C
HETATM    4  C4  UNL     1     -14.969   6.227 -15.998  1.00  0.00    -0.001 C
ENDROOT
BRANCH   4   5
HETATM    5  C5  UNL     1     -14.517   7.527 -16.398  1.00  0.00    -0.014 C
HETATM    6  C6  UNL     1     -14.119   8.608 -16.752  1.00  0.00    -0.092 C
BRANCH   6   7
HETATM    7  C7  UNL     1     -13.610   9.891 -17.196  1.00  0.00     0.095 C
BRANCH   7   8
HETATM    8  C8  UNL     1     -14.672  10.933 -17.243  1.00  0.00     0.012 C
BRANCH   8   9
HETATM    9  C9  UNL     1     -15.834  10.403 -18.090  1.00  0.00     0.001 C
BRANCH   9  10
HETATM   10  C10 UNL     1     -17.083  10.316 -17.244  1.00  0.00     0.000 C
BRANCH  10  11
HETATM   11  C11 UNL     1     -17.767   8.983 -17.396  1.00  0.00     0.000 C
BRANCH  11  12
HETATM   12  C12 UNL     1     -18.146   8.338 -16.100  1.00  0.00     0.002 C
BRANCH  12  13
HETATM   13  C13 UNL     1     -19.409   7.482 -16.246  1.00  0.00     0.020 C
BRANCH  13  14
HETATM   14  C14 UNL     1     -20.602   8.335 -15.952  1.00  0.00     0.122 C
BRANCH  14  15
HETATM   15  N1  UNL     1     -20.783   9.322 -16.987  1.00  0.00    -0.361 N
HETATM   16  C15 UNL     1     -21.087   8.967 -18.302  1.00  0.00     0.217 C
HETATM   17  O1  UNL     1     -21.244   7.818 -18.727  1.00  0.00    -0.274 OA
ATOM     18  H1  UNL     1     -20.685  10.309 -16.752  1.00  0.00     0.162 HD
BRANCH  16  19
HETATM   19  C16 UNL     1     -21.238  10.103 -19.311  1.00  0.00     0.108 C
BRANCH  19  20
HETATM   20  C17 UNL     1     -19.931  10.755 -19.481  1.00  0.00     0.056 C
BRANCH  20  21
HETATM   21  C18 UNL     1     -19.757  11.641 -20.624  1.00  0.00     0.095 C
BRANCH  21  22
HETATM   22  N2  UNL     1     -18.565  12.448 -20.807  1.00  0.00    -0.218 N
HETATM   23  N3  UNL     1     -18.192  13.341 -19.746  1.00  0.00    -0.259 N
HETATM   24  C19 UNL     1     -16.968  13.707 -19.253  1.00  0.00     0.254 C
ATOM     25  H3  UNL     1     -18.981  13.782 -19.274  1.00  0.00     0.190 HD
HETATM   26  O2  UNL     1     -16.738  13.662 -17.975  1.00  0.00    -0.270 OA
HETATM   27  C20 UNL     1     -15.766  14.191 -20.023  1.00  0.00     0.227 C
HETATM   28  N4  UNL     1     -15.947  15.564 -20.442  1.00  0.00    -0.351 N
HETATM   29  C21 UNL     1     -14.914  16.356 -20.938  1.00  0.00     0.235 C
ATOM     30  H4  UNL     1     -16.879  15.974 -20.369  1.00  0.00     0.163 HD
HETATM   31  O3  UNL     1     -15.043  17.626 -20.850  1.00  0.00    -0.272 OA
HETATM   32  C22 UNL     1     -13.671  15.861 -21.564  1.00  0.00     0.225 C
HETATM   33  N5  UNL     1     -13.861  15.739 -22.999  1.00  0.00    -0.352 N
HETATM   34  C23 UNL     1     -12.918  16.124 -23.961  1.00  0.00     0.217 C
ATOM     35  H5  UNL     1     -14.743  15.345 -23.329  1.00  0.00     0.162 HD
HETATM   36  O4  UNL     1     -12.702  15.340 -24.951  1.00  0.00    -0.274 OA
HETATM   37  C24 UNL     1     -12.119  17.374 -23.958  1.00  0.00     0.103 C
HETATM   38  C25 UNL     1     -12.701  18.460 -24.834  1.00  0.00     0.009 C
HETATM   39  C26 UNL     1     -13.707  17.949 -25.828  1.00  0.00     0.000 C
HETATM   40  C27 UNL     1     -14.214  19.109 -26.625  1.00  0.00     0.000 C
HETATM   41  C28 UNL     1     -15.661  19.431 -26.316  1.00  0.00     0.000 C
HETATM   42  C29 UNL     1     -16.570  18.275 -26.662  1.00  0.00     0.002 C
HETATM   43  C30 UNL     1     -18.027  18.661 -26.653  1.00  0.00     0.020 C
HETATM   44  C31 UNL     1     -18.898  17.464 -26.298  1.00  0.00     0.122 C
HETATM   45  N6  UNL     1     -19.228  17.556 -24.902  1.00  0.00    -0.361 N
HETATM   46  C32 UNL     1     -19.086  16.520 -23.961  1.00  0.00     0.219 C
ATOM     47  H6  UNL     1     -19.594  18.446 -24.564  1.00  0.00     0.162 HD
HETATM   48  O5  UNL     1     -19.970  16.342 -23.069  1.00  0.00    -0.274 OA
HETATM   49  C33 UNL     1     -17.943  15.565 -23.914  1.00  0.00     0.122 C
HETATM   50  C34 UNL     1     -18.438  14.169 -23.665  1.00  0.00     0.134 C
HETATM   51  N7  UNL     1     -17.495  13.374 -22.936  1.00  0.00    -0.341 N
HETATM   52  C35 UNL     1     -17.820  12.331 -21.999  1.00  0.00     0.341 C
ATOM     53  H7  UNL     1     -16.505  13.564 -23.096  1.00  0.00     0.164 HD
HETATM   54  O6  UNL     1     -17.366  11.204 -22.323  1.00  0.00    -0.245 OA
ENDBRANCH  21  22
ENDBRANCH  20  21
ENDBRANCH  19  20
ENDBRANCH  16  19
ENDBRANCH  14  15
ENDBRANCH  13  14
ENDBRANCH  12  13
ENDBRANCH  11  12
ENDBRANCH  10  11
ENDBRANCH   9  10
ENDBRANCH   8   9
ENDBRANCH   7   8
ENDBRANCH   6   7
ENDBRANCH   4   5
TORSDOF 14
ENDMDL