MODEL 4
REMARK VINA RESULT: -8.784697648      2.954      9.069
REMARK  15 active torsions:
REMARK  status: ('A' for Active; 'I' for Inactive)
REMARK    1  A    between atoms: O1_2  and  C2_3
REMARK    2  A    between atoms: C5_6  and  N1_7
REMARK    3  A    between atoms: C6_12  and  N3_13
REMARK    4  A    between atoms: N3_13  and  C7_15
REMARK    5  A    between atoms: C7_15  and  C8_16
REMARK    6  A    between atoms: C8_16  and  C9_17
REMARK    7  A    between atoms: C9_17  and  C10_18
REMARK    8  A    between atoms: C10_18  and  S1_19
REMARK    9  A    between atoms: S1_19  and  N4_22
REMARK   10  A    between atoms: C18_32  and  O4_33
REMARK   11  A    between atoms: O4_33  and  C19_34
REMARK   12  A    between atoms: C19_34  and  C20_35
REMARK   13  A    between atoms: C20_35  and  N6_36
REMARK   14  A    between atoms: N6_36  and  O5_37
REMARK   15  A    between atoms: N6_36  and  C21_39
ROOT
HETATM    1  C2  UNL     1     -20.524   7.706 -17.587  1.00  0.00     0.102 A
HETATM    2  C3  UNL     1     -21.106   8.274 -18.701  1.00  0.00     0.057 A
HETATM    3  C4  UNL     1     -20.393   9.092 -19.573  1.00  0.00     0.038 A
HETATM    4  C5  UNL     1     -20.963   9.663 -20.690  1.00  0.00     0.127 A
HETATM    5  N2  UNL     1     -20.227  10.459 -21.522  1.00  0.00    -0.176 N
ATOM      6  H2  UNL     1     -20.679  10.866 -22.341  1.00  0.00     0.186 HD
HETATM    7  C6  UNL     1     -18.939  10.721 -21.300  1.00  0.00     0.683 A
HETATM    8  N5  UNL     1     -18.381  10.152 -20.189  1.00  0.00    -0.191 N
ATOM      9  H5  UNL     1     -17.396  10.335 -19.993  1.00  0.00     0.184 HD
HETATM   10  C16 UNL     1     -19.063   9.366 -19.347  1.00  0.00     0.066 A
HETATM   11  C17 UNL     1     -18.480   8.796 -18.228  1.00  0.00     0.070 A
HETATM   12  C18 UNL     1     -19.185   7.984 -17.364  1.00  0.00     0.104 A
ENDROOT
BRANCH   7  13
HETATM   13  N3  UNL     1     -18.192  11.441 -22.018  1.00  0.00    -0.205 N
ATOM     14  H3  UNL     1     -17.419  10.932 -22.449  1.00  0.00     0.183 HD
BRANCH  13  15
HETATM   15  C7  UNL     1     -18.222  12.811 -22.337  1.00  0.00     0.079 C
BRANCH  15  16
HETATM   16  C8  UNL     1     -19.145  13.666 -21.505  1.00  0.00     0.046 C
BRANCH  16  17
HETATM   17  C9  UNL     1     -18.354  14.468 -20.536  1.00  0.00     0.022 C
BRANCH  17  18
HETATM   18  C10 UNL     1     -17.755  13.745 -19.388  1.00  0.00     0.163 C
BRANCH  18  19
HETATM   19  S1  UNL     1     -16.044  13.378 -19.524  1.00  0.00     0.228 S
HETATM   20  O2  UNL     1     -15.299  13.375 -18.246  1.00  0.00    -0.206 OA
HETATM   21  O3  UNL     1     -15.911  11.970 -20.100  1.00  0.00    -0.206 OA
BRANCH  19  22
HETATM   22  N4  UNL     1     -15.343  14.456 -20.650  1.00  0.00    -0.311 N
HETATM   23  C11 UNL     1     -14.502  13.848 -21.621  1.00  0.00     0.135 C
HETATM   24  C12 UNL     1     -13.023  13.893 -21.231  1.00  0.00     0.021 C
HETATM   25  C13 UNL     1     -12.683  15.389 -21.208  1.00  0.00     0.003 C
HETATM   26  C14 UNL     1     -13.477  15.979 -20.072  1.00  0.00     0.021 C
HETATM   27  C15 UNL     1     -14.941  15.714 -20.136  1.00  0.00     0.135 C
ENDBRANCH  19  22
ENDBRANCH  18  19
ENDBRANCH  17  18
ENDBRANCH  16  17
ENDBRANCH  15  16
ENDBRANCH  13  15
ENDBRANCH   7  13
BRANCH   4  28
HETATM   28  N1  UNL     1     -22.189   9.468 -20.983  1.00  0.00    -0.384 N
ATOM     29  H12 UNL     1     -22.730   8.849 -20.380  1.00  0.00     0.157 HD
ATOM     30  H11 UNL     1     -22.619   9.914 -21.793  1.00  0.00     0.157 HD
ENDBRANCH   4  28
BRANCH  12  31
HETATM   31  O4  UNL     1     -18.580   7.409 -16.230  1.00  0.00    -0.347 OA
BRANCH  31  32
HETATM   32  C19 UNL     1     -18.013   6.131 -16.401  1.00  0.00     0.192 C
BRANCH  32  33
HETATM   33  C20 UNL     1     -16.795   5.924 -15.514  1.00  0.00     0.147 C
BRANCH  33  34
HETATM   34  N6  UNL     1     -15.636   6.280 -16.279  1.00  0.00    -0.193 NA
BRANCH  34  35
HETATM   35  O5  UNL     1     -15.591   5.660 -17.467  1.00  0.00    -0.313 OA
ATOM     36  H5  UNL     1     -15.997   6.168 -18.159  1.00  0.00     0.237 HD
ENDBRANCH  34  35
BRANCH  34  37
HETATM   37  C21 UNL     1     -15.368   7.683 -16.353  1.00  0.00     0.086 C
HETATM   38  C22 UNL     1     -14.252   8.092 -15.417  1.00  0.00     0.022 C
HETATM   39  C23 UNL     1     -14.150   9.606 -15.374  1.00  0.00     0.002 C
HETATM   40  C24 UNL     1     -13.911  10.173 -16.764  1.00  0.00     0.000 C
HETATM   41  C25 UNL     1     -14.856   9.604 -17.776  1.00  0.00     0.002 C
HETATM   42  C26 UNL     1     -14.925   8.105 -17.745  1.00  0.00     0.022 C
ENDBRANCH  34  37
ENDBRANCH  33  34
ENDBRANCH  32  33
ENDBRANCH  31  32
ENDBRANCH  12  31
BRANCH   1  43
HETATM   43  O1  UNL     1     -21.223   6.884 -16.701  1.00  0.00    -0.353 OA
HETATM   44  C1  UNL     1     -22.356   7.347 -15.990  1.00  0.00     0.210 C
ENDBRANCH   1  43
TORSDOF 15
ENDMDL