MODEL 3
REMARK VINA RESULT: -8.370942011      0.904      1.469
REMARK  15 active torsions:
REMARK  status: ('A' for Active; 'I' for Inactive)
REMARK    1  A    between atoms: C2_2  and  C4_4
REMARK    2  A    between atoms: C4_4  and  C5_5
REMARK    3  A    between atoms: C5_5  and  S1_6
REMARK    4  A    between atoms: S1_6  and  C6_7
REMARK    5  A    between atoms: C6_7  and  C7_8
REMARK    6  A    between atoms: C7_8  and  C8_9
REMARK    7  A    between atoms: C8_9  and  C9_10
REMARK    8  A    between atoms: C9_10  and  C10_11
REMARK    9  A    between atoms: C9_10  and  C21_33
REMARK   10  A    between atoms: C10_11  and  O1_12
REMARK   11  A    between atoms: C10_11  and  N1_14
REMARK   12  A    between atoms: C14_21  and  C15_22
REMARK       I    between atoms: C15_22  and  N3_24
REMARK   13  A    between atoms: N3_24  and  C16_26
REMARK   14  A    between atoms: C16_26  and  C17_27
REMARK   15  A    between atoms: C22_36  and  C23_37
ROOT
HETATM    1  C10 UNL     1     -17.451  14.465 -19.688  1.00  0.00     0.127 C
ENDROOT
BRANCH   1   2
HETATM    2  C9  UNL     1     -18.293  14.115 -20.811  1.00  0.00     0.137 C
BRANCH   2   3
HETATM    3  C8  UNL     1     -17.836  14.631 -22.159  1.00  0.00     0.022 C
BRANCH   3   4
HETATM    4  C7  UNL     1     -19.045  15.070 -22.995  1.00  0.00     0.011 C
BRANCH   4   5
HETATM    5  C6  UNL     1     -18.582  15.053 -24.437  1.00  0.00     0.074 C
BRANCH   5   6
HETATM    6  S1  UNL     1     -19.606  16.116 -25.480  1.00  0.00    -0.165 SA
BRANCH   6   7
HETATM    7  C5  UNL     1     -19.691  17.755 -24.737  1.00  0.00     0.101 C
BRANCH   7   8
HETATM    8  C4  UNL     1     -18.574  18.625 -25.180  1.00  0.00    -0.015 C
BRANCH   8   9
HETATM    9  C2  UNL     1     -17.341  18.501 -24.746  1.00  0.00    -0.091 C
HETATM   10  C1  UNL     1     -16.211  18.479 -25.705  1.00  0.00     0.042 C
HETATM   11  C3  UNL     1     -17.063  18.380 -23.296  1.00  0.00     0.042 C
ENDBRANCH   8   9
ENDBRANCH   7   8
ENDBRANCH   6   7
ENDBRANCH   5   6
ENDBRANCH   4   5
ENDBRANCH   3   4
ENDBRANCH   2   3
BRANCH   2  12
HETATM   12  C21 UNL     1     -18.749  12.719 -20.903  1.00  0.00     0.160 A
HETATM   13  N4  UNL     1     -19.468  12.010 -19.978  1.00  0.00    -0.326 N
HETATM   14  C22 UNL     1     -19.670  10.776 -20.462  1.00  0.00     0.111 A
ATOM     15  H4  UNL     1     -19.793  12.361 -19.077  1.00  0.00     0.169 HD
HETATM   16  N5  UNL     1     -19.081  10.742 -21.661  1.00  0.00    -0.246 N
HETATM   17  O6  UNL     1     -18.560  11.895 -21.873  1.00  0.00    -0.222 OA
ATOM     18  H5  UNL     1     -19.051   9.943 -22.293  1.00  0.00     0.196 HD
BRANCH  14  19
HETATM   19  C23 UNL     1     -20.396   9.635 -19.835  1.00  0.00     0.009 C
HETATM   20  C24 UNL     1     -19.545   8.384 -19.880  1.00  0.00     0.023 C
HETATM   21  C25 UNL     1     -21.683   9.323 -20.582  1.00  0.00     0.023 C
HETATM   22  C26 UNL     1     -20.750   9.941 -18.411  1.00  0.00     0.023 C
ENDBRANCH  14  19
ENDBRANCH   2  12
ENDBRANCH   1   2
BRANCH   1  23
HETATM   23  O1  UNL     1     -18.106  14.756 -18.601  1.00  0.00    -0.349 OA
ATOM     24  H1  UNL     1     -17.922  14.178 -17.870  1.00  0.00     0.219 HD
ENDBRANCH   1  23
BRANCH   1  25
HETATM   25  N1  UNL     1     -16.064  14.550 -19.542  1.00  0.00    -0.335 N
HETATM   26  C11 UNL     1     -15.280  15.800 -19.522  1.00  0.00     0.252 C
HETATM   27  N2  UNL     1     -14.478  15.673 -20.756  1.00  0.00    -0.345 N
HETATM   28  C12 UNL     1     -14.448  14.455 -21.488  1.00  0.00     0.221 C
ATOM     29  H2  UNL     1     -13.937  16.472 -21.088  1.00  0.00     0.164 HD
HETATM   30  O2  UNL     1     -14.137  14.467 -22.701  1.00  0.00    -0.273 OA
HETATM   31  C13 UNL     1     -14.776  13.115 -20.887  1.00  0.00     0.138 C
HETATM   32  C14 UNL     1     -15.171  13.386 -19.451  1.00  0.00     0.188 C
BRANCH  32  33
HETATM   33  C15 UNL     1     -15.511  12.296 -18.610  1.00  0.00     0.242 C
HETATM   34  O3  UNL     1     -16.276  12.515 -17.592  1.00  0.00    -0.271 OA
HETATM   35  N3  UNL     1     -15.106  10.967 -18.765  1.00  0.00    -0.340 N
ATOM     36  H3  UNL     1     -14.500  10.753 -19.557  1.00  0.00     0.163 HD
BRANCH  35  37
HETATM   37  C16 UNL     1     -15.476   9.865 -17.895  1.00  0.00     0.125 A
HETATM   38  C18 UNL     1     -16.120   8.675 -18.591  1.00  0.00     0.050 A
HETATM   39  C19 UNL     1     -16.919   9.560 -17.691  1.00  0.00     0.023 A
HETATM   40  C20 UNL     1     -17.369   8.938 -16.397  1.00  0.00     0.013 C
BRANCH  37  41
HETATM   41  C17 UNL     1     -14.480   9.493 -16.865  1.00  0.00     0.203 C
HETATM   42  O4  UNL     1     -14.076  10.442 -16.104  1.00  0.00    -0.646 OA
HETATM   43  O5  UNL     1     -13.984   8.211 -16.694  1.00  0.00    -0.646 OA
ENDBRANCH  37  41
ENDBRANCH  35  37
ENDBRANCH  32  33
ENDBRANCH   1  25
TORSDOF 15
ENDMDL