MODEL 3
REMARK VINA RESULT: -8.309273931      1.671      3.262
REMARK  11 active torsions:
REMARK  status: ('A' for Active; 'I' for Inactive)
REMARK    1  A    between atoms: C2_2  and  C3_3
REMARK    2  A    between atoms: C3_3  and  N1_4
REMARK    3  A    between atoms: N2_7  and  C6_8
REMARK    4  A    between atoms: C6_8  and  C7_9
REMARK    5  A    between atoms: C7_9  and  C8_10
REMARK    6  A    between atoms: C8_10  and  N3_11
REMARK       I    between atoms: N3_11  and  C9_13
REMARK    7  A    between atoms: C9_13  and  C10_15
REMARK    8  A    between atoms: C12_17  and  N4_18
REMARK       I    between atoms: N4_18  and  C13_20
REMARK    9  A    between atoms: C13_20  and  C14_22
REMARK   10  A    between atoms: C16_24  and  N5_25
REMARK       I    between atoms: N5_25  and  C17_27
REMARK   11  A    between atoms: C17_27  and  C18_29
ROOT
HETATM    1  N4  UNL     1     -15.102  12.973 -20.835  1.00  0.00    -0.320 N
ATOM      2  H4  UNL     1     -14.529  12.835 -21.667  1.00  0.00     0.169 HD
HETATM    3  C13 UNL     1     -15.485  14.282 -20.514  1.00  0.00     0.273 C
HETATM    4  O2  UNL     1     -16.208  14.417 -19.456  1.00  0.00    -0.266 OA
ENDROOT
BRANCH   1   5
HETATM    5  C12 UNL     1     -15.460  11.821 -20.074  1.00  0.00     0.053 A
HETATM    6  C11 UNL     1     -14.800  11.158 -19.073  1.00  0.00     0.066 A
HETATM    7  C10 UNL     1     -15.560  10.051 -18.648  1.00  0.00     0.104 A
HETATM    8  N9  UNL     1     -16.663  10.060 -19.392  1.00  0.00    -0.354 N
HETATM    9  C25 UNL     1     -16.629  11.110 -20.257  1.00  0.00     0.120 A
HETATM   10  C26 UNL     1     -17.795   9.154 -19.361  1.00  0.00     0.156 C
BRANCH   7  11
HETATM   11  C9  UNL     1     -15.155   9.153 -17.593  1.00  0.00     0.268 C
HETATM   12  N3  UNL     1     -15.177   9.390 -16.212  1.00  0.00    -0.356 N
ATOM     13  H3  UNL     1     -15.525  10.296 -15.897  1.00  0.00     0.162 HD
HETATM   14  O1  UNL     1     -14.715   7.974 -17.907  1.00  0.00    -0.266 OA
BRANCH  12  15
HETATM   15  C8  UNL     1     -14.748   8.458 -15.205  1.00  0.00     0.125 C
BRANCH  15  16
HETATM   16  C7  UNL     1     -15.871   7.743 -14.527  1.00  0.00     0.050 C
BRANCH  16  17
HETATM   17  C6  UNL     1     -16.120   6.398 -15.215  1.00  0.00     0.274 C
BRANCH  17  18
HETATM   18  N2  UNL     1     -17.539   6.324 -15.522  1.00  0.00     0.091 N
HETATM   19  C5  UNL     1     -17.727   5.936 -16.907  1.00  0.00     0.292 C
HETATM   20  C4  UNL     1     -19.228   5.708 -17.151  1.00  0.00     0.152 C
HETATM   21  N1  UNL     1     -19.872   6.925 -16.828  1.00  0.00    -0.390 N
HETATM   22  C28 UNL     1     -19.065   7.996 -16.370  1.00  0.00     0.152 C
HETATM   23  C27 UNL     1     -18.127   7.620 -15.245  1.00  0.00     0.292 C
BRANCH  21  24
HETATM   24  C3  UNL     1     -21.102   7.225 -17.443  1.00  0.00     0.058 C
BRANCH  24  25
HETATM   25  C2  UNL     1     -21.185   8.609 -18.039  1.00  0.00     0.040 C
HETATM   26  C1  UNL     1     -21.466   8.516 -19.521  1.00  0.00     0.010 C
ENDBRANCH  24  25
ENDBRANCH  21  24
ENDBRANCH  17  18
ENDBRANCH  16  17
ENDBRANCH  15  16
ENDBRANCH  12  15
ENDBRANCH   7  11
ENDBRANCH   1   5
BRANCH   3  27
HETATM   27  C14 UNL     1     -15.157  15.488 -21.237  1.00  0.00     0.105 A
HETATM   28  C15 UNL     1     -15.666  15.733 -22.515  1.00  0.00     0.066 A
HETATM   29  C16 UNL     1     -15.203  16.952 -22.957  1.00  0.00     0.053 A
HETATM   30  C23 UNL     1     -14.424  17.429 -21.952  1.00  0.00     0.120 A
HETATM   31  N8  UNL     1     -14.400  16.537 -20.909  1.00  0.00    -0.354 N
HETATM   32  C24 UNL     1     -13.659  16.766 -19.685  1.00  0.00     0.156 C
BRANCH  29  33
HETATM   33  N5  UNL     1     -15.523  17.514 -24.215  1.00  0.00    -0.320 N
HETATM   34  C17 UNL     1     -16.635  18.335 -24.432  1.00  0.00     0.274 C
HETATM   35  O3  UNL     1     -17.410  18.607 -23.484  1.00  0.00    -0.266 OA
ATOM     36  H5  UNL     1     -14.911  17.310 -25.005  1.00  0.00     0.169 HD
BRANCH  34  37
HETATM   37  C18 UNL     1     -16.911  18.885 -25.758  1.00  0.00     0.116 A
HETATM   38  C19 UNL     1     -17.955  18.466 -26.517  1.00  0.00     0.123 A
HETATM   39  N6  UNL     1     -18.161  19.019 -27.746  1.00  0.00    -0.366 N
HETATM   40  C20 UNL     1     -17.340  19.973 -28.213  1.00  0.00     0.020 A
ATOM     41  H6  UNL     1     -18.947  18.706 -28.316  1.00  0.00     0.165 HD
HETATM   42  C21 UNL     1     -17.562  20.576 -29.549  1.00  0.00     0.069 C
HETATM   43  C22 UNL     1     -16.280  20.390 -27.428  1.00  0.00     0.113 A
HETATM   44  N7  UNL     1     -16.076  19.853 -26.230  1.00  0.00    -0.358 N
ATOM     45  H7  UNL     1     -15.290  20.168 -25.661  1.00  0.00     0.165 HD
ENDBRANCH  34  37
ENDBRANCH  29  33
ENDBRANCH   3  27
TORSDOF 11
ENDMDL