MODEL 5
REMARK VINA RESULT: -8.985338653      1.395      1.566
REMARK  11 active torsions:
REMARK  status: ('A' for Active; 'I' for Inactive)
REMARK    1  A    between atoms: C2_2  and  N1_3
REMARK       I    between atoms: N1_3  and  C3_5
REMARK    2  A    between atoms: C3_5  and  C4_7
REMARK    3  A    between atoms: C4_7  and  S1_8
REMARK    4  A    between atoms: S1_8  and  C5_9
REMARK       I    between atoms: N4_15  and  C7_17
REMARK    5  A    between atoms: C7_17  and  C8_19
REMARK    6  A    between atoms: C8_19  and  C9_20
REMARK    7  A    between atoms: C9_20  and  C10_21
REMARK    8  A    between atoms: C10_21  and  C11_22
REMARK    9  A    between atoms: C11_22  and  C12_23
REMARK   10  A    between atoms: C12_23  and  N5_24
REMARK   11  A    between atoms: C19_33  and  N6_34
REMARK       I    between atoms: N6_34  and  C20_36
ROOT
HETATM    1  C9  UNL     1     -21.119   9.806 -20.894  1.00  0.00     0.009 C
ENDROOT
BRANCH   1   2
HETATM    2  C8  UNL     1     -21.086   8.603 -20.019  1.00  0.00     0.103 C
BRANCH   2   3
HETATM    3  C7  UNL     1     -21.505   8.827 -18.621  1.00  0.00     0.223 C
HETATM    4  N4  UNL     1     -20.958   7.972 -17.631  1.00  0.00    -0.306 N
HETATM    5  C6  UNL     1     -19.758   8.244 -17.210  1.00  0.00     0.168 A
ATOM      6  H4  UNL     1     -21.483   7.178 -17.265  1.00  0.00     0.171 HD
HETATM    7  N3  UNL     1     -18.951   9.238 -17.586  1.00  0.00    -0.278 N
HETATM    8  S2  UNL     1     -18.786   7.440 -16.045  1.00  0.00    -0.026 SA
HETATM    9  N2  UNL     1     -17.803   9.333 -17.056  1.00  0.00    -0.286 N
ATOM     10  H3  UNL     1     -19.254   9.912 -18.289  1.00  0.00     0.189 HD
HETATM   11  C5  UNL     1     -17.414   8.458 -16.142  1.00  0.00     0.130 A
ATOM     12  H2  UNL     1     -17.176  10.088 -17.336  1.00  0.00     0.188 HD
HETATM   13  O2  UNL     1     -22.307   9.713 -18.255  1.00  0.00    -0.273 OA
BRANCH  11  14
HETATM   14  S1  UNL     1     -15.848   8.375 -15.249  1.00  0.00    -0.094 SA
BRANCH  14  15
HETATM   15  C4  UNL     1     -14.862   7.023 -15.896  1.00  0.00     0.184 C
BRANCH  15  16
HETATM   16  C3  UNL     1     -15.670   5.772 -15.849  1.00  0.00     0.227 C
HETATM   17  N1  UNL     1     -15.968   5.091 -17.039  1.00  0.00    -0.361 N
ATOM     18  H1  UNL     1     -15.634   5.448 -17.934  1.00  0.00     0.162 HD
HETATM   19  O1  UNL     1     -16.086   5.325 -14.733  1.00  0.00    -0.273 OA
BRANCH  17  20
HETATM   20  C2  UNL     1     -16.754   3.876 -16.983  1.00  0.00     0.118 C
HETATM   21  C1  UNL     1     -15.841   2.646 -16.997  1.00  0.00     0.026 C
ENDBRANCH  17  20
ENDBRANCH  15  16
ENDBRANCH  14  15
ENDBRANCH  11  14
ENDBRANCH   2   3
ENDBRANCH   1   2
BRANCH   1  22
HETATM   22  C10 UNL     1     -19.886  10.036 -21.706  1.00  0.00     0.002 C
BRANCH  22  23
HETATM   23  C11 UNL     1     -18.780  10.685 -20.922  1.00  0.00     0.020 C
BRANCH  23  24
HETATM   24  C12 UNL     1     -19.185  11.929 -20.190  1.00  0.00     0.132 C
BRANCH  24  25
HETATM   25  N5  UNL     1     -18.034  12.780 -20.069  1.00  0.00    -0.316 N
HETATM   26  C13 UNL     1     -17.172  12.679 -18.950  1.00  0.00     0.235 C
HETATM   27  O3  UNL     1     -17.602  12.224 -17.845  1.00  0.00    -0.272 OA
HETATM   28  C14 UNL     1     -15.763  13.114 -19.099  1.00  0.00     0.149 C
HETATM   29  C15 UNL     1     -15.052  12.081 -19.949  1.00  0.00     0.028 C
HETATM   30  C16 UNL     1     -15.782  14.426 -19.825  1.00  0.00     0.174 C
HETATM   31  O4  UNL     1     -15.079  15.400 -19.451  1.00  0.00    -0.291 OA
HETATM   32  C17 UNL     1     -16.633  14.567 -20.986  1.00  0.00     0.040 A
HETATM   33  C18 UNL     1     -16.365  15.500 -21.991  1.00  0.00     0.047 A
HETATM   34  C24 UNL     1     -17.734  13.741 -21.074  1.00  0.00     0.051 A
HETATM   35  C19 UNL     1     -17.151  15.648 -23.093  1.00  0.00     0.035 A
HETATM   36  C22 UNL     1     -18.268  14.802 -23.171  1.00  0.00     0.032 A
HETATM   37  C23 UNL     1     -18.535  13.885 -22.185  1.00  0.00     0.033 A
BRANCH  35  38
HETATM   38  N6  UNL     1     -16.951  16.554 -24.132  1.00  0.00    -0.327 N
HETATM   39  C20 UNL     1     -17.195  17.927 -24.068  1.00  0.00     0.218 C
HETATM   40  C21 UNL     1     -16.917  18.771 -25.306  1.00  0.00     0.117 C
HETATM   41  O5  UNL     1     -17.630  18.585 -23.094  1.00  0.00    -0.274 OA
ATOM     42  H6  UNL     1     -16.596  16.182 -25.013  1.00  0.00     0.169 HD
ENDBRANCH  35  38
ENDBRANCH  24  25
ENDBRANCH  23  24
ENDBRANCH  22  23
ENDBRANCH   1  22
TORSDOF 11
ENDMDL