MODEL 5
REMARK VINA RESULT: -8.610049571      1.113      1.598
REMARK  13 active torsions:
REMARK  status: ('A' for Active; 'I' for Inactive)
REMARK    1  A    between atoms: O1_2  and  C2_3
REMARK    2  A    between atoms: C5_6  and  C6_7
REMARK    3  A    between atoms: C6_7  and  C7_8
REMARK    4  A    between atoms: C7_8  and  N1_9
REMARK    5  A    between atoms: N1_9  and  C8_11
REMARK    6  A    between atoms: N3_15  and  C10_17
REMARK    7  A    between atoms: C10_17  and  C11_18
REMARK    8  A    between atoms: C11_18  and  C12_19
REMARK    9  A    between atoms: C12_19  and  N4_20
REMARK   10  A    between atoms: N7_32  and  C20_33
REMARK   11  A    between atoms: C20_33  and  C21_34
REMARK   12  A    between atoms: C21_34  and  C22_35
REMARK   13  A    between atoms: C29_45  and  O2_46
ROOT
HETATM    1  C8  UNL     1     -17.027  11.577 -20.366  1.00  0.00     0.151 A
HETATM    2  N2  UNL     1     -16.317  11.262 -19.239  1.00  0.00    -0.174 N
ATOM      3  H2  UNL     1     -15.333  11.527 -19.182  1.00  0.00     0.186 HD
HETATM    4  C9  UNL     1     -16.872  10.621 -18.216  1.00  0.00     0.681 A
HETATM    5  N3  UNL     1     -16.219  10.321 -17.155  1.00  0.00    -0.226 N
ATOM      6  H3  UNL     1     -16.707   9.828 -16.407  1.00  0.00     0.177 HD
HETATM    7  N5  UNL     1     -18.177  10.290 -18.335  1.00  0.00    -0.174 N
ATOM      8  H5  UNL     1     -18.611   9.797 -17.554  1.00  0.00     0.186 HD
HETATM    9  C17 UNL     1     -18.944  10.559 -19.400  1.00  0.00     0.155 A
HETATM   10  C18 UNL     1     -18.346  11.230 -20.461  1.00  0.00     0.123 A
HETATM   11  N6  UNL     1     -19.324  11.363 -21.365  1.00  0.00    -0.346 N
ATOM     12  H6  UNL     1     -19.218  11.818 -22.272  1.00  0.00     0.167 HD
HETATM   13  C19 UNL     1     -20.464  10.814 -20.914  1.00  0.00     0.185 A
HETATM   14  N7  UNL     1     -20.254  10.307 -19.693  1.00  0.00    -0.327 N
ENDROOT
BRANCH   1  15
HETATM   15  N1  UNL     1     -16.400  12.176 -21.278  1.00  0.00    -0.353 N
ATOM     16  H1  UNL     1     -16.746  11.935 -22.206  1.00  0.00     0.166 HD
BRANCH  15  17
HETATM   17  C7  UNL     1     -15.350  13.086 -21.328  1.00  0.00     0.067 C
BRANCH  17  18
HETATM   18  C6  UNL     1     -15.692  14.433 -20.792  1.00  0.00     0.083 C
BRANCH  18  19
HETATM   19  C5  UNL     1     -15.808  15.533 -21.744  1.00  0.00    -0.045 A
HETATM   20  C4  UNL     1     -17.050  15.786 -22.373  1.00  0.00     0.011 A
HETATM   21  C3  UNL     1     -17.189  16.838 -23.236  1.00  0.00     0.040 A
HETATM   22  C2  UNL     1     -16.149  17.682 -23.529  1.00  0.00     0.102 A
HETATM   23  C29 UNL     1     -14.949  17.432 -22.919  1.00  0.00     0.107 A
HETATM   24  C27 UNL     1     -14.770  16.367 -22.032  1.00  0.00    -0.019 A
HETATM   25  C28 UNL     1     -13.391  16.187 -21.488  1.00  0.00     0.052 C
BRANCH  22  26
HETATM   26  O1  UNL     1     -16.264  18.769 -24.412  1.00  0.00    -0.353 OA
HETATM   27  C1  UNL     1     -17.020  18.689 -25.589  1.00  0.00     0.210 C
ENDBRANCH  22  26
BRANCH  23  28
HETATM   28  O2  UNL     1     -13.868  18.260 -23.186  1.00  0.00    -0.353 OA
HETATM   29  C30 UNL     1     -13.056  17.999 -24.335  1.00  0.00     0.210 C
ENDBRANCH  23  28
ENDBRANCH  18  19
ENDBRANCH  17  18
ENDBRANCH  15  17
ENDBRANCH   1  15
BRANCH   5  30
HETATM   30  C10 UNL     1     -14.832  10.648 -16.970  1.00  0.00     0.140 C
BRANCH  30  31
HETATM   31  C11 UNL     1     -14.104   9.339 -16.673  1.00  0.00     0.050 C
BRANCH  31  32
HETATM   32  C12 UNL     1     -14.567   8.944 -15.274  1.00  0.00     0.274 C
BRANCH  32  33
HETATM   33  N4  UNL     1     -14.739   7.508 -15.155  1.00  0.00     0.088 N
HETATM   34  C13 UNL     1     -16.058   7.295 -14.595  1.00  0.00     0.272 C
HETATM   35  C14 UNL     1     -16.584   6.024 -15.227  1.00  0.00     0.032 C
HETATM   36  C15 UNL     1     -15.855   5.935 -16.549  1.00  0.00     0.032 C
HETATM   37  C16 UNL     1     -14.778   6.980 -16.502  1.00  0.00     0.272 C
ENDBRANCH  32  33
ENDBRANCH  31  32
ENDBRANCH  30  31
ENDBRANCH   5  30
BRANCH  14  38
HETATM   38  C20 UNL     1     -21.131   9.617 -18.778  1.00  0.00     0.132 C
BRANCH  38  39
HETATM   39  C21 UNL     1     -21.346   8.181 -19.115  1.00  0.00     0.025 C
BRANCH  39  40
HETATM   40  C22 UNL     1     -20.997   7.320 -17.947  1.00  0.00    -0.010 C
HETATM   41  C23 UNL     1     -19.622   6.682 -18.157  1.00  0.00     0.032 C
HETATM   42  C24 UNL     1     -19.592   5.490 -17.197  1.00  0.00     0.232 C
HETATM   43  N8  UNL     1     -20.258   5.855 -15.954  1.00  0.00    -0.075 N
HETATM   44  C25 UNL     1     -20.118   7.262 -15.683  1.00  0.00     0.232 C
ATOM     45  H82 UNL     1     -21.237   5.568 -15.954  1.00  0.00     0.277 HD
ATOM     46  H81 UNL     1     -19.930   5.288 -15.172  1.00  0.00     0.277 HD
HETATM   47  C26 UNL     1     -20.874   8.127 -16.673  1.00  0.00     0.032 C
ENDBRANCH  39  40
ENDBRANCH  38  39
ENDBRANCH  14  38
TORSDOF 13
ENDMDL