MODEL 1
REMARK VINA RESULT: -9.845366343      0.000      0.000
REMARK  10 active torsions:
REMARK  status: ('A' for Active; 'I' for Inactive)
REMARK       I    between atoms: C1_2  and  N1_3
REMARK    1  A    between atoms: C1_2  and  C8_14
REMARK    2  A    between atoms: C8_14  and  C9_15
REMARK    3  A    between atoms: C8_14  and  C24_41
REMARK    4  A    between atoms: C9_15  and  C10_16
REMARK    5  A    between atoms: C10_16  and  C11_17
REMARK    6  A    between atoms: C11_17  and  C12_18
REMARK    7  A    between atoms: C12_18  and  N3_19
REMARK    8  A    between atoms: C13_22  and  C14_23
REMARK    9  A    between atoms: C14_23  and  N5_24
REMARK   10  A    between atoms: C24_41  and  C25_42
ROOT
HETATM    1  C10 UNL     1     -19.708  10.358 -21.539  1.00  0.00     0.002 C
ENDROOT
BRANCH   1   2
HETATM    2  C9  UNL     1     -20.616  10.706 -20.374  1.00  0.00     0.014 C
BRANCH   2   3
HETATM    3  C8  UNL     1     -20.280  10.095 -19.085  1.00  0.00     0.078 C
BRANCH   3   4
HETATM    4  C1  UNL     1     -19.020  10.672 -18.465  1.00  0.00     0.226 C
HETATM    5  O1  UNL     1     -18.926  11.908 -18.420  1.00  0.00    -0.273 OA
HETATM    6  N1  UNL     1     -18.002   9.864 -17.968  1.00  0.00    -0.333 N
HETATM    7  C2  UNL     1     -16.789   9.798 -18.354  1.00  0.00     0.015 C
ATOM      8  H1  UNL     1     -18.259   9.247 -17.197  1.00  0.00     0.168 HD
HETATM    9  C3  UNL     1     -16.011   8.795 -17.554  1.00  0.00     0.054 C
HETATM   10  C7  UNL     1     -16.262  10.619 -19.449  1.00  0.00     0.284 C
HETATM   11  C4  UNL     1     -15.367   9.532 -16.423  1.00  0.00     0.007 C
HETATM   12  C5  UNL     1     -14.303  10.490 -16.925  1.00  0.00     0.028 C
HETATM   13  C6  UNL     1     -14.894  11.610 -17.735  1.00  0.00     0.232 C
HETATM   14  N2  UNL     1     -14.977  11.219 -19.130  1.00  0.00    -0.070 N
ATOM     15  H22 UNL     1     -14.770  12.002 -19.749  1.00  0.00     0.277 HD
ATOM     16  H21 UNL     1     -14.206  10.603 -19.388  1.00  0.00     0.277 HD
ENDBRANCH   3   4
BRANCH   3  17
HETATM   17  C24 UNL     1     -20.066   8.636 -18.995  1.00  0.00     0.019 C
BRANCH  17  18
HETATM   18  C25 UNL     1     -20.973   7.753 -18.270  1.00  0.00    -0.007 C
HETATM   19  C26 UNL     1     -20.746   6.299 -18.339  1.00  0.00     0.049 C
HETATM   20  C27 UNL     1     -20.772   5.587 -17.014  1.00  0.00     0.056 C
HETATM   21  N9  UNL     1     -21.644   6.096 -16.039  1.00  0.00    -0.402 N
HETATM   22  C28 UNL     1     -22.087   7.440 -16.150  1.00  0.00     0.119 C
ATOM     23  H9  UNL     1     -21.953   5.510 -15.264  1.00  0.00     0.158 HD
HETATM   24  C29 UNL     1     -20.988   8.247 -16.802  1.00  0.00     0.024 C
ENDBRANCH  17  18
ENDBRANCH   3  17
ENDBRANCH   2   3
ENDBRANCH   1   2
BRANCH   1  25
HETATM   25  C11 UNL     1     -18.785  11.472 -21.895  1.00  0.00     0.022 C
BRANCH  25  26
HETATM   26  C12 UNL     1     -19.304  12.866 -21.630  1.00  0.00     0.151 C
BRANCH  26  27
HETATM   27  N3  UNL     1     -18.315  13.869 -21.449  1.00  0.00    -0.274 N
HETATM   28  N4  UNL     1     -17.351  13.686 -20.497  1.00  0.00    -0.284 N
HETATM   29  C13 UNL     1     -16.598  14.778 -20.491  1.00  0.00     0.116 A
ATOM     30  H4  UNL     1     -17.234  12.864 -19.904  1.00  0.00     0.188 HD
HETATM   31  N7  UNL     1     -17.072  15.604 -21.401  1.00  0.00    -0.328 N
HETATM   32  C18 UNL     1     -18.165  15.050 -22.028  1.00  0.00     0.135 A
ATOM     33  H7  UNL     1     -16.684  16.523 -21.612  1.00  0.00     0.169 HD
HETATM   34  C19 UNL     1     -18.827  15.766 -23.090  1.00  0.00     0.025 A
HETATM   35  C20 UNL     1     -19.888  15.330 -23.820  1.00  0.00     0.018 A
HETATM   36  C23 UNL     1     -18.353  17.036 -23.448  1.00  0.00     0.102 A
HETATM   37  C21 UNL     1     -20.479  16.076 -24.858  1.00  0.00     0.018 A
HETATM   38  C22 UNL     1     -19.969  17.307 -25.156  1.00  0.00     0.087 A
HETATM   39  N8  UNL     1     -18.924  17.744 -24.442  1.00  0.00    -0.374 N
ATOM     40  H8  UNL     1     -18.540  18.663 -24.661  1.00  0.00     0.164 HD
BRANCH  29  41
HETATM   41  C14 UNL     1     -15.409  15.052 -19.609  1.00  0.00     0.205 C
BRANCH  41  42
HETATM   42  N5  UNL     1     -14.259  15.296 -20.452  1.00  0.00    -0.326 N
HETATM   43  C15 UNL     1     -13.607  16.559 -20.763  1.00  0.00     0.147 C
HETATM   44  C16 UNL     1     -13.114  16.322 -22.170  1.00  0.00     0.144 C
HETATM   45  N6  UNL     1     -12.765  14.915 -22.178  1.00  0.00    -0.341 N
HETATM   46  C17 UNL     1     -13.544  14.287 -21.147  1.00  0.00     0.318 C
ATOM     47  H6  UNL     1     -12.094  14.459 -22.797  1.00  0.00     0.164 HD
HETATM   48  O2  UNL     1     -13.518  13.041 -20.978  1.00  0.00    -0.247 OA
ENDBRANCH  41  42
ENDBRANCH  29  41
ENDBRANCH  26  27
ENDBRANCH  25  26
ENDBRANCH   1  25
TORSDOF 10
ENDMDL