MODEL 5
REMARK VINA RESULT: -7.482165306      0.930      1.274
REMARK  15 active torsions:
REMARK  status: ('A' for Active; 'I' for Inactive)
REMARK    1  A    between atoms: C2_2  and  C3_3
REMARK    2  A    between atoms: C3_3  and  C4_4
REMARK    3  A    between atoms: C4_4  and  C5_5
REMARK    4  A    between atoms: C5_5  and  O2_7
REMARK    5  A    between atoms: O2_7  and  C6_8
REMARK    6  A    between atoms: C8_10  and  C9_11
REMARK    7  A    between atoms: C9_11  and  C10_13
REMARK       I    between atoms: N1_17  and  C14_18
REMARK    8  A    between atoms: C14_18  and  C15_20
REMARK    9  A    between atoms: C15_20  and  C16_21
REMARK   10  A    between atoms: C15_20  and  N2_23
REMARK       I    between atoms: N2_23  and  C17_25
REMARK   11  A    between atoms: C17_25  and  O7_27
REMARK   12  A    between atoms: O7_27  and  C18_28
REMARK   13  A    between atoms: C22_32  and  C24_34
REMARK   14  A    between atoms: C24_34  and  N3_35
REMARK       I    between atoms: N3_35  and  C25_37
REMARK       I    between atoms: C25_37  and  N4_39
REMARK   15  A    between atoms: N4_39  and  C26_41
ROOT
HETATM    1  C4  UNL     1     -15.966  11.600 -20.100  1.00  0.00     0.069 A
HETATM    2  C8  UNL     1     -16.420  10.376 -19.318  1.00  0.00     0.087 A
HETATM    3  C22 UNL     1     -16.678  11.751 -18.784  1.00  0.00     0.001 A
HETATM    4  C23 UNL     1     -15.862  12.071 -17.573  1.00  0.00     0.019 C
ENDROOT
BRANCH   2   5
HETATM    5  C9  UNL     1     -15.505   9.355 -18.859  1.00  0.00     0.155 C
HETATM    6  O3  UNL     1     -14.868   8.624 -19.593  1.00  0.00    -0.295 OA
BRANCH   5   7
HETATM    7  C10 UNL     1     -15.295   9.145 -17.413  1.00  0.00     0.157 C
HETATM    8  C11 UNL     1     -14.114   8.274 -17.050  1.00  0.00     0.035 C
HETATM    9  C12 UNL     1     -14.197   8.375 -15.518  1.00  0.00     0.022 C
HETATM   10  C13 UNL     1     -15.667   8.699 -15.250  1.00  0.00     0.127 C
HETATM   11  N1  UNL     1     -16.303   8.551 -16.615  1.00  0.00    -0.338 N
HETATM   12  C14 UNL     1     -17.526   7.908 -16.724  1.00  0.00     0.250 C
HETATM   13  O4  UNL     1     -18.068   7.653 -17.812  1.00  0.00    -0.271 OA
BRANCH  12  14
HETATM   14  C15 UNL     1     -18.282   7.473 -15.518  1.00  0.00     0.240 C
BRANCH  14  15
HETATM   15  C16 UNL     1     -19.412   8.399 -15.190  1.00  0.00     0.266 C
HETATM   16  O5  UNL     1     -20.586   8.092 -15.426  1.00  0.00    -0.304 OA
ENDBRANCH  14  15
BRANCH  14  17
HETATM   17  N2  UNL     1     -18.878   6.170 -15.704  1.00  0.00    -0.317 N
HETATM   18  C17 UNL     1     -18.145   4.963 -15.599  1.00  0.00     0.362 C
HETATM   19  O6  UNL     1     -16.903   5.060 -15.323  1.00  0.00    -0.238 OA
ATOM     20  H2  UNL     1     -19.873   6.117 -15.921  1.00  0.00     0.166 HD
BRANCH  18  21
HETATM   21  O7  UNL     1     -18.680   3.717 -15.772  1.00  0.00    -0.294 OA
BRANCH  21  22
HETATM   22  C18 UNL     1     -19.464   3.395 -16.917  1.00  0.00     0.061 C
HETATM   23  C19 UNL     1     -19.470   1.902 -17.148  1.00  0.00     0.046 C
HETATM   24  C20 UNL     1     -20.875   3.878 -16.834  1.00  0.00     0.046 C
HETATM   25  C21 UNL     1     -18.746   4.000 -18.122  1.00  0.00     0.046 C
ENDBRANCH  21  22
ENDBRANCH  18  21
ENDBRANCH  14  17
ENDBRANCH  12  14
ENDBRANCH   5   7
ENDBRANCH   2   5
BRANCH   1  26
HETATM   26  C3  UNL     1     -14.544  12.050 -20.051  1.00  0.00     0.021 C
BRANCH  26  27
HETATM   27  C2  UNL     1     -14.093  13.230 -20.775  1.00  0.00    -0.003 C
HETATM   28  C1  UNL     1     -14.587  14.589 -20.561  1.00  0.00     0.005 C
ENDBRANCH  26  27
ENDBRANCH   1  26
BRANCH   1  29
HETATM   29  C5  UNL     1     -16.692  11.676 -21.388  1.00  0.00     0.269 C
HETATM   30  O1  UNL     1     -16.412  10.964 -22.382  1.00  0.00    -0.264 OA
BRANCH  29  31
HETATM   31  O2  UNL     1     -17.719  12.548 -21.582  1.00  0.00    -0.321 OA
BRANCH  31  32
HETATM   32  C6  UNL     1     -17.720  13.595 -22.535  1.00  0.00     0.174 C
HETATM   33  C7  UNL     1     -18.394  14.785 -21.865  1.00  0.00     0.034 C
ENDBRANCH  31  32
ENDBRANCH  29  31
ENDBRANCH   1  29
BRANCH   3  34
HETATM   34  C24 UNL     1     -18.110  12.226 -18.771  1.00  0.00     0.135 C
BRANCH  34  35
HETATM   35  N3  UNL     1     -19.134  11.402 -18.245  1.00  0.00    -0.342 N
HETATM   36  C25 UNL     1     -19.925  10.422 -18.895  1.00  0.00     0.316 C
HETATM   37  O8  UNL     1     -19.720  10.146 -20.097  1.00  0.00    -0.247 OA
HETATM   38  N4  UNL     1     -20.976   9.722 -18.208  1.00  0.00    -0.344 N
ATOM     39  H4  UNL     1     -21.176   9.918 -17.227  1.00  0.00     0.164 HD
ATOM     40  H3  UNL     1     -19.332  11.532 -17.252  1.00  0.00     0.164 HD
BRANCH  38  41
HETATM   41  C26 UNL     1     -21.740   8.741 -18.927  1.00  0.00     0.120 C
HETATM   42  C27 UNL     1     -21.215   7.355 -18.721  1.00  0.00     0.026 C
ENDBRANCH  38  41
ENDBRANCH  34  35
ENDBRANCH   3  34
TORSDOF 15
ENDMDL