MODEL 4
REMARK VINA RESULT: -8.975637240      0.874      2.606
REMARK  13 active torsions:
REMARK  status: ('A' for Active; 'I' for Inactive)
REMARK    1  A    between atoms: C3_3  and  O1_4
REMARK    2  A    between atoms: O1_4  and  C4_5
REMARK    3  A    between atoms: C4_5  and  C5_6
REMARK    4  A    between atoms: C10_12  and  N2_13
REMARK    5  A    between atoms: N2_13  and  C11_15
REMARK    6  A    between atoms: C14_24  and  C15_25
REMARK    7  A    between atoms: C19_31  and  N7_32
REMARK    8  A    between atoms: N7_32  and  C20_34
REMARK    9  A    between atoms: C20_34  and  C21_35
REMARK   10  A    between atoms: C24_38  and  C25_39
REMARK   11  A    between atoms: C25_39  and  C26_40
REMARK   12  A    between atoms: C26_40  and  C27_41
REMARK   13  A    between atoms: C27_41  and  O2_42
ROOT
HETATM    1  C1  UNL     1     -20.301  10.069 -21.530  1.00  0.00     0.014 C
HETATM    2  C2  UNL     1     -20.333  10.173 -20.339  1.00  0.00    -0.091 C
HETATM    3  C3  UNL     1     -20.360  10.309 -18.886  1.00  0.00     0.260 C
ENDROOT
BRANCH   3   4
HETATM    4  O1  UNL     1     -19.680   9.278 -18.250  1.00  0.00    -0.379 OA
BRANCH   4   5
HETATM    5  C4  UNL     1     -20.514   8.260 -17.840  1.00  0.00     0.177 C
BRANCH   5   6
HETATM    6  C5  UNL     1     -20.449   7.926 -16.398  1.00  0.00     0.060 C
HETATM    7  C6  UNL     1     -21.393   6.789 -16.024  1.00  0.00     0.280 C
HETATM    8  N1  UNL     1     -20.930   5.604 -16.673  1.00  0.00     0.084 N
HETATM    9  C7  UNL     1     -21.886   4.525 -16.468  1.00  0.00     0.309 C
HETATM   10  C8  UNL     1     -19.692   5.220 -16.017  1.00  0.00     0.274 C
HETATM   11  C9  UNL     1     -18.616   6.231 -16.176  1.00  0.00     0.056 C
HETATM   12  C10 UNL     1     -19.109   7.648 -15.822  1.00  0.00     0.092 C
BRANCH  12  13
HETATM   13  N2  UNL     1     -18.085   8.561 -16.002  1.00  0.00    -0.369 N
ATOM     14  H2  UNL     1     -18.506   9.412 -16.374  1.00  0.00     0.161 HD
BRANCH  13  15
HETATM   15  C11 UNL     1     -16.892   8.771 -15.900  1.00  0.00     0.133 A
HETATM   16  N3  UNL     1     -16.057   8.245 -15.011  1.00  0.00    -0.337 N
HETATM   17  C12 UNL     1     -14.724   8.531 -14.964  1.00  0.00     0.183 A
ATOM     18  H3  UNL     1     -16.433   7.590 -14.325  1.00  0.00     0.168 HD
HETATM   19  N4  UNL     1     -14.178   9.386 -15.845  1.00  0.00    -0.337 N
HETATM   20  C13 UNL     1     -14.944   9.958 -16.771  1.00  0.00     0.139 A
ATOM     21  H4  UNL     1     -13.181   9.596 -15.804  1.00  0.00     0.168 HD
HETATM   22  N5  UNL     1     -14.692  10.834 -17.775  1.00  0.00    -0.326 N
HETATM   23  C29 UNL     1     -16.281   9.665 -16.810  1.00  0.00     0.122 A
HETATM   24  C14 UNL     1     -15.832  11.091 -18.433  1.00  0.00     0.118 A
ATOM     25  H5  UNL     1     -13.780  11.234 -17.996  1.00  0.00     0.169 HD
HETATM   26  N8  UNL     1     -16.786  10.379 -17.840  1.00  0.00    -0.336 N
ATOM     27  H8  UNL     1     -17.766  10.372 -18.124  1.00  0.00     0.168 HD
BRANCH  24  28
HETATM   28  C15 UNL     1     -15.950  11.984 -19.586  1.00  0.00     0.013 A
HETATM   29  C16 UNL     1     -17.172  12.261 -20.134  1.00  0.00     0.040 A
HETATM   30  C17 UNL     1     -17.243  13.106 -21.228  1.00  0.00     0.007 A
HETATM   31  C18 UNL     1     -18.585  13.383 -21.795  1.00  0.00     0.068 C
HETATM   32  N6  UNL     1     -16.146  13.665 -21.772  1.00  0.00    -0.347 N
HETATM   33  C19 UNL     1     -14.925  13.425 -21.272  1.00  0.00     0.102 A
ATOM     34  H6  UNL     1     -16.246  14.282 -22.579  1.00  0.00     0.167 HD
HETATM   35  C28 UNL     1     -14.849  12.570 -20.164  1.00  0.00     0.063 A
BRANCH  33  36
HETATM   36  N7  UNL     1     -13.840  13.903 -21.721  1.00  0.00    -0.370 N
ATOM     37  H7  UNL     1     -13.365  13.352 -22.438  1.00  0.00     0.161 HD
BRANCH  36  38
HETATM   38  C20 UNL     1     -13.209  15.118 -21.339  1.00  0.00     0.186 C
BRANCH  38  39
HETATM   39  C21 UNL     1     -14.046  16.293 -21.730  1.00  0.00     0.071 A
HETATM   40  C22 UNL     1     -14.003  17.534 -21.111  1.00  0.00     0.037 A
HETATM   41  C23 UNL     1     -14.913  18.309 -21.764  1.00  0.00     0.035 A
HETATM   42  C24 UNL     1     -15.471  17.524 -22.746  1.00  0.00     0.053 A
HETATM   43  O3  UNL     1     -14.924  16.346 -22.680  1.00  0.00    -0.318 OA
BRANCH  42  44
HETATM   44  C25 UNL     1     -16.509  17.937 -23.708  1.00  0.00     0.067 C
BRANCH  44  45
HETATM   45  C26 UNL     1     -17.837  17.364 -23.307  1.00  0.00     0.032 C
BRANCH  45  46
HETATM   46  C27 UNL     1     -18.771  17.304 -24.507  1.00  0.00     0.164 C
BRANCH  46  47
HETATM   47  O2  UNL     1     -19.744  18.267 -24.388  1.00  0.00    -0.401 OA
ATOM     48  H2  UNL     1     -20.182  18.388 -25.223  1.00  0.00     0.209 HD
ENDBRANCH  46  47
ENDBRANCH  45  46
ENDBRANCH  44  45
ENDBRANCH  42  44
ENDBRANCH  38  39
ENDBRANCH  36  38
ENDBRANCH  33  36
ENDBRANCH  24  28
ENDBRANCH  13  15
ENDBRANCH  12  13
ENDBRANCH   5   6
ENDBRANCH   4   5
ENDBRANCH   3   4
TORSDOF 13
ENDMDL