MODEL 1
REMARK VINA RESULT: -8.804668650      0.000      0.000
REMARK  14 active torsions:
REMARK  status: ('A' for Active; 'I' for Inactive)
REMARK    1  A    between atoms: O1_2  and  C2_3
REMARK    2  A    between atoms: C4_5  and  N1_6
REMARK    3  A    between atoms: C7_9  and  C8_10
REMARK    4  A    between atoms: C8_10  and  C9_11
REMARK    5  A    between atoms: C9_11  and  N2_12
REMARK    6  A    between atoms: C17_24  and  N5_25
REMARK    7  A    between atoms: N5_25  and  C18_27
REMARK    8  A    between atoms: C20_31  and  O3_32
REMARK    9  A    between atoms: O3_32  and  C21_33
REMARK   10  A    between atoms: C21_33  and  C22_34
REMARK   11  A    between atoms: C25_37  and  N7_38
REMARK   12  A    between atoms: N7_38  and  C26_40
REMARK   13  A    between atoms: C26_40  and  C28_42
REMARK   14  A    between atoms: C28_42  and  O4_43
ROOT
HETATM    1  C2  UNL     1     -16.415  13.458 -21.213  1.00  0.00     0.115 A
HETATM    2  C3  UNL     1     -16.972  13.971 -22.359  1.00  0.00     0.071 A
HETATM    3  C4  UNL     1     -18.238  14.507 -22.335  1.00  0.00     0.048 A
HETATM    4  C16 UNL     1     -18.946  14.527 -21.148  1.00  0.00     0.119 A
HETATM    5  N4  UNL     1     -18.355  14.012 -20.058  1.00  0.00    -0.347 N
ATOM      6  H4  UNL     1     -18.882  14.027 -19.185  1.00  0.00     0.167 HD
HETATM    7  C17 UNL     1     -17.126  13.477 -20.028  1.00  0.00     0.154 A
ENDROOT
BRANCH   7   8
HETATM    8  N5  UNL     1     -16.530  12.926 -18.888  1.00  0.00    -0.174 N
ATOM      9  H5  UNL     1     -16.103  13.589 -18.241  1.00  0.00     0.186 HD
BRANCH   8  10
HETATM   10  C18 UNL     1     -16.455  11.691 -18.560  1.00  0.00     0.685 A
HETATM   11  N6  UNL     1     -15.364  11.015 -18.969  1.00  0.00    -0.199 N
HETATM   12  C19 UNL     1     -15.175   9.715 -18.681  1.00  0.00     0.146 A
ATOM     13  H6  UNL     1     -14.657  11.506 -19.516  1.00  0.00     0.183 HD
HETATM   14  C20 UNL     1     -16.161   9.064 -17.928  1.00  0.00     0.129 A
HETATM   15  C25 UNL     1     -17.287   9.760 -17.505  1.00  0.00     0.152 A
HETATM   16  N8  UNL     1     -17.406  11.057 -17.832  1.00  0.00    -0.174 N
ATOM     17  H8  UNL     1     -18.229  11.575 -17.525  1.00  0.00     0.186 HD
BRANCH  14  18
HETATM   18  O3  UNL     1     -16.028   7.724 -17.595  1.00  0.00    -0.346 OA
BRANCH  18  19
HETATM   19  C21 UNL     1     -14.789   7.294 -17.085  1.00  0.00     0.179 C
BRANCH  19  20
HETATM   20  C22 UNL     1     -14.730   7.225 -15.594  1.00  0.00     0.002 C
HETATM   21  C23 UNL     1     -16.077   6.911 -14.977  1.00  0.00     0.011 C
HETATM   22  C24 UNL     1     -14.104   8.456 -15.033  1.00  0.00     0.011 C
ENDBRANCH  19  20
ENDBRANCH  18  19
ENDBRANCH  14  18
BRANCH  15  23
HETATM   23  N7  UNL     1     -18.153   9.140 -16.829  1.00  0.00    -0.367 N
ATOM     24  H7  UNL     1     -17.878   8.918 -15.872  1.00  0.00     0.161 HD
BRANCH  23  25
HETATM   25  C26 UNL     1     -19.455   8.704 -17.201  1.00  0.00     0.102 C
HETATM   26  C27 UNL     1     -19.447   7.752 -18.380  1.00  0.00     0.034 C
BRANCH  25  27
HETATM   27  C28 UNL     1     -20.052   7.973 -15.991  1.00  0.00     0.188 C
BRANCH  27  28
HETATM   28  O4  UNL     1     -19.447   8.471 -14.839  1.00  0.00    -0.399 OA
ATOM     29  H4  UNL     1     -19.914   9.254 -14.572  1.00  0.00     0.209 HD
ENDBRANCH  27  28
ENDBRANCH  25  27
ENDBRANCH  23  25
ENDBRANCH  15  23
ENDBRANCH   8  10
ENDBRANCH   7   8
BRANCH   1  30
HETATM   30  O1  UNL     1     -15.132  12.930 -21.298  1.00  0.00    -0.352 OA
HETATM   31  C1  UNL     1     -13.981  13.750 -21.295  1.00  0.00     0.210 C
ENDBRANCH   1  30
BRANCH   3  32
HETATM   32  N1  UNL     1     -18.777  15.007 -23.549  1.00  0.00    -0.380 N
HETATM   33  C5  UNL     1     -20.145  15.415 -23.583  1.00  0.00     0.123 C
HETATM   34  C6  UNL     1     -20.624  16.008 -24.867  1.00  0.00     0.024 C
HETATM   35  C7  UNL     1     -19.520  16.797 -25.569  1.00  0.00    -0.010 C
HETATM   36  C14 UNL     1     -18.416  15.824 -25.871  1.00  0.00     0.024 C
HETATM   37  C15 UNL     1     -17.909  15.087 -24.685  1.00  0.00     0.123 C
BRANCH  35  38
HETATM   38  C8  UNL     1     -19.126  17.903 -24.662  1.00  0.00     0.024 C
BRANCH  38  39
HETATM   39  C9  UNL     1     -17.901  18.650 -25.101  1.00  0.00     0.128 C
BRANCH  39  40
HETATM   40  N2  UNL     1     -16.737  18.373 -24.284  1.00  0.00    -0.333 N
HETATM   41  C10 UNL     1     -16.590  18.128 -22.870  1.00  0.00     0.147 C
HETATM   42  C11 UNL     1     -15.322  17.301 -22.753  1.00  0.00     0.147 C
HETATM   43  N3  UNL     1     -14.535  17.824 -23.880  1.00  0.00    -0.337 N
HETATM   44  C12 UNL     1     -13.097  17.837 -23.996  1.00  0.00     0.154 C
HETATM   45  C13 UNL     1     -15.411  18.328 -24.865  1.00  0.00     0.320 C
HETATM   46  O2  UNL     1     -15.087  18.673 -26.030  1.00  0.00    -0.247 OA
ENDBRANCH  39  40
ENDBRANCH  38  39
ENDBRANCH  35  38
ENDBRANCH   3  32
TORSDOF 14
ENDMDL