MODEL 2
REMARK VINA RESULT: -8.714487077      1.750      2.905
REMARK  12 active torsions:
REMARK  status: ('A' for Active; 'I' for Inactive)
REMARK    1  A    between atoms: C7_7  and  O1_8
REMARK    2  A    between atoms: O1_8  and  C8_9
REMARK    3  A    between atoms: C8_9  and  C9_10
REMARK    4  A    between atoms: C9_10  and  C11_13
REMARK    5  A    between atoms: C9_10  and  N2_16
REMARK    6  A    between atoms: C11_13  and  O2_14
REMARK       I    between atoms: N2_16  and  C12_18
REMARK       I    between atoms: C12_18  and  N3_20
REMARK    7  A    between atoms: N3_20  and  C13_21
REMARK    8  A    between atoms: N3_20  and  C18_27
REMARK    9  A    between atoms: C13_21  and  C14_22
REMARK   10  A    between atoms: C14_22  and  C15_23
REMARK   11  A    between atoms: C15_23  and  N4_24
REMARK   12  A    between atoms: N5_30  and  C21_31
ROOT
HETATM    1  C1  UNL     1     -17.213  18.270 -26.791  1.00  0.00     0.012 C
HETATM    2  C2  UNL     1     -17.809  17.443 -26.169  1.00  0.00    -0.110 C
HETATM    3  C3  UNL     1     -18.554  16.456 -25.431  1.00  0.00     0.093 C
HETATM    4  C4  UNL     1     -20.061  16.736 -25.580  1.00  0.00     0.020 C
HETATM    5  C5  UNL     1     -20.694  16.148 -24.324  1.00  0.00     0.004 C
HETATM    6  C6  UNL     1     -19.557  15.492 -23.579  1.00  0.00     0.033 C
HETATM    7  C7  UNL     1     -18.402  16.531 -23.920  1.00  0.00     0.137 C
ENDROOT
BRANCH   7   8
HETATM    8  O1  UNL     1     -17.282  16.115 -23.459  1.00  0.00    -0.381 OA
BRANCH   8   9
HETATM    9  C8  UNL     1     -16.508  15.189 -23.138  1.00  0.00     0.217 C
BRANCH   9  10
HETATM   10  C9  UNL     1     -15.403  15.232 -22.074  1.00  0.00     0.166 C
HETATM   11  C10 UNL     1     -14.122  15.296 -22.718  1.00  0.00     0.095 C
HETATM   12  N1  UNL     1     -13.086  15.324 -23.225  1.00  0.00    -0.194 NA
BRANCH  10  13
HETATM   13  C11 UNL     1     -15.620  16.358 -21.122  1.00  0.00     0.213 C
BRANCH  13  14
HETATM   14  O2  UNL     1     -15.582  17.611 -21.648  1.00  0.00    -0.397 OA
ATOM     15  H2  UNL     1     -16.207  18.236 -21.299  1.00  0.00     0.209 HD
ENDBRANCH  13  14
ENDBRANCH  10  13
BRANCH  10  16
HETATM   16  N2  UNL     1     -15.527  13.944 -21.338  1.00  0.00    -0.317 N
HETATM   17  C12 UNL     1     -16.670  13.590 -20.637  1.00  0.00     0.320 C
HETATM   18  O3  UNL     1     -17.641  14.424 -20.629  1.00  0.00    -0.247 OA
HETATM   19  N3  UNL     1     -16.875  12.387 -19.922  1.00  0.00    -0.328 N
ATOM     20  H2  UNL     1     -14.740  13.295 -21.350  1.00  0.00     0.166 HD
BRANCH  19  21
HETATM   21  C13 UNL     1     -18.198  12.229 -19.272  1.00  0.00     0.130 C
BRANCH  21  22
HETATM   22  C14 UNL     1     -19.275  12.078 -20.336  1.00  0.00     0.050 C
BRANCH  22  23
HETATM   23  C15 UNL     1     -20.314  11.138 -19.764  1.00  0.00     0.273 C
BRANCH  23  24
HETATM   24  N4  UNL     1     -20.242   9.812 -20.360  1.00  0.00     0.080 N
HETATM   25  C16 UNL     1     -20.020  10.009 -21.780  1.00  0.00     0.309 C
HETATM   26  C17 UNL     1     -21.539   9.182 -20.204  1.00  0.00     0.309 C
ENDBRANCH  23  24
ENDBRANCH  22  23
ENDBRANCH  21  22
ENDBRANCH  19  21
BRANCH  19  27
HETATM   27  C18 UNL     1     -15.961  11.316 -19.739  1.00  0.00     0.108 C
HETATM   28  C19 UNL     1     -16.482   9.944 -20.107  1.00  0.00     0.047 C
HETATM   29  C20 UNL     1     -15.380   9.082 -19.438  1.00  0.00     0.126 C
HETATM   30  N5  UNL     1     -15.382   9.676 -18.134  1.00  0.00    -0.364 N
HETATM   31  C29 UNL     1     -15.388  11.131 -18.383  1.00  0.00     0.150 C
BRANCH  30  32
HETATM   32  C21 UNL     1     -15.398   9.008 -16.903  1.00  0.00     0.118 A
HETATM   33  N6  UNL     1     -14.233   8.995 -16.194  1.00  0.00    -0.338 N
HETATM   34  C22 UNL     1     -14.105   8.427 -14.992  1.00  0.00     0.183 A
ATOM     35  H6  UNL     1     -13.414   9.443 -16.605  1.00  0.00     0.168 HD
HETATM   36  N7  UNL     1     -15.140   7.823 -14.403  1.00  0.00    -0.338 N
HETATM   37  C23 UNL     1     -16.306   7.806 -15.053  1.00  0.00     0.121 A
ATOM     38  H7  UNL     1     -15.043   7.389 -13.486  1.00  0.00     0.168 HD
HETATM   39  N8  UNL     1     -17.497   7.269 -14.709  1.00  0.00    -0.345 N
HETATM   40  C28 UNL     1     -16.467   8.391 -16.308  1.00  0.00     0.060 A
HETATM   41  C24 UNL     1     -18.388   7.490 -15.683  1.00  0.00     0.014 A
ATOM     42  H8  UNL     1     -17.689   6.772 -13.839  1.00  0.00     0.167 HD
HETATM   43  C25 UNL     1     -19.809   7.067 -15.703  1.00  0.00     0.068 C
HETATM   44  C26 UNL     1     -17.760   8.191 -16.696  1.00  0.00    -0.022 A
HETATM   45  C27 UNL     1     -18.365   8.626 -17.960  1.00  0.00     0.051 C
ENDBRANCH  30  32
ENDBRANCH  19  27
ENDBRANCH  10  16
ENDBRANCH   9  10
ENDBRANCH   8   9
ENDBRANCH   7   8
TORSDOF 12
ENDMDL