MODEL 4
REMARK VINA RESULT: -7.568204621      2.324      9.051
REMARK  13 active torsions:
REMARK  status: ('A' for Active; 'I' for Inactive)
REMARK    1  A    between atoms: C2_2  and  C3_3
REMARK    2  A    between atoms: C3_3  and  C4_4
REMARK    3  A    between atoms: C4_4  and  N1_5
REMARK       I    between atoms: N1_5  and  C5_6
REMARK    4  A    between atoms: N1_5  and  C13_20
REMARK    5  A    between atoms: C5_6  and  C6_8
REMARK    6  A    between atoms: C6_8  and  C7_9
REMARK    7  A    between atoms: C7_9  and  C8_10
REMARK       I    between atoms: C8_10  and  N2_12
REMARK    8  A    between atoms: C14_21  and  N4_22
REMARK    9  A    between atoms: N4_22  and  C15_24
REMARK   10  A    between atoms: C15_24  and  C17_26
REMARK   11  A    between atoms: N5_30  and  C21_31
REMARK   12  A    between atoms: C21_31  and  C22_32
REMARK   13  A    between atoms: C22_32  and  C23_33
ROOT
HETATM    1  C13 UNL     1     -15.861  13.689 -21.662  1.00  0.00     0.150 A
HETATM    2  C14 UNL     1     -15.675  14.781 -22.448  1.00  0.00     0.141 A
HETATM    3  N5  UNL     1     -14.372  15.281 -22.505  1.00  0.00    -0.283 N
HETATM    4  C25 UNL     1     -13.380  14.699 -21.820  1.00  0.00     0.331 A
HETATM    5  O3  UNL     1     -12.190  15.192 -21.900  1.00  0.00    -0.246 OA
HETATM    6  N6  UNL     1     -13.555  13.621 -21.048  1.00  0.00    -0.273 N
ATOM      7  H6  UNL     1     -12.772  13.208 -20.543  1.00  0.00     0.173 HD
HETATM    8  C26 UNL     1     -14.773  13.103 -20.954  1.00  0.00     0.280 A
HETATM    9  O4  UNL     1     -14.912  12.092 -20.229  1.00  0.00    -0.265 OA
ENDROOT
BRANCH   1  10
HETATM   10  N1  UNL     1     -17.081  13.025 -21.376  1.00  0.00    -0.310 N
HETATM   11  C5  UNL     1     -17.482  11.754 -21.822  1.00  0.00     0.225 C
HETATM   12  O1  UNL     1     -16.644  11.062 -22.458  1.00  0.00    -0.273 OA
BRANCH  10  13
HETATM   13  C4  UNL     1     -17.930  13.652 -20.369  1.00  0.00     0.132 C
BRANCH  13  14
HETATM   14  C3  UNL     1     -17.454  13.760 -18.991  1.00  0.00     0.020 C
BRANCH  14  15
HETATM   15  C2  UNL     1     -18.092  12.742 -18.056  1.00  0.00    -0.003 C
HETATM   16  C1  UNL     1     -17.140  11.604 -17.765  1.00  0.00     0.005 C
ENDBRANCH  14  15
ENDBRANCH  13  14
ENDBRANCH  10  13
BRANCH  11  17
HETATM   17  C6  UNL     1     -18.820  11.174 -21.599  1.00  0.00     0.112 C
BRANCH  17  18
HETATM   18  C7  UNL     1     -18.727   9.888 -20.808  1.00  0.00     0.112 C
BRANCH  18  19
HETATM   19  C8  UNL     1     -19.752   9.853 -19.753  1.00  0.00     0.220 C
HETATM   20  O2  UNL     1     -20.643  10.740 -19.755  1.00  0.00    -0.273 OA
HETATM   21  N2  UNL     1     -19.792   8.875 -18.732  1.00  0.00    -0.349 N
HETATM   22  C9  UNL     1     -20.811   8.880 -17.719  1.00  0.00     0.153 C
HETATM   23  C12 UNL     1     -18.785   7.845 -18.711  1.00  0.00     0.153 C
HETATM   24  C10 UNL     1     -20.283   8.139 -16.510  1.00  0.00     0.252 C
HETATM   25  N3  UNL     1     -18.864   8.494 -16.405  1.00  0.00    -0.072 N
HETATM   26  C11 UNL     1     -18.180   7.627 -17.356  1.00  0.00     0.252 C
ATOM     27  H32 UNL     1     -18.676   9.487 -16.545  1.00  0.00     0.277 HD
ATOM     28  H31 UNL     1     -18.494   8.437 -15.456  1.00  0.00     0.277 HD
ENDBRANCH  18  19
ENDBRANCH  17  18
ENDBRANCH  11  17
ENDBRANCH   1  10
BRANCH   2  29
HETATM   29  N4  UNL     1     -16.589  15.420 -23.296  1.00  0.00    -0.369 N
ATOM     30  H4  UNL     1     -16.267  15.354 -24.262  1.00  0.00     0.161 HD
BRANCH  29  31
HETATM   31  C15 UNL     1     -17.807  16.120 -23.247  1.00  0.00     0.086 C
HETATM   32  C16 UNL     1     -17.852  17.509 -23.805  1.00  0.00     0.033 C
BRANCH  31  33
HETATM   33  C17 UNL     1     -18.898  15.378 -24.087  1.00  0.00    -0.031 C
HETATM   34  C18 UNL     1     -19.746  16.464 -24.693  1.00  0.00     0.016 C
HETATM   35  C19 UNL     1     -18.284  14.582 -25.186  1.00  0.00     0.016 C
HETATM   36  C20 UNL     1     -19.785  14.583 -23.163  1.00  0.00     0.016 C
ENDBRANCH  31  33
ENDBRANCH  29  31
ENDBRANCH   2  29
BRANCH   3  37
HETATM   37  C21 UNL     1     -13.992  16.424 -23.299  1.00  0.00     0.135 C
BRANCH  37  38
HETATM   38  C22 UNL     1     -14.101  17.740 -22.625  1.00  0.00     0.020 C
BRANCH  38  39
HETATM   39  C23 UNL     1     -14.387  18.854 -23.619  1.00  0.00    -0.003 C
HETATM   40  C24 UNL     1     -15.135  19.995 -23.005  1.00  0.00     0.005 C
ENDBRANCH  38  39
ENDBRANCH  37  38
ENDBRANCH   3  37
TORSDOF 13
ENDMDL