MODEL 2
REMARK VINA RESULT: -7.139063021      3.588      9.339
REMARK  14 active torsions:
REMARK  status: ('A' for Active; 'I' for Inactive)
REMARK    1  A    between atoms: O1_2  and  C2_3
REMARK    2  A    between atoms: C5_6  and  C6_7
REMARK    3  A    between atoms: C6_7  and  C7_8
REMARK    4  A    between atoms: C7_8  and  N1_9
REMARK    5  A    between atoms: N1_9  and  C8_11
REMARK    6  A    between atoms: C8_11  and  N2_13
REMARK    7  A    between atoms: N2_13  and  C9_15
REMARK    8  A    between atoms: C9_15  and  C10_16
REMARK    9  A    between atoms: C10_16  and  C11_17
REMARK   10  A    between atoms: C13_20  and  N3_21
REMARK   11  A    between atoms: N3_21  and  C14_23
REMARK   12  A    between atoms: C14_23  and  C17_26
REMARK   13  A    between atoms: C19_29  and  N5_30
REMARK   14  A    between atoms: C23_36  and  O2_37
ROOT
HETATM    1  C17 UNL     1     -14.536  19.231 -23.246  1.00  0.00     0.065 C
HETATM    2  C18 UNL     1     -14.078  20.021 -22.061  1.00  0.00     0.099 C
HETATM    3  N4  UNL     1     -13.728  20.648 -21.157  1.00  0.00    -0.192 NA
HETATM    4  C19 UNL     1     -14.826  19.914 -24.296  1.00  0.00     0.105 C
ENDROOT
BRANCH   1   5
HETATM    5  C14 UNL     1     -14.522  17.796 -23.020  1.00  0.00     0.063 C
HETATM    6  C15 UNL     1     -13.429  17.126 -23.894  1.00  0.00     0.044 C
HETATM    7  C16 UNL     1     -15.784  17.057 -23.237  1.00  0.00     0.044 C
BRANCH   5   8
HETATM    8  N3  UNL     1     -14.096  17.493 -21.627  1.00  0.00    -0.357 N
ATOM      9  H3  UNL     1     -13.677  18.201 -21.024  1.00  0.00     0.162 HD
BRANCH   8  10
HETATM   10  C13 UNL     1     -14.290  16.263 -21.223  1.00  0.00     0.145 A
HETATM   11  S2  UNL     1     -13.296  14.884 -21.341  1.00  0.00    -0.064 SA
HETATM   12  C12 UNL     1     -14.321  13.759 -20.570  1.00  0.00     0.078 A
HETATM   13  C11 UNL     1     -15.403  14.537 -20.256  1.00  0.00     0.019 A
HETATM   14  N6  UNL     1     -15.374  15.790 -20.589  1.00  0.00    -0.340 N
ATOM     15  H6  UNL     1     -16.159  16.404 -20.373  1.00  0.00     0.168 HD
BRANCH  13  16
HETATM   16  C10 UNL     1     -16.579  13.901 -19.538  1.00  0.00     0.077 C
BRANCH  16  17
HETATM   17  C9  UNL     1     -17.756  13.700 -20.425  1.00  0.00     0.128 C
BRANCH  17  18
HETATM   18  N2  UNL     1     -17.682  12.596 -21.331  1.00  0.00    -0.367 N
ATOM     19  H2  UNL     1     -17.714  12.762 -22.338  1.00  0.00     0.161 HD
BRANCH  18  20
HETATM   20  C8  UNL     1     -17.566  11.278 -20.839  1.00  0.00     0.167 C
HETATM   21  S1  UNL     1     -18.862  10.442 -20.282  1.00  0.00    -0.041 SA
BRANCH  20  22
HETATM   22  N1  UNL     1     -16.283  10.667 -20.831  1.00  0.00    -0.367 N
ATOM     23  H1  UNL     1     -15.656  10.772 -21.629  1.00  0.00     0.161 HD
BRANCH  22  24
HETATM   24  C7  UNL     1     -15.882   9.902 -19.690  1.00  0.00     0.126 C
BRANCH  24  25
HETATM   25  C6  UNL     1     -14.924  10.623 -18.798  1.00  0.00     0.058 C
BRANCH  25  26
HETATM   26  C5  UNL     1     -14.908   9.880 -17.488  1.00  0.00    -0.054 A
HETATM   27  C4  UNL     1     -13.719   9.670 -16.820  1.00  0.00     0.010 A
HETATM   28  C3  UNL     1     -13.750   8.986 -15.623  1.00  0.00     0.040 A
HETATM   29  C2  UNL     1     -14.951   8.513 -15.089  1.00  0.00     0.101 A
HETATM   30  C23 UNL     1     -16.125   8.721 -15.749  1.00  0.00     0.102 A
HETATM   31  C22 UNL     1     -16.104   9.403 -16.947  1.00  0.00     0.046 A
BRANCH  29  32
HETATM   32  O1  UNL     1     -14.971   7.832 -13.894  1.00  0.00    -0.353 OA
HETATM   33  C1  UNL     1     -14.668   6.458 -13.877  1.00  0.00     0.210 C
ENDBRANCH  29  32
BRANCH  30  34
HETATM   34  O2  UNL     1     -17.351   8.270 -15.263  1.00  0.00    -0.353 OA
HETATM   35  C24 UNL     1     -18.448   8.025 -16.107  1.00  0.00     0.210 C
ENDBRANCH  30  34
ENDBRANCH  25  26
ENDBRANCH  24  25
ENDBRANCH  22  24
ENDBRANCH  20  22
ENDBRANCH  18  20
ENDBRANCH  17  18
ENDBRANCH  16  17
ENDBRANCH  13  16
ENDBRANCH   8  10
ENDBRANCH   5   8
ENDBRANCH   1   5
BRANCH   4  36
HETATM   36  N5  UNL     1     -15.225  19.598 -25.590  1.00  0.00    -0.397 N
HETATM   37  C20 UNL     1     -16.597  19.198 -25.961  1.00  0.00     0.148 C
HETATM   38  C21 UNL     1     -14.310  19.676 -26.732  1.00  0.00     0.148 C
ENDBRANCH   4  36
TORSDOF 14
ENDMDL