MODEL 1
REMARK VINA RESULT: -6.745533053      0.000      0.000
REMARK  12 active torsions:
REMARK  status: ('A' for Active; 'I' for Inactive)
REMARK    1  A    between atoms: C2_2  and  C3_3
REMARK    2  A    between atoms: C3_3  and  O1_4
REMARK    3  A    between atoms: O1_4  and  C4_5
REMARK    4  A    between atoms: C8_9  and  N1_10
REMARK    5  A    between atoms: N1_10  and  S1_12
REMARK    6  A    between atoms: C10_16  and  O4_17
REMARK    7  A    between atoms: C12_19  and  C13_20
REMARK    8  A    between atoms: C16_23  and  N2_24
REMARK    9  A    between atoms: N2_24  and  C17_26
REMARK   10  A    between atoms: C17_26  and  C18_27
REMARK   11  A    between atoms: C18_27  and  N3_28
REMARK   12  A    between atoms: C22_38  and  C23_39
ROOT
HETATM    1  C13 UNL     1     -18.910   7.921 -17.737  1.00  0.00     0.003 A
HETATM    2  C14 UNL     1     -18.562   8.619 -18.906  1.00  0.00     0.033 A
HETATM    3  C15 UNL     1     -19.304   9.686 -19.313  1.00  0.00     0.056 A
HETATM    4  C16 UNL     1     -19.241  10.590 -20.402  1.00  0.00     0.133 A
HETATM    5  N4  UNL     1     -20.266  11.446 -20.261  1.00  0.00    -0.283 N
ATOM      6  H4  UNL     1     -20.498  12.220 -20.884  1.00  0.00     0.188 HD
HETATM    7  N5  UNL     1     -20.919  11.099 -19.164  1.00  0.00    -0.283 N
ATOM      8  H5  UNL     1     -21.746  11.586 -18.821  1.00  0.00     0.188 HD
HETATM    9  C21 UNL     1     -20.378  10.043 -18.554  1.00  0.00     0.134 A
HETATM   10  N6  UNL     1     -20.712   9.362 -17.422  1.00  0.00    -0.343 N
ATOM     11  H6  UNL     1     -21.524   9.660 -16.882  1.00  0.00     0.167 HD
HETATM   12  C22 UNL     1     -19.989   8.295 -16.998  1.00  0.00     0.021 A
ENDROOT
BRANCH   1  13
HETATM   13  C12 UNL     1     -17.952   6.882 -17.370  1.00  0.00     0.046 A
HETATM   14  C4  UNL     1     -18.192   5.536 -17.431  1.00  0.00     0.088 A
HETATM   15  C5  UNL     1     -17.106   4.672 -17.056  1.00  0.00    -0.025 A
HETATM   16  C6  UNL     1     -17.335   3.217 -17.111  1.00  0.00     0.051 C
HETATM   17  C7  UNL     1     -15.901   5.162 -16.664  1.00  0.00     0.042 A
HETATM   18  C8  UNL     1     -15.660   6.488 -16.607  1.00  0.00     0.077 A
HETATM   19  C10 UNL     1     -16.693   7.376 -16.965  1.00  0.00     0.109 A
BRANCH  14  20
HETATM   20  O1  UNL     1     -19.307   4.987 -17.798  1.00  0.00    -0.350 OA
BRANCH  20  21
HETATM   21  C3  UNL     1     -20.410   4.443 -18.155  1.00  0.00     0.175 C
BRANCH  21  22
HETATM   22  C2  UNL     1     -21.606   4.126 -17.354  1.00  0.00     0.022 C
HETATM   23  C1  UNL     1     -22.927   4.583 -17.815  1.00  0.00     0.007 C
ENDBRANCH  21  22
ENDBRANCH  20  21
ENDBRANCH  14  20
BRANCH  18  24
HETATM   24  N1  UNL     1     -14.408   7.034 -16.202  1.00  0.00    -0.282 N
ATOM     25  H1  UNL     1     -13.686   7.206 -16.902  1.00  0.00     0.178 HD
BRANCH  24  26
HETATM   26  S1  UNL     1     -14.094   7.408 -14.563  1.00  0.00     0.227 S
HETATM   27  C9  UNL     1     -14.198   5.898 -13.633  1.00  0.00     0.186 C
HETATM   28  O2  UNL     1     -12.770   8.093 -14.359  1.00  0.00    -0.206 OA
HETATM   29  O3  UNL     1     -15.131   8.348 -13.998  1.00  0.00    -0.206 OA
ENDBRANCH  24  26
ENDBRANCH  18  24
BRANCH  19  30
HETATM   30  O4  UNL     1     -16.428   8.707 -16.924  1.00  0.00    -0.353 OA
HETATM   31  C11 UNL     1     -15.548   9.555 -17.519  1.00  0.00     0.210 C
ENDBRANCH  19  30
ENDBRANCH   1  13
BRANCH  12  32
HETATM   32  C23 UNL     1     -20.446   7.553 -15.833  1.00  0.00     0.053 C
HETATM   33  C24 UNL     1     -21.919   7.437 -15.674  1.00  0.00     0.011 C
ENDBRANCH  12  32
BRANCH   4  34
HETATM   34  N2  UNL     1     -18.334  10.473 -21.251  1.00  0.00    -0.352 N
ATOM     35  H2  UNL     1     -18.373   9.569 -21.721  1.00  0.00     0.166 HD
BRANCH  34  36
HETATM   36  C17 UNL     1     -17.287  11.255 -21.721  1.00  0.00     0.092 C
BRANCH  36  37
HETATM   37  C18 UNL     1     -16.078  11.370 -20.843  1.00  0.00     0.315 C
BRANCH  37  38
HETATM   38  N3  UNL     1     -15.789  12.790 -20.653  1.00  0.00     0.084 N
HETATM   39  C19 UNL     1     -14.343  12.963 -20.504  1.00  0.00     0.309 C
HETATM   40  C20 UNL     1     -16.345  13.114 -19.327  1.00  0.00     0.309 C
ENDBRANCH  37  38
ENDBRANCH  36  37
ENDBRANCH  34  36
ENDBRANCH   4  34
TORSDOF 12
ENDMDL