MODEL 3
REMARK VINA RESULT: -7.843012532      1.656      2.338
REMARK  17 active torsions:
REMARK  status: ('A' for Active; 'I' for Inactive)
REMARK    1  A    between atoms: C2_2  and  C3_3
REMARK    2  A    between atoms: C3_3  and  C4_4
REMARK    3  A    between atoms: C6_7  and  N1_8
REMARK    4  A    between atoms: C9_11  and  N2_12
REMARK       I    between atoms: N2_12  and  C10_13
REMARK    5  A    between atoms: C10_13  and  C11_15
REMARK    6  A    between atoms: C11_15  and  C12_16
REMARK    7  A    between atoms: C12_16  and  C13_17
REMARK    8  A    between atoms: C13_17  and  C14_18
REMARK    9  A    between atoms: C14_18  and  C15_19
REMARK   10  A    between atoms: C15_19  and  C16_20
REMARK   11  A    between atoms: C17_21  and  C18_22
REMARK   12  A    between atoms: C21_27  and  N4_28
REMARK   13  A    between atoms: N4_28  and  O3_30
REMARK   14  A    between atoms: O3_30  and  C22_31
REMARK   15  A    between atoms: C22_31  and  C23_32
REMARK   16  A    between atoms: C27_36  and  O4_37
REMARK   17  A    between atoms: C28_39  and  O5_40
ROOT
HETATM    1  C18 UNL     1     -19.409   6.477 -15.680  1.00  0.00    -0.015 C
HETATM    2  C19 UNL     1     -20.535   6.944 -15.727  1.00  0.00    -0.097 C
HETATM    3  C20 UNL     1     -21.894   7.484 -15.799  1.00  0.00     0.113 C
ENDROOT
BRANCH   1   4
HETATM    4  C17 UNL     1     -18.114   5.908 -15.632  1.00  0.00    -0.015 C
HETATM    5  C16 UNL     1     -16.997   5.408 -15.569  1.00  0.00    -0.092 C
BRANCH   5   6
HETATM    6  C15 UNL     1     -15.665   4.866 -15.483  1.00  0.00     0.095 C
BRANCH   6   7
HETATM    7  C14 UNL     1     -14.795   5.313 -14.388  1.00  0.00     0.012 C
BRANCH   7   8
HETATM    8  C13 UNL     1     -14.767   6.732 -14.006  1.00  0.00     0.001 C
BRANCH   8   9
HETATM    9  C12 UNL     1     -13.880   7.630 -14.766  1.00  0.00     0.010 C
BRANCH   9  10
HETATM   10  C11 UNL     1     -14.367   8.177 -16.043  1.00  0.00     0.119 C
BRANCH  10  11
HETATM   11  C10 UNL     1     -14.184   9.665 -16.138  1.00  0.00     0.293 C
HETATM   12  N2  UNL     1     -14.676  10.449 -17.066  1.00  0.00    -0.351 NA
HETATM   13  O2  UNL     1     -13.469  10.164 -15.182  1.00  0.00    -0.257 OA
BRANCH  12  14
HETATM   14  C9  UNL     1     -15.282  11.090 -17.866  1.00  0.00     0.198 A
HETATM   15  C8  UNL     1     -14.669  11.412 -19.106  1.00  0.00     0.082 A
HETATM   16  C7  UNL     1     -15.387  12.133 -19.997  1.00  0.00     0.114 A
HETATM   17  N1  UNL     1     -16.661  12.552 -19.743  1.00  0.00    -0.182 N
HETATM   18  C21 UNL     1     -17.261  12.260 -18.579  1.00  0.00     0.707 A
HETATM   19  N3  UNL     1     -16.561  11.535 -17.663  1.00  0.00    -0.162 N
ATOM     20  H3  UNL     1     -17.014  11.312 -16.776  1.00  0.00     0.187 HD
BRANCH  17  21
HETATM   21  C6  UNL     1     -17.346  13.331 -20.743  1.00  0.00     0.162 C
HETATM   22  C5  UNL     1     -16.972  12.898 -22.156  1.00  0.00     0.197 C
HETATM   23  O1  UNL     1     -17.799  13.592 -23.052  1.00  0.00    -0.381 OA
HETATM   24  C4  UNL     1     -17.385  14.922 -23.154  1.00  0.00     0.156 C
HETATM   25  C28 UNL     1     -16.661  15.427 -21.957  1.00  0.00     0.178 C
HETATM   26  C27 UNL     1     -17.027  14.800 -20.651  1.00  0.00     0.175 C
BRANCH  24  27
HETATM   27  C3  UNL     1     -18.545  15.777 -23.543  1.00  0.00     0.061 C
BRANCH  27  28
HETATM   28  C2  UNL     1     -19.551  14.967 -24.306  1.00  0.00    -0.034 C
HETATM   29  C1  UNL     1     -20.383  15.602 -25.108  1.00  0.00     0.007 C
ENDBRANCH  27  28
ENDBRANCH  24  27
BRANCH  25  30
HETATM   30  O5  UNL     1     -15.272  15.433 -22.124  1.00  0.00    -0.390 OA
ATOM     31  H5  UNL     1     -14.833  14.775 -21.596  1.00  0.00     0.210 HD
ENDBRANCH  25  30
BRANCH  26  32
HETATM   32  O4  UNL     1     -15.995  14.983 -19.708  1.00  0.00    -0.391 OA
ATOM     33  H4  UNL     1     -15.294  14.372 -19.900  1.00  0.00     0.210 HD
ENDBRANCH  26  32
ENDBRANCH  17  21
BRANCH  18  34
HETATM   34  N4  UNL     1     -18.441  12.568 -18.245  1.00  0.00    -0.096 N
ATOM     35  H4  UNL     1     -18.435  13.405 -17.662  1.00  0.00     0.213 HD
BRANCH  34  36
HETATM   36  O3  UNL     1     -19.663  12.148 -18.413  1.00  0.00    -0.266 OA
BRANCH  36  37
HETATM   37  C22 UNL     1     -20.103  11.259 -19.446  1.00  0.00     0.206 C
BRANCH  37  38
HETATM   38  C23 UNL     1     -20.315   9.904 -18.850  1.00  0.00     0.012 C
HETATM   39  C24 UNL     1     -20.746   8.834 -19.854  1.00  0.00     0.007 C
HETATM   40  C25 UNL     1     -19.852   7.882 -19.088  1.00  0.00     0.001 C
HETATM   41  C26 UNL     1     -19.015   9.088 -18.712  1.00  0.00     0.007 C
ENDBRANCH  37  38
ENDBRANCH  36  37
ENDBRANCH  34  36
ENDBRANCH  18  34
ENDBRANCH  12  14
ENDBRANCH  10  11
ENDBRANCH   9  10
ENDBRANCH   8   9
ENDBRANCH   7   8
ENDBRANCH   6   7
ENDBRANCH   5   6
ENDBRANCH   1   4
TORSDOF 17
ENDMDL