MODEL 5
REMARK VINA RESULT: -8.284344529      1.366      1.930
REMARK  12 active torsions:
REMARK  status: ('A' for Active; 'I' for Inactive)
REMARK    1  A    between atoms: C2_2  and  C3_3
REMARK       I    between atoms: C3_3  and  N1_5
REMARK    2  A    between atoms: N1_5  and  C4_6
REMARK    3  A    between atoms: C9_14  and  C10_15
REMARK    4  A    between atoms: C10_15  and  C11_16
REMARK    5  A    between atoms: C11_16  and  C12_17
REMARK    6  A    between atoms: C12_17  and  N2_18
REMARK       I    between atoms: N2_18  and  C13_20
REMARK    7  A    between atoms: C13_20  and  C14_22
REMARK    8  A    between atoms: C14_22  and  C15_23
REMARK    9  A    between atoms: C15_23  and  C16_24
REMARK   10  A    between atoms: C16_24  and  C17_25
REMARK   11  A    between atoms: C17_25  and  C18_26
REMARK   12  A    between atoms: C25_33  and  O6_34
ROOT
HETATM    1  N2  UNL     1     -17.959  16.679 -23.476  1.00  0.00    -0.361 N
ATOM      2  H2  UNL     1     -17.968  16.644 -22.456  1.00  0.00     0.162 HD
HETATM    3  C13 UNL     1     -17.563  17.849 -24.105  1.00  0.00     0.217 C
HETATM    4  O5  UNL     1     -17.641  17.956 -25.370  1.00  0.00    -0.274 OA
ENDROOT
BRANCH   1   5
HETATM    5  C12 UNL     1     -18.359  15.510 -24.220  1.00  0.00     0.122 C
BRANCH   5   6
HETATM    6  C11 UNL     1     -19.126  14.556 -23.361  1.00  0.00     0.022 C
BRANCH   6   7
HETATM    7  C10 UNL     1     -18.760  14.403 -21.960  1.00  0.00     0.036 C
BRANCH   7   8
HETATM    8  C9  UNL     1     -18.877  13.002 -21.414  1.00  0.00     0.152 C
HETATM    9  C8  UNL     1     -17.978  11.987 -22.049  1.00  0.00     0.206 C
HETATM   10  O4  UNL     1     -17.534  11.211 -20.895  1.00  0.00    -0.324 OA
HETATM   11  C7  UNL     1     -18.649  11.373 -20.098  1.00  0.00     0.344 C
HETATM   12  C4  UNL     1     -18.700  10.756 -18.774  1.00  0.00     0.181 C
HETATM   13  O3  UNL     1     -19.799  10.965 -20.832  1.00  0.00    -0.302 OA
HETATM   14  O7  UNL     1     -18.683  12.812 -20.067  1.00  0.00    -0.319 OA
HETATM   15  C5  UNL     1     -19.659   9.596 -18.592  1.00  0.00     0.247 C
HETATM   16  O2  UNL     1     -20.123   8.996 -19.722  1.00  0.00    -0.360 OA
HETATM   17  C6  UNL     1     -19.647   9.576 -20.896  1.00  0.00     0.344 C
BRANCH  12  18
HETATM   18  N1  UNL     1     -17.498  10.558 -18.068  1.00  0.00    -0.365 NA
HETATM   19  C3  UNL     1     -16.396  10.316 -17.361  1.00  0.00     0.315 C
HETATM   20  O1  UNL     1     -16.241   9.455 -16.430  1.00  0.00    -0.252 OA
BRANCH  19  21
HETATM   21  C2  UNL     1     -15.134  11.094 -17.601  1.00  0.00     0.080 C
HETATM   22  C1  UNL     1     -13.977  10.686 -17.139  1.00  0.00     0.018 C
ENDBRANCH  19  21
ENDBRANCH  12  18
ENDBRANCH   7   8
ENDBRANCH   6   7
ENDBRANCH   5   6
ENDBRANCH   1   5
BRANCH   3  23
HETATM   23  C14 UNL     1     -17.025  19.030 -23.379  1.00  0.00     0.103 C
BRANCH  23  24
HETATM   24  C15 UNL     1     -15.499  18.943 -23.559  1.00  0.00     0.009 C
BRANCH  24  25
HETATM   25  C16 UNL     1     -14.836  19.110 -22.212  1.00  0.00     0.001 C
BRANCH  25  26
HETATM   26  C17 UNL     1     -13.985  17.908 -21.926  1.00  0.00     0.005 C
BRANCH  26  27
HETATM   27  C18 UNL     1     -14.801  16.656 -21.699  1.00  0.00    -0.006 C
HETATM   28  C19 UNL     1     -14.385  15.563 -22.663  1.00  0.00    -0.007 C
HETATM   29  C20 UNL     1     -15.170  14.324 -22.341  1.00  0.00     0.010 C
HETATM   30  C27 UNL     1     -12.912  15.236 -22.475  1.00  0.00     0.043 C
HETATM   31  C21 UNL     1     -14.908  13.828 -20.945  1.00  0.00    -0.011 C
HETATM   32  C22 UNL     1     -15.377  14.929 -20.019  1.00  0.00     0.010 C
HETATM   33  C26 UNL     1     -13.459  13.530 -20.801  1.00  0.00     0.042 C
HETATM   34  C23 UNL     1     -14.557  16.169 -20.305  1.00  0.00    -0.007 C
HETATM   35  C24 UNL     1     -13.113  15.796 -20.050  1.00  0.00     0.043 C
HETATM   36  C25 UNL     1     -12.660  14.785 -21.077  1.00  0.00     0.059 C
BRANCH  36  37
HETATM   37  O6  UNL     1     -11.285  14.605 -20.923  1.00  0.00    -0.390 OA
ATOM     38  H6  UNL     1     -10.851  15.386 -21.246  1.00  0.00     0.210 HD
ENDBRANCH  36  37
ENDBRANCH  26  27
ENDBRANCH  25  26
ENDBRANCH  24  25
ENDBRANCH  23  24
ENDBRANCH   3  23
TORSDOF 12
ENDMDL