MODEL 2
REMARK VINA RESULT: -9.550854120      1.251      2.156
REMARK  13 active torsions:
REMARK  status: ('A' for Active; 'I' for Inactive)
REMARK    1  A    between atoms: C2_2  and  C3_3
REMARK    2  A    between atoms: C3_3  and  C4_4
REMARK    3  A    between atoms: C6_8  and  N2_9
REMARK    4  A    between atoms: N2_9  and  C7_11
REMARK    5  A    between atoms: C9_13  and  C10_14
REMARK    6  A    between atoms: C10_14  and  C11_15
REMARK    7  A    between atoms: C16_26  and  C17_27
REMARK    8  A    between atoms: C17_27  and  C18_28
REMARK    9  A    between atoms: C18_28  and  C19_29
REMARK   10  A    between atoms: C19_29  and  C20_30
REMARK   11  A    between atoms: C20_30  and  N5_31
REMARK   12  A    between atoms: C23_34  and  C24_35
REMARK   13  A    between atoms: C24_35  and  O2_36
ROOT
HETATM    1  C7  UNL     1     -16.813  14.827 -22.408  1.00  0.00     0.056 A
HETATM    2  C8  UNL     1     -17.372  15.142 -23.635  1.00  0.00     0.038 A
HETATM    3  C9  UNL     1     -18.689  14.789 -23.944  1.00  0.00    -0.050 A
HETATM    4  C14 UNL     1     -19.475  14.116 -23.035  1.00  0.00     0.008 A
HETATM    5  C15 UNL     1     -18.915  13.804 -21.814  1.00  0.00     0.010 A
HETATM    6  C16 UNL     1     -17.609  14.154 -21.509  1.00  0.00    -0.031 A
ENDROOT
BRANCH   1   7
HETATM    7  N2  UNL     1     -15.482  15.169 -22.070  1.00  0.00    -0.190 N
ATOM      8  H2  UNL     1     -14.901  14.449 -21.639  1.00  0.00     0.184 HD
BRANCH   7   9
HETATM    9  C6  UNL     1     -14.952  16.334 -22.270  1.00  0.00     0.697 A
HETATM   10  N1  UNL     1     -14.264  16.671 -23.355  1.00  0.00    -0.199 N
HETATM   11  C5  UNL     1     -13.729  17.919 -23.507  1.00  0.00     0.132 A
ATOM     12  H1  UNL     1     -14.131  15.980 -24.094  1.00  0.00     0.183 HD
HETATM   13  C4  UNL     1     -13.889  18.881 -22.527  1.00  0.00     0.042 A
HETATM   14  N7  UNL     1     -14.597  18.499 -21.437  1.00  0.00    -0.289 N
HETATM   15  N6  UNL     1     -15.101  17.287 -21.319  1.00  0.00    -0.132 N
ATOM     16  H7  UNL     1     -14.745  19.170 -20.683  1.00  0.00     0.187 HD
ATOM     17  H6  UNL     1     -15.625  17.056 -20.475  1.00  0.00     0.205 HD
BRANCH  13  18
HETATM   18  C3  UNL     1     -13.333  20.252 -22.637  1.00  0.00     0.059 C
BRANCH  18  19
HETATM   19  C2  UNL     1     -12.937  20.798 -21.281  1.00  0.00     0.002 C
HETATM   20  C1  UNL     1     -11.792  21.781 -21.394  1.00  0.00     0.005 C
ENDBRANCH  18  19
ENDBRANCH  13  18
ENDBRANCH   7   9
ENDBRANCH   1   7
BRANCH   6  21
HETATM   21  C17 UNL     1     -17.018  13.813 -20.165  1.00  0.00     0.041 C
BRANCH  21  22
HETATM   22  C18 UNL     1     -17.007  12.306 -20.097  1.00  0.00     0.006 C
BRANCH  22  23
HETATM   23  C19 UNL     1     -15.708  11.690 -20.590  1.00  0.00     0.030 C
BRANCH  23  24
HETATM   24  C20 UNL     1     -14.913  11.199 -19.427  1.00  0.00     0.272 C
BRANCH  24  25
HETATM   25  N5  UNL     1     -15.664  10.600 -18.383  1.00  0.00     0.088 N
HETATM   26  C21 UNL     1     -15.258  11.142 -17.094  1.00  0.00     0.273 C
HETATM   27  C22 UNL     1     -13.956  10.550 -16.614  1.00  0.00     0.037 C
HETATM   28  C23 UNL     1     -14.099   9.051 -16.535  1.00  0.00     0.012 C
HETATM   29  C25 UNL     1     -14.437   8.530 -17.902  1.00  0.00     0.037 C
HETATM   30  C26 UNL     1     -15.710   9.185 -18.400  1.00  0.00     0.273 C
BRANCH  28  31
HETATM   31  C24 UNL     1     -15.150   8.616 -15.544  1.00  0.00     0.168 C
BRANCH  31  32
HETATM   32  O2  UNL     1     -14.692   8.939 -14.273  1.00  0.00    -0.400 OA
ATOM     33  H2  UNL     1     -15.433   9.254 -13.770  1.00  0.00     0.209 HD
ENDBRANCH  31  32
ENDBRANCH  28  31
ENDBRANCH  24  25
ENDBRANCH  23  24
ENDBRANCH  22  23
ENDBRANCH  21  22
ENDBRANCH   6  21
BRANCH   3  34
HETATM   34  C10 UNL     1     -19.238  15.142 -25.257  1.00  0.00     0.101 C
BRANCH  34  35
HETATM   35  C11 UNL     1     -18.909  16.557 -25.668  1.00  0.00     0.084 A
HETATM   36  N3  UNL     1     -18.031  16.896 -26.546  1.00  0.00    -0.332 N
HETATM   37  C12 UNL     1     -17.942  18.293 -26.721  1.00  0.00     0.179 A
ATOM     38  H3  UNL     1     -17.459  16.226 -27.061  1.00  0.00     0.168 HD
HETATM   39  S1  UNL     1     -16.945  19.120 -27.745  1.00  0.00    -0.040 SA
HETATM   40  N4  UNL     1     -18.883  18.904 -25.844  1.00  0.00    -0.298 N
HETATM   41  C13 UNL     1     -19.498  17.790 -25.174  1.00  0.00     0.270 A
ATOM     42  H4  UNL     1     -19.077  19.898 -25.720  1.00  0.00     0.171 HD
HETATM   43  O1  UNL     1     -20.403  17.896 -24.300  1.00  0.00    -0.266 OA
ENDBRANCH  34  35
ENDBRANCH   3  34
TORSDOF 13
ENDMDL