MODEL 2
REMARK VINA RESULT: -9.031867627      3.310     11.197
REMARK  11 active torsions:
REMARK  status: ('A' for Active; 'I' for Inactive)
REMARK    1  A    between atoms: O1_2  and  C2_3
REMARK    2  A    between atoms: C2_3  and  C3_4
REMARK    3  A    between atoms: C3_4  and  N1_5
REMARK    4  A    between atoms: C4_6  and  C5_7
REMARK       I    between atoms: C5_7  and  N2_9
REMARK    5  A    between atoms: N2_9  and  C6_11
REMARK    6  A    between atoms: C6_11  and  C7_12
REMARK    7  A    between atoms: C7_12  and  C8_13
REMARK    8  A    between atoms: C8_13  and  C9_14
REMARK       I    between atoms: C9_14  and  N3_16
REMARK    9  A    between atoms: N3_16  and  C10_18
REMARK   10  A    between atoms: C10_18  and  C11_19
REMARK   11  A    between atoms: C15_23  and  N4_24
ROOT
HETATM    1  C5  UNL     1     -17.589   9.336 -18.206  1.00  0.00     0.268 C
HETATM    2  O2  UNL     1     -17.131   9.354 -19.396  1.00  0.00    -0.266 OA
HETATM    3  N2  UNL     1     -18.856   9.875 -17.995  1.00  0.00    -0.356 N
ATOM      4  H2  UNL     1     -19.242   9.856 -17.052  1.00  0.00     0.162 HD
ENDROOT
BRANCH   3   5
HETATM    5  C6  UNL     1     -19.656  10.465 -19.065  1.00  0.00     0.123 C
BRANCH   5   6
HETATM    6  C7  UNL     1     -19.549  11.954 -19.120  1.00  0.00     0.029 C
BRANCH   6   7
HETATM    7  C8  UNL     1     -18.599  12.508 -20.114  1.00  0.00     0.104 C
BRANCH   7   8
HETATM    8  C9  UNL     1     -17.589  13.448 -19.585  1.00  0.00     0.217 C
HETATM    9  O3  UNL     1     -17.825  14.284 -18.684  1.00  0.00    -0.274 OA
HETATM   10  N3  UNL     1     -16.279  13.420 -20.112  1.00  0.00    -0.361 N
ATOM     11  H3  UNL     1     -16.071  12.740 -20.844  1.00  0.00     0.162 HD
BRANCH  10  12
HETATM   12  C10 UNL     1     -15.235  14.280 -19.682  1.00  0.00     0.127 C
BRANCH  12  13
HETATM   13  C11 UNL     1     -15.040  15.530 -20.504  1.00  0.00     0.005 C
HETATM   14  C12 UNL     1     -13.635  16.020 -20.204  1.00  0.00     0.006 C
HETATM   15  C13 UNL     1     -12.568  15.179 -20.825  1.00  0.00     0.002 C
HETATM   16  C14 UNL     1     -12.986  14.483 -22.077  1.00  0.00     0.036 C
HETATM   17  C15 UNL     1     -14.055  15.260 -22.813  1.00  0.00     0.223 C
HETATM   18  C21 UNL     1     -15.280  15.293 -21.971  1.00  0.00     0.042 C
BRANCH  17  19
HETATM   19  N4  UNL     1     -13.503  16.545 -23.161  1.00  0.00     0.093 N
HETATM   20  C16 UNL     1     -12.691  16.318 -24.368  1.00  0.00     0.273 C
HETATM   21  C17 UNL     1     -12.792  17.445 -25.352  1.00  0.00     0.030 C
HETATM   22  C18 UNL     1     -12.662  18.753 -24.631  1.00  0.00     0.003 C
HETATM   23  C19 UNL     1     -13.781  18.868 -23.650  1.00  0.00     0.030 C
HETATM   24  C20 UNL     1     -14.503  17.518 -23.533  1.00  0.00     0.273 C
ENDBRANCH  17  19
ENDBRANCH  12  13
ENDBRANCH  10  12
ENDBRANCH   7   8
ENDBRANCH   6   7
ENDBRANCH   5   6
ENDBRANCH   3   5
BRANCH   1  25
HETATM   25  C4  UNL     1     -16.764   8.754 -17.187  1.00  0.00     0.108 A
HETATM   26  N1  UNL     1     -16.946   7.543 -16.688  1.00  0.00    -0.307 N
HETATM   27  C27 UNL     1     -16.055   7.019 -15.777  1.00  0.00     0.262 A
HETATM   28  C26 UNL     1     -14.982   7.773 -15.394  1.00  0.00     0.084 A
HETATM   29  O4  UNL     1     -16.266   5.853 -15.332  1.00  0.00    -0.267 OA
HETATM   30  C23 UNL     1     -14.743   9.042 -15.878  1.00  0.00     0.068 A
HETATM   31  C24 UNL     1     -13.943   7.514 -14.512  1.00  0.00     0.040 A
HETATM   32  C22 UNL     1     -15.642   9.533 -16.780  1.00  0.00     0.067 A
HETATM   33  N5  UNL     1     -13.615   9.503 -15.301  1.00  0.00    -0.300 N
HETATM   34  N6  UNL     1     -13.146   8.575 -14.485  1.00  0.00    -0.304 N
ATOM     35  H5  UNL     1     -13.192  10.416 -15.468  1.00  0.00     0.187 HD
ATOM     36  H6  UNL     1     -12.302   8.661 -13.919  1.00  0.00     0.186 HD
HETATM   37  C25 UNL     1     -13.788   6.251 -13.748  1.00  0.00     0.071 C
BRANCH  26  38
HETATM   38  C3  UNL     1     -18.097   6.738 -16.994  1.00  0.00     0.159 C
BRANCH  38  39
HETATM   39  C2  UNL     1     -19.103   6.949 -15.842  1.00  0.00     0.187 C
BRANCH  39  40
HETATM   40  O1  UNL     1     -20.108   7.820 -16.157  1.00  0.00    -0.394 OA
HETATM   41  C1  UNL     1     -21.165   7.801 -15.274  1.00  0.00     0.201 C
ENDBRANCH  39  40
ENDBRANCH  38  39
ENDBRANCH  26  38
ENDBRANCH   1  25
TORSDOF 11
ENDMDL