MODEL 4
REMARK VINA RESULT: -8.468974661      2.790      4.954
REMARK  14 active torsions:
REMARK  status: ('A' for Active; 'I' for Inactive)
REMARK       I    between atoms: C2_2  and  N1_4
REMARK    1  A    between atoms: C5_7  and  C6_8
REMARK    2  A    between atoms: C7_9  and  C8_10
REMARK    3  A    between atoms: C8_10  and  C9_11
REMARK    4  A    between atoms: C9_11  and  C10_12
REMARK    5  A    between atoms: C10_12  and  C11_13
REMARK    6  A    between atoms: C11_13  and  C12_14
REMARK    7  A    between atoms: C12_14  and  C13_15
REMARK    8  A    between atoms: C13_15  and  C14_16
REMARK    9  A    between atoms: C14_16  and  C15_17
REMARK   10  A    between atoms: C15_17  and  C16_19
REMARK   11  A    between atoms: C16_19  and  N2_20
REMARK   12  A    between atoms: N2_20  and  C17_22
REMARK   13  A    between atoms: C20_26  and  O3_27
REMARK   14  A    between atoms: C21_29  and  C22_30
ROOT
HETATM    1  C15 UNL     1     -18.610  10.456 -19.669  1.00  0.00     0.144 C
HETATM    2  O2  UNL     1     -18.821  11.294 -18.817  1.00  0.00    -0.296 OA
ENDROOT
BRANCH   1   3
HETATM    3  C14 UNL     1     -18.222   9.090 -19.236  1.00  0.00     0.080 C
BRANCH   3   4
HETATM    4  C13 UNL     1     -16.960   9.212 -18.413  1.00  0.00     0.007 C
BRANCH   4   5
HETATM    5  C12 UNL     1     -15.702   9.217 -19.226  1.00  0.00     0.000 C
BRANCH   5   6
HETATM    6  C11 UNL     1     -15.019  10.536 -19.030  1.00  0.00     0.000 C
BRANCH   6   7
HETATM    7  C10 UNL     1     -15.027  10.957 -17.585  1.00  0.00     0.001 C
BRANCH   7   8
HETATM    8  C9  UNL     1     -13.652  10.779 -17.025  1.00  0.00     0.012 C
BRANCH   8   9
HETATM    9  C8  UNL     1     -13.695  10.290 -15.574  1.00  0.00     0.094 C
BRANCH   9  10
HETATM   10  C7  UNL     1     -14.366   8.963 -15.531  1.00  0.00    -0.106 C
HETATM   11  C6  UNL     1     -14.888   7.877 -15.514  1.00  0.00    -0.094 C
BRANCH  11  12
HETATM   12  C5  UNL     1     -15.488   6.565 -15.504  1.00  0.00     0.138 C
HETATM   13  C4  UNL     1     -15.421   5.954 -16.886  1.00  0.00     0.045 C
HETATM   14  C3  UNL     1     -16.238   4.664 -16.791  1.00  0.00     0.128 C
HETATM   15  N1  UNL     1     -15.739   3.796 -15.737  1.00  0.00    -0.345 N
HETATM   16  C2  UNL     1     -15.375   2.459 -16.023  1.00  0.00     0.216 C
HETATM   17  C28 UNL     1     -15.611   4.307 -14.381  1.00  0.00     0.205 C
HETATM   18  C1  UNL     1     -14.869   1.563 -14.968  1.00  0.00     0.117 C
HETATM   19  O1  UNL     1     -15.487   2.032 -17.192  1.00  0.00    -0.274 OA
HETATM   20  C27 UNL     1     -14.911   5.639 -14.494  1.00  0.00     0.160 C
HETATM   21  O5  UNL     1     -13.949   5.900 -13.791  1.00  0.00    -0.295 OA
ENDBRANCH  11  12
ENDBRANCH   9  10
ENDBRANCH   8   9
ENDBRANCH   7   8
ENDBRANCH   6   7
ENDBRANCH   5   6
ENDBRANCH   4   5
ENDBRANCH   3   4
ENDBRANCH   1   3
BRANCH   1  22
HETATM   22  C16 UNL     1     -18.720  10.715 -21.142  1.00  0.00     0.192 C
BRANCH  22  23
HETATM   23  N2  UNL     1     -17.468  11.286 -21.541  1.00  0.00    -0.410 N
ATOM     24  H2  UNL     1     -16.617  10.728 -21.602  1.00  0.00     0.154 HD
BRANCH  23  25
HETATM   25  C17 UNL     1     -17.483  12.674 -21.847  1.00  0.00     0.084 C
HETATM   26  C18 UNL     1     -16.947  13.535 -20.704  1.00  0.00     0.045 C
HETATM   27  C19 UNL     1     -16.665  14.913 -21.185  1.00  0.00     0.133 C
HETATM   28  N3  UNL     1     -17.535  15.344 -22.289  1.00  0.00    -0.330 N
HETATM   29  C20 UNL     1     -17.451  16.509 -22.971  1.00  0.00     0.158 A
HETATM   30  C25 UNL     1     -18.550  14.604 -22.761  1.00  0.00     0.022 A
HETATM   31  C21 UNL     1     -18.464  16.482 -23.905  1.00  0.00     0.088 A
HETATM   32  C23 UNL     1     -19.158  15.281 -23.774  1.00  0.00    -0.019 A
HETATM   33  C24 UNL     1     -20.326  14.816 -24.566  1.00  0.00     0.051 C
HETATM   34  C26 UNL     1     -18.847  13.242 -22.167  1.00  0.00     0.082 C
BRANCH  29  35
HETATM   35  O3  UNL     1     -16.523  17.549 -22.776  1.00  0.00    -0.345 OA
ATOM     36  H3  UNL     1     -16.339  18.276 -23.360  1.00  0.00     0.219 HD
ENDBRANCH  29  35
BRANCH  31  37
HETATM   37  C22 UNL     1     -18.785  17.507 -24.884  1.00  0.00     0.269 C
HETATM   38  N4  UNL     1     -18.154  17.463 -26.148  1.00  0.00    -0.057 NA
HETATM   39  O4  UNL     1     -19.592  18.399 -24.623  1.00  0.00    -0.271 OA
ENDBRANCH  31  37
ENDBRANCH  23  25
ENDBRANCH  22  23
ENDBRANCH   1  22
TORSDOF 14
ENDMDL