MODEL 5
REMARK VINA RESULT: -8.103525338      3.000      6.672
REMARK  13 active torsions:
REMARK  status: ('A' for Active; 'I' for Inactive)
REMARK    1  A    between atoms: C2_2  and  C3_3
REMARK    2  A    between atoms: C3_3  and  C4_4
REMARK    3  A    between atoms: C4_4  and  N1_5
REMARK    4  A    between atoms: N2_8  and  C6_9
REMARK    5  A    between atoms: C6_9  and  C7_10
REMARK    6  A    between atoms: C7_10  and  C8_11
REMARK    7  A    between atoms: C16_20  and  N3_21
REMARK    8  A    between atoms: N3_21  and  C17_22
REMARK    9  A    between atoms: C17_22  and  C18_23
REMARK   10  A    between atoms: C18_23  and  C19_24
REMARK   11  A    between atoms: C19_24  and  N4_25
REMARK       I    between atoms: N4_25  and  C20_27
REMARK   12  A    between atoms: C20_27  and  C21_29
REMARK   13  A    between atoms: C24_34  and  N6_35
ROOT
HETATM    1  N1  UNL     1     -18.259  11.510 -19.423  1.00  0.00    -0.284 N
HETATM    2  C5  UNL     1     -18.875  12.458 -20.206  1.00  0.00     0.333 A
HETATM    3  O1  UNL     1     -20.137  12.470 -20.252  1.00  0.00    -0.246 OA
HETATM    4  N2  UNL     1     -18.221  13.358 -20.913  1.00  0.00    -0.265 N
HETATM    5  C14 UNL     1     -16.853  13.418 -20.922  1.00  0.00     0.270 A
HETATM    6  O2  UNL     1     -16.287  14.295 -21.611  1.00  0.00    -0.267 OA
HETATM    7  C15 UNL     1     -16.190  12.505 -20.168  1.00  0.00     0.136 A
HETATM    8  C16 UNL     1     -14.795  12.490 -20.170  1.00  0.00     0.212 A
HETATM    9  N5  UNL     1     -14.185  11.489 -19.403  1.00  0.00    -0.163 N
ATOM     10  H5  UNL     1     -13.166  11.435 -19.372  1.00  0.00     0.187 HD
HETATM   11  C24 UNL     1     -14.898  10.614 -18.721  1.00  0.00     0.681 A
HETATM   12  N7  UNL     1     -16.237  10.673 -18.751  1.00  0.00    -0.175 N
ATOM     13  H7  UNL     1     -16.760   9.983 -18.213  1.00  0.00     0.186 HD
HETATM   14  C26 UNL     1     -16.922  11.575 -19.441  1.00  0.00     0.148 A
ENDROOT
BRANCH   8  15
HETATM   15  N3  UNL     1     -14.077  13.260 -20.755  1.00  0.00    -0.402 NA
BRANCH  15  16
HETATM   16  C17 UNL     1     -13.299  14.094 -21.392  1.00  0.00     0.159 C
BRANCH  16  17
HETATM   17  C18 UNL     1     -12.708  15.276 -20.591  1.00  0.00     0.079 C
BRANCH  17  18
HETATM   18  C19 UNL     1     -13.760  16.213 -20.096  1.00  0.00     0.128 C
BRANCH  18  19
HETATM   19  N4  UNL     1     -14.634  16.524 -21.233  1.00  0.00    -0.360 N
HETATM   20  C20 UNL     1     -14.587  17.796 -21.848  1.00  0.00     0.221 C
HETATM   21  O3  UNL     1     -13.782  18.661 -21.401  1.00  0.00    -0.273 OA
ATOM     22  H4  UNL     1     -15.281  15.817 -21.582  1.00  0.00     0.162 HD
BRANCH  20  23
HETATM   23  C21 UNL     1     -15.450  18.148 -22.998  1.00  0.00     0.070 C
HETATM   24  C22 UNL     1     -14.609  18.311 -24.255  1.00  0.00     0.019 C
HETATM   25  C23 UNL     1     -16.172  19.467 -22.723  1.00  0.00     0.019 C
ENDBRANCH  20  23
ENDBRANCH  18  19
ENDBRANCH  17  18
ENDBRANCH  16  17
ENDBRANCH  15  16
ENDBRANCH   8  15
BRANCH  11  26
HETATM   26  N6  UNL     1     -14.250   9.700 -18.029  1.00  0.00    -0.230 N
HETATM   27  C25 UNL     1     -14.238   8.321 -18.450  1.00  0.00     0.165 C
ATOM     28  H6  UNL     1     -13.750   9.972 -17.183  1.00  0.00     0.177 HD
ENDBRANCH  11  26
BRANCH   4  29
HETATM   29  C6  UNL     1     -18.905  14.351 -21.751  1.00  0.00     0.141 C
BRANCH  29  30
HETATM   30  C7  UNL     1     -19.021  13.860 -23.177  1.00  0.00     0.054 C
BRANCH  30  31
HETATM   31  C8  UNL     1     -19.093  15.038 -24.084  1.00  0.00    -0.082 C
HETATM   32  C9  UNL     1     -18.221  16.033 -24.051  1.00  0.00    -0.024 C
HETATM   33  C10 UNL     1     -18.406  17.154 -25.013  1.00  0.00     0.027 C
HETATM   34  C11 UNL     1     -19.829  17.653 -24.862  1.00  0.00     0.004 C
HETATM   35  C12 UNL     1     -20.803  16.539 -25.059  1.00  0.00     0.005 C
HETATM   36  C13 UNL     1     -20.172  15.169 -25.111  1.00  0.00     0.034 C
ENDBRANCH  30  31
ENDBRANCH  29  30
ENDBRANCH   4  29
BRANCH   1  37
HETATM   37  C4  UNL     1     -19.073  10.577 -18.728  1.00  0.00     0.135 C
BRANCH  37  38
HETATM   38  C3  UNL     1     -19.294   9.256 -19.350  1.00  0.00     0.020 C
BRANCH  38  39
HETATM   39  C2  UNL     1     -20.574   8.786 -19.846  1.00  0.00    -0.003 C
HETATM   40  C1  UNL     1     -21.212   9.524 -20.982  1.00  0.00     0.005 C
ENDBRANCH  38  39
ENDBRANCH  37  38
ENDBRANCH   1  37
TORSDOF 13
ENDMDL