MODEL 5
REMARK VINA RESULT: -8.567941512      2.351      8.419
REMARK  12 active torsions:
REMARK  status: ('A' for Active; 'I' for Inactive)
REMARK    1  A    between atoms: C2_2  and  C3_3
REMARK    2  A    between atoms: C3_3  and  C4_4
REMARK    3  A    between atoms: C4_4  and  C5_5
REMARK    4  A    between atoms: C5_5  and  O1_6
REMARK    5  A    between atoms: C5_5  and  C6_8
REMARK    6  A    between atoms: C6_8  and  N1_9
REMARK       I    between atoms: N2_17  and  C14_18
REMARK    7  A    between atoms: C14_18  and  C15_20
REMARK    8  A    between atoms: N5_29  and  C21_30
REMARK    9  A    between atoms: C21_30  and  C22_31
REMARK   10  A    between atoms: C22_31  and  C23_32
REMARK   11  A    between atoms: C23_32  and  N6_33
REMARK   12  A    between atoms: C28_38  and  N7_39
ROOT
HETATM    1  C15 UNL     1     -16.847  12.629 -19.929  1.00  0.00     0.079 A
HETATM    2  C16 UNL     1     -18.163  12.430 -19.630  1.00  0.00     0.054 A
HETATM    3  C17 UNL     1     -18.573  11.168 -19.246  1.00  0.00     0.081 A
HETATM    4  C18 UNL     1     -17.622  10.174 -19.186  1.00  0.00     0.137 A
HETATM    5  N3  UNL     1     -18.283   9.059 -18.791  1.00  0.00    -0.336 N
ATOM      6  H3  UNL     1     -17.855   8.144 -18.650  1.00  0.00     0.168 HD
HETATM    7  C19 UNL     1     -19.594   9.339 -18.609  1.00  0.00     0.184 A
HETATM    8  N4  UNL     1     -19.768  10.638 -18.891  1.00  0.00    -0.344 N
HETATM    9  C20 UNL     1     -21.018  11.352 -18.828  1.00  0.00     0.157 C
HETATM   10  N5  UNL     1     -16.334  10.350 -19.475  1.00  0.00    -0.317 N
HETATM   11  C28 UNL     1     -15.938  11.595 -19.852  1.00  0.00     0.118 A
ENDROOT
BRANCH   1  12
HETATM   12  C14 UNL     1     -16.328  13.949 -20.348  1.00  0.00     0.272 C
HETATM   13  N2  UNL     1     -16.445  14.377 -21.662  1.00  0.00    -0.275 N
HETATM   14  N1  UNL     1     -16.050  15.545 -22.315  1.00  0.00    -0.223 NA
HETATM   15  C13 UNL     1     -17.120  13.551 -22.724  1.00  0.00     0.157 C
HETATM   16  C7  UNL     1     -17.193  15.871 -23.133  1.00  0.00     0.125 C
HETATM   17  C8  UNL     1     -18.001  14.631 -23.308  1.00  0.00    -0.009 C
HETATM   18  C9  UNL     1     -19.337  14.691 -22.603  1.00  0.00     0.012 C
HETATM   19  C12 UNL     1     -18.361  14.342 -24.749  1.00  0.00     0.012 C
HETATM   20  C10 UNL     1     -20.371  15.092 -23.619  1.00  0.00     0.001 C
HETATM   21  C11 UNL     1     -19.849  14.473 -24.881  1.00  0.00     0.001 C
HETATM   22  O2  UNL     1     -15.800  14.615 -19.449  1.00  0.00    -0.266 OA
BRANCH  14  23
HETATM   23  C6  UNL     1     -15.610  16.530 -21.429  1.00  0.00     0.145 C
BRANCH  23  24
HETATM   24  C5  UNL     1     -14.249  17.113 -21.711  1.00  0.00     0.133 C
BRANCH  24  25
HETATM   25  C4  UNL     1     -13.608  16.675 -22.978  1.00  0.00     0.033 C
BRANCH  25  26
HETATM   26  C3  UNL     1     -12.774  15.425 -22.860  1.00  0.00     0.002 C
BRANCH  26  27
HETATM   27  C2  UNL     1     -12.464  15.110 -21.408  1.00  0.00    -0.004 C
HETATM   28  C1  UNL     1     -12.129  13.681 -21.150  1.00  0.00     0.005 C
ENDBRANCH  26  27
ENDBRANCH  25  26
ENDBRANCH  24  25
BRANCH  24  29
HETATM   29  O1  UNL     1     -14.287  18.531 -21.624  1.00  0.00    -0.394 OA
ATOM     30  H1  UNL     1     -13.462  18.913 -21.898  1.00  0.00     0.210 HD
ENDBRANCH  24  29
ENDBRANCH  23  24
ENDBRANCH  14  23
ENDBRANCH   1  12
BRANCH  11  31
HETATM   31  N7  UNL     1     -14.686  11.808 -20.143  1.00  0.00    -0.384 N
ATOM     32  H72 UNL     1     -14.238  12.668 -19.827  1.00  0.00     0.157 HD
ATOM     33  H71 UNL     1     -14.164  11.116 -20.680  1.00  0.00     0.157 HD
ENDBRANCH  11  31
BRANCH  10  34
HETATM   34  C21 UNL     1     -15.316   9.336 -19.425  1.00  0.00     0.134 C
BRANCH  34  35
HETATM   35  C22 UNL     1     -15.215   8.801 -18.012  1.00  0.00     0.050 C
BRANCH  35  36
HETATM   36  C23 UNL     1     -14.224   9.645 -17.238  1.00  0.00     0.274 C
BRANCH  36  37
HETATM   37  N6  UNL     1     -14.265   9.455 -15.826  1.00  0.00     0.088 N
HETATM   38  C24 UNL     1     -13.040   9.052 -15.223  1.00  0.00     0.272 C
HETATM   39  C25 UNL     1     -13.268   7.734 -14.542  1.00  0.00     0.032 C
HETATM   40  C26 UNL     1     -14.757   7.521 -14.538  1.00  0.00     0.032 C
HETATM   41  C27 UNL     1     -15.332   8.650 -15.337  1.00  0.00     0.272 C
ENDBRANCH  36  37
ENDBRANCH  35  36
ENDBRANCH  34  35
ENDBRANCH  10  34
TORSDOF 12
ENDMDL