MODEL 3
REMARK VINA RESULT: -8.986475803      2.302     10.984
REMARK  11 active torsions:
REMARK  status: ('A' for Active; 'I' for Inactive)
REMARK    1  A    between atoms: O1_2  and  C2_3
REMARK    2  A    between atoms: C2_3  and  C3_4
REMARK       I    between atoms: C3_4  and  N1_6
REMARK    3  A    between atoms: N1_6  and  C4_8
REMARK    4  A    between atoms: C4_8  and  C5_9
REMARK    5  A    between atoms: C7_11  and  C8_12
REMARK    6  A    between atoms: C11_16  and  C12_17
REMARK       I    between atoms: C12_17  and  N3_19
REMARK    7  A    between atoms: N3_19  and  C13_21
REMARK    8  A    between atoms: C23_34  and  N6_35
REMARK    9  A    between atoms: N6_35  and  C24_37
REMARK   10  A    between atoms: C24_37  and  C25_38
REMARK   11  A    between atoms: C25_38  and  N7_39
ROOT
HETATM    1  C5  UNL     1      -7.506  -5.703 -15.371  1.00  0.00     0.029 A
HETATM    2  C6  UNL     1      -7.547  -4.352 -14.991  1.00  0.00     0.039 A
HETATM    3  C7  UNL     1      -6.537  -3.493 -15.354  1.00  0.00    -0.012 A
HETATM    4  C21 UNL     1      -5.472  -3.943 -16.097  1.00  0.00    -0.007 A
HETATM    5  C22 UNL     1      -4.344  -3.096 -16.550  1.00  0.00     0.053 C
HETATM    6  C23 UNL     1      -5.457  -5.285 -16.464  1.00  0.00     0.108 A
HETATM    7  N8  UNL     1      -6.456  -6.114 -16.097  1.00  0.00    -0.344 N
ATOM      8  H8  UNL     1      -6.410  -7.092 -16.382  1.00  0.00     0.167 HD
ENDROOT
BRANCH   3   9
HETATM    9  C8  UNL     1      -6.534  -2.104 -14.913  1.00  0.00    -0.001 A
HETATM   10  C9  UNL     1      -7.289  -1.058 -15.395  1.00  0.00     0.104 A
HETATM   11  N2  UNL     1      -6.954   0.107 -14.747  1.00  0.00    -0.355 N
HETATM   12  C10 UNL     1      -7.559   1.379 -15.079  1.00  0.00     0.156 C
HETATM   13  C11 UNL     1      -6.005  -0.154 -13.855  1.00  0.00     0.109 A
HETATM   14  C19 UNL     1      -5.729  -1.525 -13.945  1.00  0.00    -0.017 A
HETATM   15  C20 UNL     1      -4.746  -2.309 -13.137  1.00  0.00     0.052 C
BRANCH  13  16
HETATM   16  C12 UNL     1      -5.354   0.678 -12.866  1.00  0.00     0.273 C
HETATM   17  O3  UNL     1      -5.786   0.707 -11.655  1.00  0.00    -0.266 OA
HETATM   18  N3  UNL     1      -4.251   1.499 -13.119  1.00  0.00    -0.318 N
ATOM     19  H3  UNL     1      -3.825   1.535 -14.045  1.00  0.00     0.169 HD
BRANCH  18  20
HETATM   20  C13 UNL     1      -3.731   2.294 -12.030  1.00  0.00     0.083 A
HETATM   21  C14 UNL     1      -4.120   3.504 -11.581  1.00  0.00     0.051 A
HETATM   22  C15 UNL     1      -5.255   4.323 -12.118  1.00  0.00     0.072 C
HETATM   23  N4  UNL     1      -3.295   3.843 -10.547  1.00  0.00    -0.301 N
HETATM   24  N5  UNL     1      -2.399   2.883 -10.334  1.00  0.00    -0.299 N
ATOM     25  H4  UNL     1      -3.357   4.710 -10.013  1.00  0.00     0.187 HD
HETATM   26  C16 UNL     1      -1.328   2.873  -9.319  1.00  0.00     0.177 C
HETATM   27  C17 UNL     1      -2.643   1.917 -11.230  1.00  0.00     0.053 A
HETATM   28  C18 UNL     1      -1.933   0.625 -11.406  1.00  0.00     0.072 C
ENDBRANCH  18  20
ENDBRANCH  13  16
ENDBRANCH   3   9
BRANCH   1  29
HETATM   29  C4  UNL     1      -8.604  -6.638 -14.937  1.00  0.00     0.179 C
BRANCH  29  30
HETATM   30  N1  UNL     1      -8.906  -7.492 -16.071  1.00  0.00    -0.354 N
HETATM   31  C3  UNL     1      -9.816  -7.094 -17.061  1.00  0.00     0.241 C
HETATM   32  O2  UNL     1     -10.396  -5.988 -16.993  1.00  0.00    -0.271 OA
ATOM     33  H1  UNL     1      -8.447  -8.399 -16.150  1.00  0.00     0.162 HD
BRANCH  31  34
HETATM   34  C2  UNL     1     -10.120  -7.966 -18.212  1.00  0.00     0.269 C
BRANCH  34  35
HETATM   35  O1  UNL     1      -9.404  -9.159 -18.065  1.00  0.00    -0.387 OA
HETATM   36  C1  UNL     1     -10.057 -10.145 -18.825  1.00  0.00     0.202 C
ENDBRANCH  34  35
ENDBRANCH  31  34
ENDBRANCH  29  30
ENDBRANCH   1  29
BRANCH   6  37
HETATM   37  N6  UNL     1      -4.466  -5.689 -17.184  1.00  0.00    -0.374 N
ATOM     38  H6  UNL     1      -3.729  -5.033 -17.442  1.00  0.00     0.161 HD
BRANCH  37  39
HETATM   39  C24 UNL     1      -4.390  -7.063 -17.630  1.00  0.00     0.151 C
BRANCH  39  40
HETATM   40  C25 UNL     1      -4.278  -7.167 -19.122  1.00  0.00     0.292 C
BRANCH  40  41
HETATM   41  N7  UNL     1      -5.474  -6.738 -19.799  1.00  0.00     0.090 N
HETATM   42  C26 UNL     1      -6.592  -7.559 -19.456  1.00  0.00     0.272 C
HETATM   43  C27 UNL     1      -6.829  -8.492 -20.617  1.00  0.00     0.032 C
HETATM   44  C28 UNL     1      -5.677  -8.243 -21.551  1.00  0.00     0.032 C
HETATM   45  C29 UNL     1      -5.332  -6.785 -21.235  1.00  0.00     0.272 C
ENDBRANCH  40  41
ENDBRANCH  39  40
ENDBRANCH  37  39
ENDBRANCH   6  37
TORSDOF 11
ENDMDL