MODEL 3
REMARK VINA RESULT: -8.458697491      1.432      2.050
REMARK  13 active torsions:
REMARK  status: ('A' for Active; 'I' for Inactive)
REMARK    1  A    between atoms: C2_2  and  C3_3
REMARK    2  A    between atoms: C3_3  and  C4_4
REMARK    3  A    between atoms: C4_4  and  C5_5
REMARK    4  A    between atoms: C7_9  and  C8_10
REMARK    5  A    between atoms: C9_12  and  O4_13
REMARK    6  A    between atoms: C11_16  and  C12_17
REMARK       I    between atoms: C12_17  and  N1_19
REMARK    7  A    between atoms: N1_19  and  C13_21
REMARK    8  A    between atoms: C13_21  and  C14_22
REMARK    9  A    between atoms: C14_22  and  O6_23
REMARK   10  A    between atoms: O6_23  and  C15_24
REMARK       I    between atoms: C15_24  and  N2_26
REMARK   11  A    between atoms: N2_26  and  C16_27
REMARK   12  A    between atoms: N2_26  and  C18_29
REMARK   13  A    between atoms: C27_38  and  O8_39
ROOT
HETATM    1  C5  UNL     1      -8.022  -3.211 -15.331  1.00  0.00     0.169 C
HETATM    2  O1  UNL     1      -7.604  -3.119 -13.916  1.00  0.00    -0.312 OA
HETATM    3  C6  UNL     1      -7.094  -1.869 -13.610  1.00  0.00     0.273 C
HETATM    4  O2  UNL     1      -7.299  -1.253 -12.516  1.00  0.00    -0.264 OA
HETATM    5  C7  UNL     1      -6.248  -1.282 -14.710  1.00  0.00     0.184 C
HETATM    6  C9  UNL     1      -5.634  -2.306 -15.563  1.00  0.00     0.115 C
HETATM    7  C10 UNL     1      -4.466  -3.090 -15.057  1.00  0.00     0.042 C
HETATM    8  C11 UNL     1      -3.263  -2.275 -14.678  1.00  0.00     0.085 C
HETATM    9  C20 UNL     1      -2.092  -3.235 -14.363  1.00  0.00     0.015 C
HETATM   10  C21 UNL     1      -1.746  -4.189 -15.417  1.00  0.00     0.005 C
HETATM   11  C22 UNL     1      -3.038  -4.984 -15.699  1.00  0.00    -0.014 C
HETATM   12  C23 UNL     1      -2.771  -6.098 -16.659  1.00  0.00     0.010 C
HETATM   13  C24 UNL     1      -3.961  -3.908 -16.236  1.00  0.00    -0.003 C
HETATM   14  C25 UNL     1      -4.990  -4.571 -17.065  1.00  0.00     0.009 C
HETATM   15  C26 UNL     1      -6.227  -4.650 -16.151  1.00  0.00     0.044 C
HETATM   16  C27 UNL     1      -6.710  -3.232 -16.105  1.00  0.00     0.117 C
ENDROOT
BRANCH   8  17
HETATM   17  C12 UNL     1      -3.302  -1.512 -13.426  1.00  0.00     0.222 C
HETATM   18  O5  UNL     1      -3.718  -1.968 -12.344  1.00  0.00    -0.273 OA
HETATM   19  N1  UNL     1      -2.837  -0.173 -13.422  1.00  0.00    -0.359 N
ATOM     20  H1  UNL     1      -2.491   0.222 -14.297  1.00  0.00     0.162 HD
BRANCH  19  21
HETATM   21  C13 UNL     1      -2.826   0.660 -12.243  1.00  0.00     0.149 C
BRANCH  21  22
HETATM   22  C14 UNL     1      -3.910   1.677 -12.310  1.00  0.00     0.200 C
BRANCH  22  23
HETATM   23  O6  UNL     1      -3.477   3.011 -12.248  1.00  0.00    -0.302 OA
BRANCH  23  24
HETATM   24  C15 UNL     1      -2.690   3.572 -11.283  1.00  0.00     0.362 C
HETATM   25  O7  UNL     1      -1.491   3.815 -11.561  1.00  0.00    -0.238 OA
HETATM   26  N2  UNL     1      -3.156   3.900  -9.977  1.00  0.00    -0.329 N
BRANCH  26  27
HETATM   27  C16 UNL     1      -2.271   4.495  -8.998  1.00  0.00     0.123 C
HETATM   28  C17 UNL     1      -1.511   3.406  -8.279  1.00  0.00     0.026 C
ENDBRANCH  26  27
BRANCH  26  29
HETATM   29  C18 UNL     1      -4.541   3.643  -9.591  1.00  0.00     0.123 C
HETATM   30  C19 UNL     1      -4.734   4.207  -8.206  1.00  0.00     0.026 C
ENDBRANCH  26  29
ENDBRANCH  23  24
ENDBRANCH  22  23
ENDBRANCH  21  22
ENDBRANCH  19  21
ENDBRANCH   8  17
BRANCH   6  31
HETATM   31  O4  UNL     1      -5.090  -1.596 -16.682  1.00  0.00    -0.385 OA
ATOM     32  H4  UNL     1      -4.962  -0.705 -16.380  1.00  0.00     0.210 HD
ENDBRANCH   6  31
BRANCH   5  33
HETATM   33  C8  UNL     1      -7.140  -0.403 -15.515  1.00  0.00     0.248 C
HETATM   34  O3  UNL     1      -6.829   0.750 -15.708  1.00  0.00    -0.306 OA
ENDBRANCH   5  33
BRANCH  16  35
HETATM   35  O8  UNL     1      -6.979  -2.831 -17.402  1.00  0.00    -0.384 OA
ATOM     36  H8  UNL     1      -7.585  -3.459 -17.779  1.00  0.00     0.210 HD
ENDBRANCH  16  35
BRANCH   1  37
HETATM   37  C4  UNL     1      -8.816  -4.476 -15.426  1.00  0.00     0.036 C
BRANCH  37  38
HETATM   38  C3  UNL     1      -9.922  -4.589 -16.392  1.00  0.00     0.002 C
BRANCH  38  39
HETATM   39  C2  UNL     1     -10.211  -5.921 -16.977  1.00  0.00    -0.004 C
HETATM   40  C1  UNL     1      -9.235  -7.014 -16.918  1.00  0.00     0.005 C
ENDBRANCH  38  39
ENDBRANCH  37  38
ENDBRANCH   1  37
TORSDOF 13
ENDMDL