MODEL 2
REMARK VINA RESULT: -6.578874274      0.081      2.065
REMARK  13 active torsions:
REMARK  status: ('A' for Active; 'I' for Inactive)
REMARK    1  A    between atoms: O1_2  and  C2_3
REMARK    2  A    between atoms: C4_5  and  C5_6
REMARK    3  A    between atoms: C5_6  and  N1_7
REMARK    4  A    between atoms: C5_6  and  C14_22
REMARK    5  A    between atoms: N1_7  and  C6_9
REMARK    6  A    between atoms: C6_9  and  N2_11
REMARK    7  A    between atoms: N2_11  and  C7_13
REMARK    8  A    between atoms: C7_13  and  C8_14
REMARK    9  A    between atoms: C8_14  and  C9_15
REMARK   10  A    between atoms: C9_15  and  N3_16
REMARK   11  A    between atoms: C19_30  and  N5_31
REMARK   12  A    between atoms: C24_36  and  O4_37
REMARK   13  A    between atoms: C26_39  and  O5_40
ROOT
HETATM    1  C5  UNL     1      -6.059  -7.805 -18.242  1.00  0.00     0.153 C
ENDROOT
BRANCH   1   2
HETATM    2  C4  UNL     1      -5.687  -9.191 -17.839  1.00  0.00    -0.025 A
HETATM    3  C3  UNL     1      -6.542  -9.965 -17.050  1.00  0.00     0.049 A
HETATM    4  C2  UNL     1      -6.246 -11.240 -16.628  1.00  0.00     0.104 A
HETATM    5  C26 UNL     1      -5.034 -11.809 -16.995  1.00  0.00     0.135 A
HETATM    6  C24 UNL     1      -4.157 -11.084 -17.774  1.00  0.00     0.104 A
HETATM    7  C23 UNL     1      -4.502  -9.795 -18.179  1.00  0.00     0.049 A
BRANCH   4   8
HETATM    8  O1  UNL     1      -7.120 -11.980 -15.845  1.00  0.00    -0.353 OA
HETATM    9  C1  UNL     1      -8.324 -12.517 -16.370  1.00  0.00     0.210 C
ENDBRANCH   4   8
BRANCH   5  10
HETATM   10  O5  UNL     1      -4.714 -13.082 -16.584  1.00  0.00    -0.351 OA
HETATM   11  C27 UNL     1      -3.993 -13.406 -15.425  1.00  0.00     0.210 C
ENDBRANCH   5  10
BRANCH   6  12
HETATM   12  O4  UNL     1      -2.913 -11.588 -18.185  1.00  0.00    -0.353 OA
HETATM   13  C25 UNL     1      -1.720 -11.197 -17.556  1.00  0.00     0.210 C
ENDBRANCH   6  12
ENDBRANCH   1   2
BRANCH   1  14
HETATM   14  N1  UNL     1      -5.899  -6.942 -17.077  1.00  0.00    -0.354 N
ATOM     15  H1  UNL     1      -6.350  -7.204 -16.201  1.00  0.00     0.163 HD
BRANCH  14  16
HETATM   16  C6  UNL     1      -5.131  -5.745 -17.130  1.00  0.00     0.168 C
HETATM   17  S1  UNL     1      -3.526  -5.808 -17.259  1.00  0.00    -0.041 SA
BRANCH  16  18
HETATM   18  N2  UNL     1      -5.781  -4.483 -17.060  1.00  0.00    -0.367 N
ATOM     19  H2  UNL     1      -5.466  -3.756 -17.702  1.00  0.00     0.161 HD
BRANCH  18  20
HETATM   20  C7  UNL     1      -6.840  -4.155 -16.161  1.00  0.00     0.123 C
BRANCH  20  21
HETATM   21  C8  UNL     1      -6.542  -4.395 -14.713  1.00  0.00     0.050 C
BRANCH  21  22
HETATM   22  C9  UNL     1      -5.990  -3.149 -14.073  1.00  0.00     0.274 C
BRANCH  22  23
HETATM   23  N3  UNL     1      -4.834  -3.353 -13.261  1.00  0.00     0.092 N
HETATM   24  C10 UNL     1      -4.446  -2.239 -12.459  1.00  0.00     0.298 C
HETATM   25  C11 UNL     1      -4.155  -1.012 -13.317  1.00  0.00     0.198 C
HETATM   26  O2  UNL     1      -3.055  -1.332 -14.106  1.00  0.00    -0.388 OA
HETATM   27  C12 UNL     1      -3.262  -2.429 -14.906  1.00  0.00     0.198 C
HETATM   28  C13 UNL     1      -3.721  -3.648 -14.171  1.00  0.00     0.298 C
ENDBRANCH  22  23
ENDBRANCH  21  22
ENDBRANCH  20  21
ENDBRANCH  18  20
ENDBRANCH  16  18
ENDBRANCH  14  16
ENDBRANCH   1  14
BRANCH   1  29
HETATM   29  C14 UNL     1      -7.450  -7.667 -18.713  1.00  0.00     0.003 A
HETATM   30  C15 UNL     1      -8.482  -7.328 -17.866  1.00  0.00     0.036 A
HETATM   31  C16 UNL     1      -9.805  -7.191 -18.273  1.00  0.00     0.009 A
HETATM   32  C17 UNL     1     -10.912  -6.827 -17.359  1.00  0.00     0.068 C
HETATM   33  N4  UNL     1     -10.039  -7.410 -19.572  1.00  0.00    -0.326 N
HETATM   34  C18 UNL     1      -9.114  -7.737 -20.459  1.00  0.00     0.273 A
ATOM     35  H4  UNL     1     -11.000  -7.318 -19.902  1.00  0.00     0.169 HD
HETATM   36  O3  UNL     1      -9.406  -7.925 -21.646  1.00  0.00    -0.266 OA
HETATM   37  C19 UNL     1      -7.774  -7.871 -20.026  1.00  0.00     0.108 A
BRANCH  37  38
HETATM   38  N5  UNL     1      -6.784  -8.204 -20.978  1.00  0.00    -0.376 N
HETATM   39  C20 UNL     1      -5.863  -7.473 -21.867  1.00  0.00     0.125 C
HETATM   40  C21 UNL     1      -6.148  -8.598 -22.875  1.00  0.00     0.040 C
HETATM   41  C22 UNL     1      -6.236  -9.402 -21.565  1.00  0.00     0.125 C
ENDBRANCH  37  38
ENDBRANCH   1  29
TORSDOF 13
ENDMDL