MODEL 4
REMARK VINA RESULT: -9.057414325      2.079      6.896
REMARK  12 active torsions:
REMARK  status: ('A' for Active; 'I' for Inactive)
REMARK    1  A    between atoms: C2_2  and  C3_3
REMARK    2  A    between atoms: C3_3  and  C4_4
REMARK    3  A    between atoms: C4_4  and  N1_5
REMARK    4  A    between atoms: C6_8  and  N3_9
REMARK    5  A    between atoms: N3_9  and  C7_10
REMARK    6  A    between atoms: N3_9  and  C17_20
REMARK    7  A    between atoms: C7_10  and  C8_11
REMARK    8  A    between atoms: C8_11  and  C9_12
REMARK    9  A    between atoms: C9_12  and  C10_13
REMARK   10  A    between atoms: C10_13  and  C11_14
REMARK   11  A    between atoms: C17_20  and  O1_21
REMARK   12  A    between atoms: C20_27  and  C21_28
REMARK       I    between atoms: C21_28  and  N5_30
ROOT
HETATM    1  N3  UNL     1      -6.748  -3.136 -14.654  1.00  0.00    -0.319 N
ENDROOT
BRANCH   1   2
HETATM    2  C6  UNL     1      -5.296  -3.363 -14.772  1.00  0.00     0.147 A
HETATM    3  C5  UNL     1      -4.683  -3.718 -15.926  1.00  0.00     0.155 A
HETATM    4  N1  UNL     1      -3.331  -3.894 -15.871  1.00  0.00    -0.285 N
HETATM    5  N2  UNL     1      -5.402  -3.895 -17.120  1.00  0.00    -0.080 NA
HETATM    6  C27 UNL     1      -2.623  -3.729 -14.743  1.00  0.00     0.330 A
HETATM    7  N7  UNL     1      -3.255  -3.374 -13.601  1.00  0.00    -0.273 N
HETATM    8  O5  UNL     1      -1.366  -3.893 -14.704  1.00  0.00    -0.246 OA
HETATM    9  C26 UNL     1      -4.586  -3.185 -13.584  1.00  0.00     0.279 A
ATOM     10  H7  UNL     1      -2.717  -3.247 -12.744  1.00  0.00     0.173 HD
HETATM   11  O4  UNL     1      -5.200  -2.857 -12.543  1.00  0.00    -0.265 OA
BRANCH   4  12
HETATM   12  C4  UNL     1      -2.632  -4.270 -17.070  1.00  0.00     0.135 C
BRANCH  12  13
HETATM   13  C3  UNL     1      -2.703  -5.750 -17.357  1.00  0.00     0.020 C
BRANCH  13  14
HETATM   14  C2  UNL     1      -3.097  -5.890 -18.822  1.00  0.00    -0.003 C
HETATM   15  C1  UNL     1      -4.297  -6.817 -18.981  1.00  0.00     0.005 C
ENDBRANCH  13  14
ENDBRANCH  12  13
ENDBRANCH   4  12
ENDBRANCH   1   2
BRANCH   1  16
HETATM   16  C7  UNL     1      -7.482  -4.211 -14.098  1.00  0.00     0.131 C
BRANCH  16  17
HETATM   17  C8  UNL     1      -7.459  -5.530 -14.745  1.00  0.00     0.020 C
BRANCH  17  18
HETATM   18  C9  UNL     1      -8.649  -6.358 -14.913  1.00  0.00     0.002 C
BRANCH  18  19
HETATM   19  C10 UNL     1      -9.523  -6.069 -16.107  1.00  0.00     0.005 C
BRANCH  19  20
HETATM   20  C11 UNL     1      -9.144  -6.896 -17.308  1.00  0.00    -0.014 C
HETATM   21  C12 UNL     1     -10.269  -7.116 -18.273  1.00  0.00     0.004 C
HETATM   22  C13 UNL     1      -9.620  -7.580 -19.585  1.00  0.00     0.000 C
HETATM   23  C14 UNL     1      -8.825  -8.831 -19.382  1.00  0.00     0.000 C
HETATM   24  C15 UNL     1      -7.930  -8.818 -18.193  1.00  0.00     0.000 C
HETATM   25  C16 UNL     1      -8.556  -8.225 -16.954  1.00  0.00     0.004 C
ENDBRANCH  19  20
ENDBRANCH  18  19
ENDBRANCH  17  18
ENDBRANCH  16  17
ENDBRANCH   1  16
BRANCH   1  26
HETATM   26  C17 UNL     1      -7.149  -1.870 -15.058  1.00  0.00     0.172 C
HETATM   27  C18 UNL     1      -7.088  -0.576 -14.420  1.00  0.00     0.101 A
HETATM   28  C19 UNL     1      -7.499   0.602 -15.064  1.00  0.00     0.123 A
HETATM   29  N6  UNL     1      -6.686  -0.137 -13.237  1.00  0.00    -0.333 N
HETATM   30  N4  UNL     1      -7.314   1.633 -14.232  1.00  0.00    -0.345 N
HETATM   31  C20 UNL     1      -6.805   1.189 -13.081  1.00  0.00     0.175 A
ATOM     32  H4  UNL     1      -7.528   2.607 -14.445  1.00  0.00     0.167 HD
ATOM     33  H6  UNL     1      -6.320  -0.752 -12.510  1.00  0.00     0.168 HD
BRANCH  26  34
HETATM   34  O1  UNL     1      -7.694  -1.865 -16.252  1.00  0.00    -0.344 OA
ATOM     35  H1  UNL     1      -7.702  -1.003 -16.650  1.00  0.00     0.219 HD
ENDBRANCH  26  34
BRANCH  31  36
HETATM   36  C21 UNL     1      -6.446   1.983 -11.895  1.00  0.00     0.287 C
HETATM   37  O2  UNL     1      -7.401   2.367 -11.145  1.00  0.00    -0.264 OA
HETATM   38  N5  UNL     1      -5.134   2.329 -11.556  1.00  0.00    -0.342 N
HETATM   39  C22 UNL     1      -4.018   1.918 -12.380  1.00  0.00     0.152 C
HETATM   40  C25 UNL     1      -4.895   3.106 -10.361  1.00  0.00     0.152 C
HETATM   41  C23 UNL     1      -2.721   2.532 -11.860  1.00  0.00     0.187 C
HETATM   42  O3  UNL     1      -2.964   3.874 -11.569  1.00  0.00    -0.388 OA
HETATM   43  C24 UNL     1      -3.659   3.930 -10.374  1.00  0.00     0.187 C
ENDBRANCH  31  36
ENDBRANCH   1  26
TORSDOF 12
ENDMDL