MODEL 5
REMARK VINA RESULT: -6.922879504      3.898      9.236
REMARK  11 active torsions:
REMARK  status: ('A' for Active; 'I' for Inactive)
REMARK    1  A    between atoms: C2_2  and  C3_3
REMARK    2  A    between atoms: C8_9  and  O2_10
REMARK    3  A    between atoms: C9_12  and  C10_13
REMARK    4  A    between atoms: C15_18  and  C16_19
REMARK    5  A    between atoms: C16_19  and  N1_20
REMARK    6  A    between atoms: N1_20  and  C17_22
REMARK    7  A    between atoms: C23_31  and  C24_32
REMARK    8  A    between atoms: C23_31  and  C29_38
REMARK    9  A    between atoms: C25_33  and  C26_34
REMARK   10  A    between atoms: C26_34  and  C28_36
REMARK   11  A    between atoms: C29_38  and  O7_41
ROOT
HETATM    1  C3  UNL     1      -5.023  -3.060 -16.426  1.00  0.00    -0.032 C
HETATM    2  C4  UNL     1      -6.085  -3.899 -17.159  1.00  0.00     0.187 A
HETATM    3  O1  UNL     1      -6.014  -5.072 -17.760  1.00  0.00    -0.365 OA
HETATM    4  C5  UNL     1      -6.233  -5.237 -16.463  1.00  0.00     0.218 A
HETATM    5  C6  UNL     1      -7.490  -5.141 -15.690  1.00  0.00     0.195 C
HETATM    6  C7  UNL     1      -7.985  -3.753 -15.491  1.00  0.00     0.104 C
HETATM    7  C8  UNL     1      -7.109  -2.632 -15.273  1.00  0.00     0.132 C
HETATM    8  C9  UNL     1      -5.579  -2.854 -15.105  1.00  0.00     0.052 C
HETATM    9  O4  UNL     1      -8.445  -5.890 -16.397  1.00  0.00    -0.350 OA
HETATM   10  C21 UNL     1      -9.247  -6.505 -15.483  1.00  0.00     0.198 C
HETATM   11  C22 UNL     1      -8.508  -6.433 -14.176  1.00  0.00     0.198 C
HETATM   12  O5  UNL     1      -7.353  -5.747 -14.459  1.00  0.00    -0.350 OA
ENDROOT
BRANCH   1  13
HETATM   13  C2  UNL     1      -3.675  -3.354 -16.858  1.00  0.00    -0.031 C
HETATM   14  C1  UNL     1      -3.277  -2.523 -17.908  1.00  0.00     0.024 C
HETATM   15  C23 UNL     1      -2.653  -4.349 -16.615  1.00  0.00    -0.015 C
BRANCH  15  16
HETATM   16  C24 UNL     1      -2.865  -5.681 -17.322  1.00  0.00     0.008 C
HETATM   17  C25 UNL     1      -2.979  -5.731 -18.633  1.00  0.00    -0.015 C
BRANCH  17  18
HETATM   18  C26 UNL     1      -3.188  -7.002 -19.381  1.00  0.00     0.065 C
HETATM   19  C27 UNL     1      -3.996  -6.717 -20.618  1.00  0.00     0.021 C
BRANCH  18  20
HETATM   20  C28 UNL     1      -4.002  -7.900 -18.511  1.00  0.00     0.239 C
HETATM   21  O6  UNL     1      -5.170  -8.169 -18.755  1.00  0.00    -0.306 OA
ENDBRANCH  18  20
ENDBRANCH  17  18
ENDBRANCH  15  16
BRANCH  15  22
HETATM   22  C29 UNL     1      -1.854  -4.517 -15.388  1.00  0.00     0.078 C
HETATM   23  C30 UNL     1      -2.476  -5.308 -14.265  1.00  0.00     0.051 C
HETATM   24  C31 UNL     1      -1.590  -3.128 -14.730  1.00  0.00     0.051 C
BRANCH  22  25
HETATM   25  O7  UNL     1      -0.594  -5.133 -15.586  1.00  0.00    -0.386 OA
ATOM     26  H7  UNL     1      -0.259  -5.599 -14.828  1.00  0.00     0.211 HD
ENDBRANCH  22  25
ENDBRANCH  15  22
ENDBRANCH   1  13
BRANCH   8  27
HETATM   27  C10 UNL     1      -5.187  -1.981 -14.017  1.00  0.00     0.005 C
HETATM   28  C11 UNL     1      -4.330  -2.595 -12.935  1.00  0.00     0.007 C
HETATM   29  C12 UNL     1      -4.202  -1.477 -11.903  1.00  0.00     0.011 C
HETATM   30  C13 UNL     1      -4.055  -0.259 -12.765  1.00  0.00    -0.031 C
HETATM   31  C14 UNL     1      -2.600   0.074 -12.907  1.00  0.00     0.016 C
HETATM   32  C15 UNL     1      -4.870   0.934 -12.472  1.00  0.00     0.013 C
HETATM   33  C19 UNL     1      -4.807  -0.547 -14.091  1.00  0.00    -0.032 C
HETATM   34  C18 UNL     1      -5.808   0.472 -13.560  1.00  0.00     0.017 C
HETATM   35  C20 UNL     1      -4.130   0.083 -15.240  1.00  0.00     0.016 C
BRANCH  32  36
HETATM   36  C16 UNL     1      -5.588   0.993 -11.159  1.00  0.00     0.127 C
BRANCH  36  37
HETATM   37  N1  UNL     1      -5.136   2.071 -10.301  1.00  0.00    -0.368 N
ATOM     38  H1  UNL     1      -5.436   2.087  -9.326  1.00  0.00     0.161 HD
BRANCH  37  39
HETATM   39  C17 UNL     1      -4.302   3.089 -10.770  1.00  0.00     0.348 C
HETATM   40  O3  UNL     1      -4.768   4.212 -11.084  1.00  0.00    -0.284 OA
ENDBRANCH  37  39
ENDBRANCH  36  37
ENDBRANCH  32  36
ENDBRANCH   8  27
BRANCH   7  41
HETATM   41  O2  UNL     1      -7.360  -1.610 -16.203  1.00  0.00    -0.395 OA
ATOM     42  H2  UNL     1      -7.038  -0.775 -15.886  1.00  0.00     0.210 HD
ENDBRANCH   7  41
TORSDOF 11
ENDMDL