MODEL 1
REMARK VINA RESULT: -7.717488125      0.000      0.000
REMARK  13 active torsions:
REMARK  status: ('A' for Active; 'I' for Inactive)
REMARK    1  A    between atoms: C2_2  and  O1_5
REMARK    2  A    between atoms: O1_5  and  C5_6
REMARK       I    between atoms: C5_6  and  N1_8
REMARK    3  A    between atoms: C7_10  and  C8_11
REMARK    4  A    between atoms: C8_11  and  C9_12
REMARK    5  A    between atoms: C9_12  and  C10_13
REMARK    6  A    between atoms: C10_13  and  C11_14
REMARK    7  A    between atoms: C11_14  and  C12_15
REMARK    8  A    between atoms: C12_15  and  C13_16
REMARK    9  A    between atoms: C13_16  and  C14_17
REMARK   10  A    between atoms: C15_20  and  N2_21
REMARK       I    between atoms: N2_21  and  C16_23
REMARK   11  A    between atoms: C16_23  and  C17_25
REMARK   12  A    between atoms: C17_25  and  S1_26
REMARK   13  A    between atoms: S1_26  and  C18_29
ROOT
HETATM    1  C17 UNL     1      -6.083  -0.984 -14.237  1.00  0.00     0.185 C
HETATM    2  C21 UNL     1      -6.723  -0.984 -15.606  1.00  0.00     0.269 C
HETATM    3  N3  UNL     1      -7.709  -2.020 -15.635  1.00  0.00    -0.072 N
ATOM      4  H31 UNL     1      -7.869  -2.394 -16.570  1.00  0.00     0.277 HD
ATOM      5  H32 UNL     1      -8.655  -1.677 -15.468  1.00  0.00     0.277 HD
HETATM    6  C22 UNL     1      -7.287  -3.046 -14.667  1.00  0.00     0.253 C
HETATM    7  C23 UNL     1      -6.704  -2.187 -13.567  1.00  0.00     0.153 C
HETATM    8  C24 UNL     1      -5.793  -2.908 -12.712  1.00  0.00     0.068 C
HETATM    9  N4  UNL     1      -5.076  -3.484 -12.011  1.00  0.00    -0.197 NA
ENDROOT
BRANCH   1  10
HETATM   10  C16 UNL     1      -6.352   0.266 -13.502  1.00  0.00     0.245 C
HETATM   11  N2  UNL     1      -5.769   0.625 -12.272  1.00  0.00    -0.353 N
ATOM     12  H2  UNL     1      -5.106  -0.029 -11.855  1.00  0.00     0.163 HD
HETATM   13  O5  UNL     1      -7.166   1.083 -14.004  1.00  0.00    -0.271 OA
BRANCH  11  14
HETATM   14  C15 UNL     1      -6.039   1.847 -11.560  1.00  0.00     0.108 C
HETATM   15  C7  UNL     1      -5.004   2.902 -11.677  1.00  0.00     0.028 C
HETATM   16  C6  UNL     1      -4.873   3.574 -10.385  1.00  0.00     0.134 C
HETATM   17  N1  UNL     1      -5.844   2.935  -9.512  1.00  0.00    -0.326 N
HETATM   18  C5  UNL     1      -6.499   3.429  -8.388  1.00  0.00     0.363 C
HETATM   19  C25 UNL     1      -6.040   1.583 -10.053  1.00  0.00     0.153 C
HETATM   20  O2  UNL     1      -6.306   4.591  -7.970  1.00  0.00    -0.238 OA
BRANCH  15  21
HETATM   21  C8  UNL     1      -3.765   2.478 -12.384  1.00  0.00     0.008 C
BRANCH  21  22
HETATM   22  C9  UNL     1      -2.672   1.902 -11.561  1.00  0.00     0.001 C
BRANCH  22  23
HETATM   23  C10 UNL     1      -1.275   2.231 -11.902  1.00  0.00     0.000 C
BRANCH  23  24
HETATM   24  C11 UNL     1      -0.419   2.511 -10.648  1.00  0.00     0.001 C
BRANCH  24  25
HETATM   25  C12 UNL     1      -1.223   2.558  -9.405  1.00  0.00     0.010 C
BRANCH  25  26
HETATM   26  C13 UNL     1      -1.553   3.942  -8.993  1.00  0.00     0.113 C
BRANCH  26  27
HETATM   27  C14 UNL     1      -1.657   4.107  -7.547  1.00  0.00     0.172 C
HETATM   28  O3  UNL     1      -2.365   3.406  -6.804  1.00  0.00    -0.648 OA
HETATM   29  O4  UNL     1      -0.921   5.117  -6.918  1.00  0.00    -0.648 OA
ENDBRANCH  26  27
ENDBRANCH  25  26
ENDBRANCH  24  25
ENDBRANCH  23  24
ENDBRANCH  22  23
ENDBRANCH  21  22
ENDBRANCH  15  21
BRANCH  18  30
HETATM   30  O1  UNL     1      -7.393   2.636  -7.695  1.00  0.00    -0.294 OA
BRANCH  30  31
HETATM   31  C2  UNL     1      -7.298   2.446  -6.296  1.00  0.00     0.061 C
HETATM   32  C1  UNL     1      -5.877   2.692  -5.811  1.00  0.00     0.046 C
HETATM   33  C3  UNL     1      -8.318   3.248  -5.532  1.00  0.00     0.046 C
HETATM   34  C4  UNL     1      -7.560   0.954  -6.064  1.00  0.00     0.046 C
ENDBRANCH  30  31
ENDBRANCH  18  30
ENDBRANCH  11  14
ENDBRANCH   1  10
BRANCH   1  35
HETATM   35  S1  UNL     1      -4.334  -1.182 -14.447  1.00  0.00     0.169 S
HETATM   36  O6  UNL     1      -3.854  -0.102 -15.402  1.00  0.00    -0.226 OA
HETATM   37  O7  UNL     1      -3.581  -0.992 -13.172  1.00  0.00    -0.226 OA
BRANCH  35  38
HETATM   38  C18 UNL     1      -3.903  -2.728 -15.189  1.00  0.00     0.110 A
HETATM   39  C19 UNL     1      -2.644  -2.868 -15.953  1.00  0.00     0.021 A
HETATM   40  C20 UNL     1      -2.621  -3.337 -14.559  1.00  0.00     0.021 A
ENDBRANCH  35  38
ENDBRANCH   1  35
TORSDOF 13
ENDMDL