MODEL 5
REMARK VINA RESULT: -7.261191390      2.238      9.033
REMARK  17 active torsions:
REMARK  status: ('A' for Active; 'I' for Inactive)
REMARK    1  A    between atoms: C3_3  and  C4_4
REMARK    2  A    between atoms: C4_4  and  O1_5
REMARK    3  A    between atoms: O1_5  and  C5_6
REMARK       I    between atoms: C5_6  and  N1_8
REMARK    4  A    between atoms: N1_8  and  C6_10
REMARK    5  A    between atoms: C6_10  and  C7_11
REMARK    6  A    between atoms: C6_10  and  C13_19
REMARK    7  A    between atoms: C7_11  and  C8_12
REMARK    8  A    between atoms: C8_12  and  O4_14
REMARK    9  A    between atoms: O4_14  and  C9_15
REMARK   10  A    between atoms: C13_19  and  C14_23
REMARK   11  A    between atoms: C14_23  and  O5_24
REMARK   12  A    between atoms: O5_24  and  C15_25
REMARK   13  A    between atoms: C15_25  and  C16_26
REMARK   14  A    between atoms: C16_26  and  N3_27
REMARK       I    between atoms: N3_27  and  C17_29
REMARK   15  A    between atoms: C17_29  and  C18_31
REMARK       I    between atoms: N4_34  and  C21_35
REMARK   16  A    between atoms: C21_35  and  O8_37
REMARK   17  A    between atoms: O8_37  and  C22_38
ROOT
HETATM    1  C1  UNL     1     -10.779  -7.394 -18.049  1.00  0.00     0.112 C
HETATM    2  C2  UNL     1      -9.799  -6.841 -17.105  1.00  0.00    -0.109 C
HETATM    3  C3  UNL     1      -8.992  -6.380 -16.336  1.00  0.00    -0.080 C
ENDROOT
BRANCH   3   4
HETATM    4  C4  UNL     1      -8.011  -5.803 -15.398  1.00  0.00     0.274 C
BRANCH   4   5
HETATM    5  O1  UNL     1      -7.317  -4.720 -15.995  1.00  0.00    -0.292 OA
BRANCH   5   6
HETATM    6  C5  UNL     1      -7.719  -3.410 -15.740  1.00  0.00     0.362 C
HETATM    7  O2  UNL     1      -8.542  -2.906 -16.542  1.00  0.00    -0.238 OA
HETATM    8  N1  UNL     1      -7.199  -2.687 -14.606  1.00  0.00    -0.327 N
ATOM      9  H1  UNL     1      -6.530  -3.149 -13.991  1.00  0.00     0.165 HD
BRANCH   8  10
HETATM   10  C6  UNL     1      -7.591  -1.345 -14.317  1.00  0.00     0.143 C
BRANCH  10  11
HETATM   11  C7  UNL     1      -7.587  -1.025 -12.843  1.00  0.00     0.142 C
BRANCH  11  12
HETATM   12  C8  UNL     1      -8.606  -0.039 -12.443  1.00  0.00     0.261 C
HETATM   13  O3  UNL     1      -9.702  -0.456 -11.989  1.00  0.00    -0.265 OA
BRANCH  12  14
HETATM   14  O4  UNL     1      -8.431   1.314 -12.535  1.00  0.00    -0.311 OA
BRANCH  14  15
HETATM   15  C9  UNL     1      -7.605   2.078 -11.695  1.00  0.00     0.060 C
HETATM   16  C10 UNL     1      -7.919   1.903 -10.227  1.00  0.00     0.045 C
HETATM   17  C11 UNL     1      -6.131   1.829 -11.977  1.00  0.00     0.045 C
HETATM   18  C12 UNL     1      -7.860   3.542 -12.036  1.00  0.00     0.045 C
ENDBRANCH  14  15
ENDBRANCH  12  14
ENDBRANCH  11  12
ENDBRANCH  10  11
BRANCH  10  19
HETATM   19  C13 UNL     1      -6.649  -0.408 -14.987  1.00  0.00     0.027 C
HETATM   20  N2  UNL     1      -7.070   0.753 -15.305  1.00  0.00    -0.402 N
ATOM     21  H22 UNL     1      -8.025   1.060 -15.117  1.00  0.00     0.155 HD
ATOM     22  H21 UNL     1      -6.425   1.396 -15.765  1.00  0.00     0.155 HD
BRANCH  19  23
HETATM   23  C14 UNL     1      -5.259  -0.854 -15.261  1.00  0.00     0.221 C
BRANCH  23  24
HETATM   24  O5  UNL     1      -4.579  -1.207 -14.074  1.00  0.00    -0.384 OA
BRANCH  24  25
HETATM   25  C15 UNL     1      -3.254  -1.380 -14.264  1.00  0.00     0.187 C
BRANCH  25  26
HETATM   26  C16 UNL     1      -2.614  -2.697 -14.132  1.00  0.00     0.148 C
BRANCH  26  27
HETATM   27  N3  UNL     1      -2.940  -3.718 -15.069  1.00  0.00    -0.359 N
HETATM   28  C17 UNL     1      -2.120  -4.677 -15.653  1.00  0.00     0.222 C
HETATM   29  O6  UNL     1      -0.902  -4.834 -15.459  1.00  0.00    -0.273 OA
ATOM     30  H3  UNL     1      -3.919  -3.750 -15.355  1.00  0.00     0.162 HD
BRANCH  28  31
HETATM   31  C18 UNL     1      -2.805  -5.625 -16.626  1.00  0.00     0.081 C
HETATM   32  C19 UNL     1      -4.176  -5.977 -16.155  1.00  0.00     0.034 C
HETATM   33  C20 UNL     1      -4.697  -7.068 -17.085  1.00  0.00     0.129 C
HETATM   34  N4  UNL     1      -4.526  -6.732 -18.462  1.00  0.00    -0.328 N
HETATM   35  C21 UNL     1      -5.552  -7.008 -19.400  1.00  0.00     0.363 C
HETATM   36  C26 UNL     1      -3.316  -6.106 -18.959  1.00  0.00     0.129 C
HETATM   37  O7  UNL     1      -5.454  -6.731 -20.623  1.00  0.00    -0.238 OA
HETATM   38  C27 UNL     1      -2.898  -5.016 -17.992  1.00  0.00     0.034 C
BRANCH  35  39
HETATM   39  O8  UNL     1      -6.718  -7.603 -18.981  1.00  0.00    -0.294 OA
BRANCH  39  40
HETATM   40  C22 UNL     1      -6.932  -8.991 -19.152  1.00  0.00     0.061 C
HETATM   41  C23 UNL     1      -7.452  -9.541 -17.845  1.00  0.00     0.046 C
HETATM   42  C24 UNL     1      -5.721  -9.712 -19.651  1.00  0.00     0.046 C
HETATM   43  C25 UNL     1      -8.019  -9.137 -20.198  1.00  0.00     0.046 C
ENDBRANCH  39  40
ENDBRANCH  35  39
ENDBRANCH  28  31
ENDBRANCH  26  27
ENDBRANCH  25  26
ENDBRANCH  24  25
ENDBRANCH  23  24
ENDBRANCH  19  23
ENDBRANCH  10  19
ENDBRANCH   8  10
ENDBRANCH   5   6
ENDBRANCH   4   5
ENDBRANCH   3   4
TORSDOF 17
ENDMDL