MODEL 5
REMARK VINA RESULT: -8.600756957      2.621     10.139
REMARK  11 active torsions:
REMARK  status: ('A' for Active; 'I' for Inactive)
REMARK    1  A    between atoms: C5_7  and  C6_8
REMARK    2  A    between atoms: C9_11  and  C10_12
REMARK    3  A    between atoms: C9_11  and  N5_37
REMARK       I    between atoms: C10_12  and  N2_14
REMARK    4  A    between atoms: N2_14  and  C11_16
REMARK    5  A    between atoms: C11_16  and  C12_17
REMARK    6  A    between atoms: C11_16  and  C19_24
REMARK    7  A    between atoms: C12_17  and  C13_18
REMARK       I    between atoms: C19_24  and  N3_26
REMARK    8  A    between atoms: N3_26  and  C20_28
REMARK    9  A    between atoms: C20_28  and  C21_29
REMARK   10  A    between atoms: C21_29  and  C22_30
REMARK   11  A    between atoms: C22_30  and  N4_31
ROOT
HETATM    1  C10 UNL     1      -5.369  -1.640 -13.188  1.00  0.00     0.248 C
HETATM    2  O1  UNL     1      -5.295  -2.196 -12.080  1.00  0.00    -0.271 OA
HETATM    3  N2  UNL     1      -5.838  -2.366 -14.303  1.00  0.00    -0.346 N
ATOM      4  H2  UNL     1      -5.900  -1.911 -15.213  1.00  0.00     0.163 HD
ENDROOT
BRANCH   3   5
HETATM    5  C11 UNL     1      -6.246  -3.805 -14.158  1.00  0.00     0.177 C
BRANCH   5   6
HETATM    6  C12 UNL     1      -5.047  -4.548 -14.663  1.00  0.00     0.039 C
BRANCH   6   7
HETATM    7  C13 UNL     1      -4.109  -3.851 -15.560  1.00  0.00    -0.012 C
HETATM    8  C14 UNL     1      -3.769  -4.724 -16.759  1.00  0.00     0.005 C
HETATM    9  C15 UNL     1      -2.348  -4.498 -17.210  1.00  0.00     0.000 C
HETATM   10  C16 UNL     1      -1.428  -5.063 -16.183  1.00  0.00     0.000 C
HETATM   11  C17 UNL     1      -1.850  -4.653 -14.816  1.00  0.00     0.000 C
HETATM   12  C18 UNL     1      -2.854  -3.532 -14.765  1.00  0.00     0.005 C
ENDBRANCH   6   7
ENDBRANCH   5   6
BRANCH   5  13
HETATM   13  C19 UNL     1      -7.451  -3.906 -14.999  1.00  0.00     0.240 C
HETATM   14  O2  UNL     1      -7.887  -2.879 -15.573  1.00  0.00    -0.271 OA
HETATM   15  N3  UNL     1      -8.136  -5.118 -15.179  1.00  0.00    -0.359 N
ATOM     16  H3  UNL     1      -7.766  -5.942 -14.704  1.00  0.00     0.162 HD
BRANCH  15  17
HETATM   17  C20 UNL     1      -9.332  -5.289 -15.990  1.00  0.00     0.124 C
BRANCH  17  18
HETATM   18  C21 UNL     1      -9.379  -6.672 -16.549  1.00  0.00     0.050 C
BRANCH  18  19
HETATM   19  C22 UNL     1      -8.139  -7.011 -17.355  1.00  0.00     0.274 C
BRANCH  19  20
HETATM   20  N4  UNL     1      -8.419  -8.133 -18.255  1.00  0.00     0.092 N
HETATM   21  C23 UNL     1      -9.555  -7.861 -19.079  1.00  0.00     0.298 C
HETATM   22  C24 UNL     1      -9.160  -8.072 -20.543  1.00  0.00     0.198 C
HETATM   23  O3  UNL     1      -8.062  -7.329 -20.893  1.00  0.00    -0.388 OA
HETATM   24  C25 UNL     1      -6.934  -7.636 -20.155  1.00  0.00     0.198 C
HETATM   25  C26 UNL     1      -7.255  -8.535 -18.985  1.00  0.00     0.298 C
ENDBRANCH  19  20
ENDBRANCH  18  19
ENDBRANCH  17  18
ENDBRANCH  15  17
ENDBRANCH   5  13
ENDBRANCH   3   5
BRANCH   1  26
HETATM   26  C9  UNL     1      -4.978  -0.220 -13.404  1.00  0.00     0.137 C
HETATM   27  C8  UNL     1      -3.798  -0.175 -14.322  1.00  0.00     0.044 C
HETATM   28  C7  UNL     1      -2.695   0.519 -13.518  1.00  0.00     0.012 C
HETATM   29  C6  UNL     1      -3.476   1.401 -12.561  1.00  0.00     0.023 C
HETATM   30  C28 UNL     1      -4.582   0.460 -12.141  1.00  0.00     0.052 C
BRANCH  29  31
HETATM   31  C5  UNL     1      -2.673   1.811 -11.404  1.00  0.00    -0.030 A
HETATM   32  C2  UNL     1      -2.882   2.873 -10.583  1.00  0.00     0.011 A
HETATM   33  C1  UNL     1      -3.977   3.872 -10.679  1.00  0.00     0.068 C
HETATM   34  N1  UNL     1      -1.925   2.920  -9.620  1.00  0.00    -0.369 N
HETATM   35  C3  UNL     1      -1.108   1.876  -9.843  1.00  0.00     0.088 A
ATOM     36  H1  UNL     1      -1.842   3.612  -8.874  1.00  0.00     0.165 HD
HETATM   37  C4  UNL     1      -1.549   1.172 -10.942  1.00  0.00     0.026 A
ENDBRANCH  29  31
BRANCH  26  38
HETATM   38  N5  UNL     1      -6.119   0.476 -13.975  1.00  0.00    -0.252 N
HETATM   39  C27 UNL     1      -7.059   1.092 -13.254  1.00  0.00     0.221 A
HETATM   40  N6  UNL     1      -7.948   1.620 -14.124  1.00  0.00    -0.279 N
HETATM   41  N7  UNL     1      -7.508   1.304 -15.326  1.00  0.00    -0.227 N
ATOM     42  H6  UNL     1      -8.787   2.154 -13.897  1.00  0.00     0.189 HD
HETATM   43  N8  UNL     1      -6.405   0.614 -15.260  1.00  0.00    -0.224 N
ATOM     44  H7  UNL     1      -7.972   1.566 -16.196  1.00  0.00     0.210 HD
ATOM     45  H8  UNL     1      -5.867   0.250 -16.046  1.00  0.00     0.210 HD
ENDBRANCH  26  38
ENDBRANCH   1  26
TORSDOF 11
ENDMDL