MODEL 2
REMARK VINA RESULT: -8.726083983      2.738      5.126
REMARK  14 active torsions:
REMARK  status: ('A' for Active; 'I' for Inactive)
REMARK    1  A    between atoms: C2_2  and  N2_6
REMARK    2  A    between atoms: C5_9  and  O1_10
REMARK    3  A    between atoms: C7_13  and  C8_14
REMARK       I    between atoms: C8_14  and  N4_16
REMARK    4  A    between atoms: N4_16  and  C9_18
REMARK    5  A    between atoms: C9_18  and  C10_19
REMARK    6  A    between atoms: C9_18  and  C17_26
REMARK    7  A    between atoms: C10_19  and  C11_20
REMARK       I    between atoms: C17_26  and  N5_28
REMARK    8  A    between atoms: C18_30  and  C19_31
REMARK    9  A    between atoms: C18_30  and  C22_36
REMARK   10  A    between atoms: C19_31  and  C20_32
REMARK   11  A    between atoms: C20_32  and  C21_33
REMARK   12  A    between atoms: C22_36  and  C23_37
REMARK   13  A    between atoms: C23_37  and  O7_39
REMARK   14  A    between atoms: O7_39  and  C24_40
ROOT
HETATM    1  O1  UNL     1      -6.712   1.789  -6.551  1.00  0.00    -0.275 OA
HETATM    2  C6  UNL     1      -7.154   0.812  -5.719  1.00  0.00     0.229 C
HETATM    3  N3  UNL     1      -7.520  -0.022  -5.004  1.00  0.00    -0.164 NA
ENDROOT
BRANCH   1   4
HETATM    4  C5  UNL     1      -7.068   3.119  -6.319  1.00  0.00     0.175 C
HETATM    5  C4  UNL     1      -6.283   3.515  -5.043  1.00  0.00     0.056 C
HETATM    6  C3  UNL     1      -4.867   3.226  -5.580  1.00  0.00     0.128 C
HETATM    7  N2  UNL     1      -4.938   3.918  -6.850  1.00  0.00    -0.355 N
HETATM    8  C7  UNL     1      -6.314   4.044  -7.304  1.00  0.00     0.208 C
BRANCH   7   9
HETATM    9  C2  UNL     1      -3.828   4.428  -7.561  1.00  0.00     0.069 C
HETATM   10  C1  UNL     1      -3.542   5.855  -7.804  1.00  0.00     0.088 C
HETATM   11  N1  UNL     1      -2.998   3.532  -8.040  1.00  0.00    -0.389 N
ATOM     12  H12 UNL     1      -2.197   3.900  -8.552  1.00  0.00     0.157 HD
ATOM     13  H11 UNL     1      -3.196   2.546  -7.871  1.00  0.00     0.157 HD
ENDBRANCH   7   9
BRANCH   8  14
HETATM   14  C8  UNL     1      -6.520   3.566  -8.688  1.00  0.00     0.243 C
HETATM   15  O2  UNL     1      -7.365   4.134  -9.434  1.00  0.00    -0.271 OA
HETATM   16  N4  UNL     1      -5.774   2.472  -9.176  1.00  0.00    -0.346 N
ATOM     17  H4  UNL     1      -5.093   2.012  -8.572  1.00  0.00     0.163 HD
BRANCH  16  18
HETATM   18  C9  UNL     1      -5.968   2.007 -10.513  1.00  0.00     0.177 C
BRANCH  18  19
HETATM   19  C10 UNL     1      -7.205   2.423 -11.206  1.00  0.00     0.044 C
BRANCH  19  20
HETATM   20  C11 UNL     1      -7.915   1.477 -12.071  1.00  0.00    -0.042 C
HETATM   21  C12 UNL     1      -7.958   1.733 -13.529  1.00  0.00     0.015 C
HETATM   22  C13 UNL     1      -7.250   0.105 -11.881  1.00  0.00     0.009 C
HETATM   23  C14 UNL     1      -8.281  -0.899 -12.333  1.00  0.00     0.001 C
HETATM   24  C15 UNL     1      -9.585  -0.277 -11.956  1.00  0.00     0.001 C
HETATM   25  C16 UNL     1      -9.323   1.157 -11.613  1.00  0.00     0.009 C
ENDBRANCH  19  20
ENDBRANCH  18  19
BRANCH  18  26
HETATM   26  C17 UNL     1      -4.838   2.602 -11.331  1.00  0.00     0.244 C
HETATM   27  O3  UNL     1      -4.271   3.622 -10.911  1.00  0.00    -0.271 OA
HETATM   28  N5  UNL     1      -4.453   2.011 -12.530  1.00  0.00    -0.332 N
HETATM   29  C18 UNL     1      -3.511   1.118 -12.573  1.00  0.00    -0.001 C
ATOM     30  H5  UNL     1      -4.922   2.284 -13.394  1.00  0.00     0.168 HD
BRANCH  29  31
HETATM   31  C19 UNL     1      -2.844   0.728 -11.339  1.00  0.00     0.063 C
BRANCH  31  32
HETATM   32  C20 UNL     1      -1.375   0.971 -11.390  1.00  0.00     0.119 C
BRANCH  32  33
HETATM   33  C21 UNL     1      -1.048   2.405 -11.061  1.00  0.00     0.172 C
HETATM   34  O4  UNL     1      -0.878   2.707  -9.875  1.00  0.00    -0.648 OA
HETATM   35  O5  UNL     1      -0.948   3.329 -12.057  1.00  0.00    -0.648 OA
ENDBRANCH  32  33
ENDBRANCH  31  32
ENDBRANCH  29  31
BRANCH  29  36
HETATM   36  C22 UNL     1      -3.201   0.572 -13.894  1.00  0.00     0.163 C
BRANCH  36  37
HETATM   37  C23 UNL     1      -4.264  -0.096 -14.630  1.00  0.00     0.264 C
HETATM   38  O6  UNL     1      -4.494   0.203 -15.845  1.00  0.00    -0.265 OA
BRANCH  37  39
HETATM   39  O7  UNL     1      -5.092  -1.071 -14.107  1.00  0.00    -0.311 OA
BRANCH  39  40
HETATM   40  C24 UNL     1      -4.756  -2.368 -13.771  1.00  0.00     0.060 C
HETATM   41  C25 UNL     1      -5.974  -3.240 -14.118  1.00  0.00     0.045 C
HETATM   42  C26 UNL     1      -3.602  -2.944 -14.552  1.00  0.00     0.045 C
HETATM   43  C27 UNL     1      -4.450  -2.545 -12.307  1.00  0.00     0.045 C
ENDBRANCH  39  40
ENDBRANCH  37  39
ENDBRANCH  36  37
ENDBRANCH  29  36
ENDBRANCH  18  26
ENDBRANCH  16  18
ENDBRANCH   8  14
ENDBRANCH   1   4
TORSDOF 14
ENDMDL