MODEL 4
REMARK VINA RESULT: -8.793784793      3.372      9.458
REMARK  13 active torsions:
REMARK  status: ('A' for Active; 'I' for Inactive)
REMARK    1  A    between atoms: C2_2  and  C3_3
REMARK    2  A    between atoms: C3_3  and  C4_4
REMARK    3  A    between atoms: C7_7  and  C8_8
REMARK    4  A    between atoms: C8_8  and  C9_9
REMARK    5  A    between atoms: C9_9  and  N1_11
REMARK    6  A    between atoms: N1_11  and  C11_13
REMARK    7  A    between atoms: C12_16  and  N3_17
REMARK    8  A    between atoms: C15_22  and  N5_23
REMARK    9  A    between atoms: C16_25  and  C17_26
REMARK   10  A    between atoms: C17_26  and  N6_27
REMARK   11  A    between atoms: C24_36  and  C25_37
REMARK   12  A    between atoms: C25_37  and  N8_38
REMARK   13  A    between atoms: C30_44  and  O2_45
ROOT
HETATM    1  N1  UNL     1      -7.877  -3.395 -15.073  1.00  0.00    -0.198 N
ATOM      2  H1  UNL     1      -8.833  -3.132 -14.836  1.00  0.00     0.183 HD
ENDROOT
BRANCH   1   3
HETATM    3  C9  UNL     1      -6.956  -2.425 -14.653  1.00  0.00     0.004 C
HETATM    4  C10 UNL     1      -7.104  -1.138 -15.358  1.00  0.00     0.064 C
BRANCH   3   5
HETATM    5  C8  UNL     1      -6.654  -2.394 -13.171  1.00  0.00     0.091 C
BRANCH   5   6
HETATM    6  C7  UNL     1      -6.388  -0.989 -12.787  1.00  0.00    -0.046 A
HETATM    7  C5  UNL     1      -7.359  -0.103 -12.405  1.00  0.00    -0.046 A
HETATM    8  C4  UNL     1      -7.060   1.249 -12.209  1.00  0.00    -0.018 A
HETATM    9  C6  UNL     1      -8.703  -0.571 -12.092  1.00  0.00     0.049 C
HETATM   10  C30 UNL     1      -5.763   1.672 -12.404  1.00  0.00     0.080 A
HETATM   11  C24 UNL     1      -4.734   0.789 -12.794  1.00  0.00     0.004 A
HETATM   12  C23 UNL     1      -5.072  -0.520 -12.974  1.00  0.00     0.019 A
BRANCH   8  13
HETATM   13  C3  UNL     1      -8.120   2.171 -11.814  1.00  0.00     0.042 C
BRANCH  13  14
HETATM   14  C2  UNL     1      -7.935   2.919 -10.547  1.00  0.00     0.000 C
HETATM   15  C1  UNL     1      -7.928   1.881  -9.411  1.00  0.00     0.005 C
ENDBRANCH  13  14
ENDBRANCH   8  13
BRANCH  10  16
HETATM   16  O2  UNL     1      -5.393   2.987 -12.229  1.00  0.00    -0.360 OA
ATOM     17  H2  UNL     1      -5.375   3.394 -11.370  1.00  0.00     0.217 HD
ENDBRANCH  10  16
BRANCH  11  18
HETATM   18  C25 UNL     1      -3.380   1.367 -12.959  1.00  0.00     0.314 C
BRANCH  18  19
HETATM   19  N8  UNL     1      -2.426   1.023 -11.964  1.00  0.00     0.096 N
HETATM   20  C26 UNL     1      -2.468   1.912 -10.820  1.00  0.00     0.299 C
HETATM   21  C27 UNL     1      -2.156   3.314 -11.272  1.00  0.00     0.198 C
HETATM   22  O1  UNL     1      -1.059   3.366 -12.145  1.00  0.00    -0.388 OA
HETATM   23  C28 UNL     1      -0.312   2.185 -11.935  1.00  0.00     0.198 C
HETATM   24  C29 UNL     1      -1.067   0.985 -12.442  1.00  0.00     0.299 C
ENDBRANCH  18  19
ENDBRANCH  11  18
ENDBRANCH   5   6
ENDBRANCH   3   5
ENDBRANCH   1   3
BRANCH   1  25
HETATM   25  C11 UNL     1      -7.833  -4.501 -15.663  1.00  0.00     0.711 A
HETATM   26  N2  UNL     1      -8.863  -5.116 -16.260  1.00  0.00    -0.021 N
HETATM   27  C12 UNL     1      -8.724  -6.310 -16.914  1.00  0.00     0.708 A
ATOM     28  H2  UNL     1      -9.783  -4.677 -16.226  1.00  0.00     0.203 HD
HETATM   29  N4  UNL     1      -7.496  -6.827 -16.917  1.00  0.00    -0.021 N
HETATM   30  C15 UNL     1      -6.422  -6.293 -16.353  1.00  0.00     0.711 A
ATOM     31  H4  UNL     1      -7.370  -7.717 -17.398  1.00  0.00     0.203 HD
HETATM   32  N7  UNL     1      -6.618  -5.105 -15.718  1.00  0.00    -0.021 N
ATOM     33  H7  UNL     1      -5.824  -4.652 -15.267  1.00  0.00     0.203 HD
BRANCH  27  34
HETATM   34  N3  UNL     1      -9.852  -6.913 -17.537  1.00  0.00    -0.225 N
HETATM   35  C13 UNL     1     -11.120  -6.223 -17.655  1.00  0.00     0.168 C
HETATM   36  C14 UNL     1      -9.735  -8.250 -18.076  1.00  0.00     0.168 C
ENDBRANCH  27  34
BRANCH  30  37
HETATM   37  N5  UNL     1      -5.292  -6.752 -16.359  1.00  0.00    -0.203 N
HETATM   38  C16 UNL     1      -3.974  -6.456 -16.521  1.00  0.00     0.109 C
ATOM     39  H5  UNL     1      -5.363  -7.751 -16.164  1.00  0.00     0.183 HD
BRANCH  38  40
HETATM   40  C17 UNL     1      -3.534  -5.398 -17.471  1.00  0.00     0.317 C
BRANCH  40  41
HETATM   41  N6  UNL     1      -2.577  -4.449 -17.000  1.00  0.00     0.096 N
HETATM   42  C18 UNL     1      -3.146  -3.190 -16.642  1.00  0.00     0.300 C
HETATM   43  C19 UNL     1      -3.542  -3.069 -15.212  1.00  0.00    -0.001 C
HETATM   44  C20 UNL     1      -2.645  -3.496 -14.339  1.00  0.00    -0.027 C
HETATM   45  C21 UNL     1      -1.389  -4.025 -14.939  1.00  0.00     0.057 C
HETATM   46  C22 UNL     1      -1.822  -5.071 -15.940  1.00  0.00     0.277 C
ENDBRANCH  40  41
ENDBRANCH  38  40
ENDBRANCH  30  37
ENDBRANCH   1  25
TORSDOF 13
ENDMDL