MODEL 3
REMARK VINA RESULT: -6.261961374      2.043      6.231
REMARK  14 active torsions:
REMARK  status: ('A' for Active; 'I' for Inactive)
REMARK    1  A    between atoms: C2_2  and  C3_3
REMARK    2  A    between atoms: C3_3  and  C4_4
REMARK    3  A    between atoms: C4_4  and  C5_5
REMARK    4  A    between atoms: C7_10  and  C8_11
REMARK    5  A    between atoms: C11_17  and  C12_18
REMARK    6  A    between atoms: C12_18  and  C13_19
REMARK    7  A    between atoms: C16_24  and  O3_25
REMARK    8  A    between atoms: C17_27  and  C18_28
REMARK    9  A    between atoms: C18_28  and  C19_29
REMARK   10  A    between atoms: C23_40  and  C24_41
REMARK   11  A    between atoms: C24_41  and  C25_42
REMARK   12  A    between atoms: C30_49  and  C31_50
REMARK   13  A    between atoms: C31_50  and  C32_51
REMARK   14  A    between atoms: C35_56  and  O6_57
ROOT
HETATM    1  C5  UNL     1      -0.522 -19.793  52.250  1.00  0.00     0.159 C
HETATM    2  N1  UNL     1      -0.249 -18.768  53.217  1.00  0.00    -0.347 N
ATOM      3  H1  UNL     1       0.397 -18.026  52.948  1.00  0.00     0.163 HD
HETATM    4  C6  UNL     1      -0.809 -18.709  54.517  1.00  0.00     0.241 C
HETATM    5  O1  UNL     1      -0.599 -17.689  55.212  1.00  0.00    -0.271 OA
HETATM    6  C7  UNL     1      -1.651 -19.763  55.166  1.00  0.00     0.176 C
HETATM    7  N2  UNL     1      -2.389 -19.227  56.284  1.00  0.00    -0.346 N
ATOM      8  H2  UNL     1      -1.901 -19.250  57.179  1.00  0.00     0.163 HD
HETATM    9  C10 UNL     1      -3.673 -18.682  56.319  1.00  0.00     0.241 C
HETATM   10  O2  UNL     1      -3.788 -17.450  56.675  1.00  0.00    -0.271 OA
HETATM   11  C11 UNL     1      -4.973 -19.376  55.988  1.00  0.00     0.175 C
HETATM   12  N3  UNL     1      -4.929 -20.099  54.758  1.00  0.00    -0.359 N
ATOM     13  H3  UNL     1      -4.485 -21.016  54.820  1.00  0.00     0.162 HD
HETATM   14  C16 UNL     1      -5.389 -19.764  53.488  1.00  0.00     0.135 C
HETATM   15  C17 UNL     1      -5.405 -18.504  52.751  1.00  0.00     0.164 C
HETATM   16  N6  UNL     1      -4.911 -17.335  53.348  1.00  0.00    -0.347 N
ATOM     17  H6  UNL     1      -5.343 -17.063  54.231  1.00  0.00     0.163 HD
HETATM   18  C22 UNL     1      -3.882 -16.489  52.868  1.00  0.00     0.241 C
HETATM   19  O4  UNL     1      -3.087 -16.001  53.701  1.00  0.00    -0.271 OA
HETATM   20  C23 UNL     1      -3.686 -16.138  51.420  1.00  0.00     0.179 C
HETATM   21  N7  UNL     1      -2.354 -15.625  51.265  1.00  0.00    -0.341 N
HETATM   22  C28 UNL     1      -2.086 -14.263  51.763  1.00  0.00     0.153 C
HETATM   23  C29 UNL     1      -1.222 -16.260  50.703  1.00  0.00     0.243 C
HETATM   24  O5  UNL     1      -0.059 -15.925  51.173  1.00  0.00    -0.271 OA
HETATM   25  C30 UNL     1      -1.189 -17.259  49.641  1.00  0.00     0.176 C
HETATM   26  N8  UNL     1      -1.157 -18.645  49.961  1.00  0.00    -0.359 N
ATOM     27  H8  UNL     1      -0.966 -19.202  49.129  1.00  0.00     0.162 HD
HETATM   28  C35 UNL     1      -1.311 -19.459  51.074  1.00  0.00     0.135 C
ENDROOT
BRANCH  15  29
HETATM   29  C18 UNL     1      -6.845 -18.295  52.270  1.00  0.00     0.092 C
BRANCH  29  30
HETATM   30  C19 UNL     1      -7.736 -17.788  53.330  1.00  0.00     0.028 A
HETATM   31  C20 UNL     1      -8.510 -16.622  53.296  1.00  0.00     0.114 A
HETATM   32  N4  UNL     1      -9.189 -16.503  54.435  1.00  0.00    -0.360 N
HETATM   33  C21 UNL     1      -8.886 -17.552  55.211  1.00  0.00     0.180 A
ATOM     34  H4  UNL     1      -9.829 -15.746  54.674  1.00  0.00     0.166 HD
HETATM   35  N5  UNL     1      -8.003 -18.338  54.549  1.00  0.00    -0.354 N
ATOM     36  H5  UNL     1      -7.602 -19.205  54.906  1.00  0.00     0.166 HD
ENDBRANCH  29  30
ENDBRANCH  15  29
BRANCH  14  37
HETATM   37  O3  UNL     1      -5.912 -20.741  52.798  1.00  0.00    -0.348 OA
ATOM     38  H3  UNL     1      -6.750 -20.557  52.391  1.00  0.00     0.219 HD
ENDBRANCH  14  37
BRANCH  11  39
HETATM   39  C12 UNL     1      -5.378 -20.199  57.183  1.00  0.00     0.038 C
BRANCH  39  40
HETATM   40  C13 UNL     1      -5.069 -21.640  57.186  1.00  0.00    -0.020 C
HETATM   41  C14 UNL     1      -6.365 -22.410  57.601  1.00  0.00     0.009 C
HETATM   42  C15 UNL     1      -4.125 -21.978  58.349  1.00  0.00     0.009 C
ENDBRANCH  39  40
ENDBRANCH  11  39
BRANCH  20  43
HETATM   43  C24 UNL     1      -4.667 -15.060  51.022  1.00  0.00     0.039 C
BRANCH  43  44
HETATM   44  C25 UNL     1      -5.636 -15.533  49.983  1.00  0.00    -0.020 C
HETATM   45  C26 UNL     1      -6.211 -14.433  49.122  1.00  0.00     0.009 C
HETATM   46  C27 UNL     1      -5.040 -16.591  49.081  1.00  0.00     0.009 C
ENDBRANCH  43  44
ENDBRANCH  20  43
BRANCH   6  47
HETATM   47  C8  UNL     1      -0.725 -20.853  55.751  1.00  0.00     0.030 C
HETATM   48  C9  UNL     1      -0.967 -20.895  57.232  1.00  0.00     0.007 C
ENDBRANCH   6  47
BRANCH  25  49
HETATM   49  C31 UNL     1       0.055 -16.861  48.800  1.00  0.00     0.038 C
BRANCH  49  50
HETATM   50  C32 UNL     1      -0.270 -16.567  47.381  1.00  0.00    -0.020 C
HETATM   51  C33 UNL     1      -1.744 -16.312  47.213  1.00  0.00     0.009 C
HETATM   52  C34 UNL     1       0.427 -15.229  47.067  1.00  0.00     0.009 C
ENDBRANCH  49  50
ENDBRANCH  25  49
BRANCH  28  53
HETATM   53  O6  UNL     1      -2.463 -20.111  51.083  1.00  0.00    -0.348 OA
ATOM     54  H6  UNL     1      -2.399 -20.913  50.577  1.00  0.00     0.219 HD
ENDBRANCH  28  53
BRANCH   1  55
HETATM   55  C4  UNL     1       0.756 -20.529  51.838  1.00  0.00     0.033 C
BRANCH  55  56
HETATM   56  C3  UNL     1       0.451 -21.521  50.739  1.00  0.00     0.002 C
BRANCH  56  57
HETATM   57  C2  UNL     1       1.574 -22.520  50.564  1.00  0.00    -0.004 C
HETATM   58  C1  UNL     1       1.432 -23.285  49.263  1.00  0.00     0.005 C
ENDBRANCH  56  57
ENDBRANCH  55  56
ENDBRANCH   1  55
TORSDOF 14
ENDMDL