MODEL 1
REMARK VINA RESULT: -7.416572755      0.000      0.000
REMARK  15 active torsions:
REMARK  status: ('A' for Active; 'I' for Inactive)
REMARK    1  A    between atoms: C2_2  and  C3_3
REMARK    2  A    between atoms: C3_3  and  C5_5
REMARK    3  A    between atoms: C6_8  and  O1_9
REMARK    4  A    between atoms: N2_11  and  C7_12
REMARK    5  A    between atoms: C7_12  and  C9_14
REMARK       I    between atoms: C9_14  and  N3_15
REMARK    6  A    between atoms: C11_21  and  C12_22
REMARK    7  A    between atoms: C12_22  and  C13_23
REMARK    8  A    between atoms: C16_28  and  O4_29
REMARK    9  A    between atoms: C17_31  and  C18_32
REMARK   10  A    between atoms: C18_32  and  C19_33
REMARK   11  A    between atoms: C23_40  and  C24_41
REMARK   12  A    between atoms: C24_41  and  C25_42
REMARK   13  A    between atoms: C29_49  and  C30_50
REMARK   14  A    between atoms: C30_50  and  C31_51
REMARK   15  A    between atoms: C34_56  and  O7_57
ROOT
HETATM    1  C5  UNL     1      -5.317 -17.936  52.135  1.00  0.00     0.163 C
HETATM    2  N1  UNL     1      -4.475 -18.886  52.792  1.00  0.00    -0.344 N
ATOM      3  H1  UNL     1      -3.643 -19.146  52.262  1.00  0.00     0.164 HD
HETATM    4  C6  UNL     1      -4.588 -19.530  54.045  1.00  0.00     0.223 C
HETATM    5  N2  UNL     1      -4.523 -19.029  55.376  1.00  0.00    -0.269 N
HETATM    6  C10 UNL     1      -3.343 -18.357  55.933  1.00  0.00     0.250 C
HETATM    7  O3  UNL     1      -3.605 -17.322  56.598  1.00  0.00    -0.271 OA
HETATM    8  C11 UNL     1      -1.962 -18.775  55.778  1.00  0.00     0.176 C
HETATM    9  N4  UNL     1      -1.027 -17.656  55.621  1.00  0.00    -0.359 N
ATOM     10  H4  UNL     1      -0.473 -17.492  56.461  1.00  0.00     0.162 HD
HETATM   11  C16 UNL     1      -0.723 -16.788  54.627  1.00  0.00     0.135 C
HETATM   12  C17 UNL     1      -0.231 -16.875  53.228  1.00  0.00     0.159 C
HETATM   13  N5  UNL     1      -0.947 -15.929  52.417  1.00  0.00    -0.347 N
ATOM     14  H5  UNL     1      -1.816 -15.597  52.834  1.00  0.00     0.163 HD
HETATM   15  C22 UNL     1      -0.671 -15.379  51.158  1.00  0.00     0.241 C
HETATM   16  O5  UNL     1      -0.728 -14.086  51.112  1.00  0.00    -0.271 OA
HETATM   17  C23 UNL     1      -0.335 -16.039  49.905  1.00  0.00     0.177 C
HETATM   18  N6  UNL     1      -1.302 -16.953  49.399  1.00  0.00    -0.346 N
ATOM     19  H6  UNL     1      -0.934 -17.684  48.790  1.00  0.00     0.163 HD
HETATM   20  C28 UNL     1      -2.701 -16.997  49.620  1.00  0.00     0.241 C
HETATM   21  O6  UNL     1      -3.176 -18.157  49.612  1.00  0.00    -0.271 OA
HETATM   22  C29 UNL     1      -3.623 -15.879  49.842  1.00  0.00     0.175 C
HETATM   23  N7  UNL     1      -4.329 -15.768  51.060  1.00  0.00    -0.359 N
ATOM     24  H7  UNL     1      -4.647 -14.810  51.211  1.00  0.00     0.162 HD
HETATM   25  C34 UNL     1      -4.714 -16.584  52.108  1.00  0.00     0.135 C
ENDROOT
BRANCH   5  26
HETATM   26  C7  UNL     1      -5.722 -19.136  56.202  1.00  0.00     0.184 C
HETATM   27  C8  UNL     1      -6.527 -17.903  56.332  1.00  0.00     0.043 C
BRANCH  26  28
HETATM   28  C9  UNL     1      -5.499 -19.719  57.554  1.00  0.00     0.238 C
HETATM   29  N3  UNL     1      -5.129 -19.101  58.727  1.00  0.00    -0.368 N
ATOM     30  H32 UNL     1      -4.980 -18.092  58.703  1.00  0.00     0.159 HD
ATOM     31  H31 UNL     1      -4.976 -19.500  59.653  1.00  0.00     0.159 HD
HETATM   32  O2  UNL     1      -5.688 -20.987  57.584  1.00  0.00    -0.271 OA
ENDBRANCH  26  28
ENDBRANCH   5  26
BRANCH   4  33
HETATM   33  O1  UNL     1      -4.792 -20.837  54.032  1.00  0.00    -0.332 OA
ATOM     34  H1  UNL     1      -4.022 -21.394  54.025  1.00  0.00     0.220 HD
ENDBRANCH   4  33
BRANCH   8  35
HETATM   35  C12 UNL     1      -1.394 -19.668  56.841  1.00  0.00     0.038 C
BRANCH  35  36
HETATM   36  C13 UNL     1      -1.104 -21.075  56.579  1.00  0.00    -0.020 C
HETATM   37  C14 UNL     1      -2.494 -21.809  56.552  1.00  0.00     0.009 C
HETATM   38  C15 UNL     1      -0.268 -21.901  57.475  1.00  0.00     0.009 C
ENDBRANCH  35  36
ENDBRANCH   8  35
BRANCH   1  39
HETATM   39  C3  UNL     1      -6.703 -17.759  52.703  1.00  0.00     0.012 C
HETATM   40  C4  UNL     1      -7.565 -17.030  51.685  1.00  0.00     0.012 C
BRANCH  39  41
HETATM   41  C2  UNL     1      -7.418 -19.046  52.976  1.00  0.00     0.002 C
HETATM   42  C1  UNL     1      -7.598 -19.808  51.668  1.00  0.00     0.005 C
ENDBRANCH  39  41
ENDBRANCH   1  39
BRANCH  25  43
HETATM   43  O7  UNL     1      -4.550 -16.147  53.328  1.00  0.00    -0.348 OA
ATOM     44  H7  UNL     1      -3.970 -15.394  53.325  1.00  0.00     0.219 HD
ENDBRANCH  25  43
BRANCH  11  45
HETATM   45  O4  UNL     1      -0.890 -15.520  54.927  1.00  0.00    -0.348 OA
ATOM     46  H4  UNL     1      -0.614 -14.908  54.255  1.00  0.00     0.219 HD
ENDBRANCH  11  45
BRANCH  12  47
HETATM   47  C18 UNL     1      -0.078 -18.231  52.664  1.00  0.00     0.037 C
BRANCH  47  48
HETATM   48  C19 UNL     1       0.856 -19.133  53.471  1.00  0.00    -0.020 C
HETATM   49  C20 UNL     1       2.265 -18.591  53.373  1.00  0.00     0.009 C
HETATM   50  C21 UNL     1       0.851 -20.522  52.857  1.00  0.00     0.009 C
ENDBRANCH  47  48
ENDBRANCH  12  47
BRANCH  22  51
HETATM   51  C30 UNL     1      -4.700 -15.886  48.726  1.00  0.00     0.038 C
BRANCH  51  52
HETATM   52  C31 UNL     1      -5.333 -14.532  48.682  1.00  0.00    -0.020 C
HETATM   53  C32 UNL     1      -6.574 -14.578  47.768  1.00  0.00     0.009 C
HETATM   54  C33 UNL     1      -4.382 -13.544  48.012  1.00  0.00     0.009 C
ENDBRANCH  51  52
ENDBRANCH  22  51
BRANCH  17  55
HETATM   55  C24 UNL     1      -0.056 -15.028  48.801  1.00  0.00     0.038 C
BRANCH  55  56
HETATM   56  C25 UNL     1      -0.110 -15.645  47.428  1.00  0.00    -0.020 C
HETATM   57  C26 UNL     1       1.227 -15.656  46.739  1.00  0.00     0.009 C
HETATM   58  C27 UNL     1      -1.017 -14.751  46.584  1.00  0.00     0.009 C
ENDBRANCH  55  56
ENDBRANCH  17  55
TORSDOF 15
ENDMDL