MODEL 2
REMARK VINA RESULT: -7.029354059      2.364      7.315
REMARK  13 active torsions:
REMARK  status: ('A' for Active; 'I' for Inactive)
REMARK    1  A    between atoms: C2_2  and  C3_3
REMARK    2  A    between atoms: C3_3  and  C4_4
REMARK    3  A    between atoms: C6_9  and  C7_10
REMARK    4  A    between atoms: C7_10  and  C8_11
REMARK    5  A    between atoms: C17_23  and  C18_24
REMARK    6  A    between atoms: C18_24  and  C19_25
REMARK    7  A    between atoms: C23_32  and  C24_33
REMARK    8  A    between atoms: C24_33  and  C25_34
REMARK    9  A    between atoms: C25_34  and  C26_35
REMARK   10  A    between atoms: C26_35  and  N4_36
REMARK   11  A    between atoms: C29_43  and  O4_44
REMARK   12  A    between atoms: C30_46  and  C31_47
REMARK   13  A    between atoms: C31_47  and  C33_49
ROOT
HETATM    1  C4  UNL     1      -2.329 -18.990  54.786  1.00  0.00     0.177 C
HETATM    2  N1  UNL     1      -0.917 -18.899  54.535  1.00  0.00    -0.346 N
ATOM      3  H1  UNL     1      -0.314 -18.998  55.352  1.00  0.00     0.163 HD
HETATM    4  C5  UNL     1      -0.256 -18.691  53.311  1.00  0.00     0.244 C
HETATM    5  O1  UNL     1       0.745 -19.477  53.093  1.00  0.00    -0.271 OA
HETATM    6  C6  UNL     1      -0.648 -17.667  52.329  1.00  0.00     0.200 C
HETATM    7  N2  UNL     1      -0.680 -18.209  50.972  1.00  0.00    -0.343 N
ATOM      8  H2  UNL     1       0.225 -18.232  50.503  1.00  0.00     0.163 HD
HETATM    9  C16 UNL     1      -1.720 -18.691  50.225  1.00  0.00     0.241 C
HETATM   10  O2  UNL     1      -1.709 -19.932  49.874  1.00  0.00    -0.271 OA
HETATM   11  C17 UNL     1      -2.947 -17.970  49.713  1.00  0.00     0.177 C
HETATM   12  N3  UNL     1      -3.044 -16.649  50.237  1.00  0.00    -0.343 N
ATOM     13  H3  UNL     1      -2.287 -16.019  49.975  1.00  0.00     0.163 HD
HETATM   14  C22 UNL     1      -4.039 -16.086  51.069  1.00  0.00     0.265 C
HETATM   15  O3  UNL     1      -3.532 -15.211  51.872  1.00  0.00    -0.266 OA
HETATM   16  C23 UNL     1      -5.441 -16.306  51.164  1.00  0.00     0.081 C
HETATM   17  N7  UNL     1      -6.075 -17.448  51.688  1.00  0.00    -0.329 N
HETATM   18  C28 UNL     1      -7.352 -17.739  50.934  1.00  0.00     0.158 C
HETATM   19  C29 UNL     1      -5.821 -18.363  52.719  1.00  0.00     0.166 C
HETATM   20  C30 UNL     1      -5.348 -18.348  54.073  1.00  0.00     0.067 C
HETATM   21  N8  UNL     1      -4.310 -17.399  54.430  1.00  0.00    -0.325 N
ATOM     22  H8  UNL     1      -4.530 -16.412  54.304  1.00  0.00     0.169 HD
HETATM   23  C35 UNL     1      -3.020 -17.703  54.938  1.00  0.00     0.244 C
HETATM   24  O5  UNL     1      -2.360 -16.816  55.593  1.00  0.00    -0.271 OA
ENDROOT
BRANCH   6  25
HETATM   25  C7  UNL     1      -0.001 -16.357  52.365  1.00  0.00     0.019 C
BRANCH  25  26
HETATM   26  C8  UNL     1      -0.136 -15.408  51.293  1.00  0.00    -0.032 A
HETATM   27  C9  UNL     1      -0.040 -15.881  49.979  1.00  0.00     0.012 A
HETATM   28  C10 UNL     1      -0.110 -15.067  48.878  1.00  0.00     0.007 A
HETATM   29  C11 UNL     1      -0.282 -13.710  49.031  1.00  0.00    -0.061 A
HETATM   30  C12 UNL     1      -0.363 -12.783  47.863  1.00  0.00     0.048 C
HETATM   31  C13 UNL     1      -0.380 -13.214  50.305  1.00  0.00     0.014 A
HETATM   32  C14 UNL     1      -0.310 -14.050  51.426  1.00  0.00    -0.051 A
HETATM   33  C15 UNL     1      -0.482 -13.411  52.755  1.00  0.00     0.049 C
ENDBRANCH  25  26
ENDBRANCH   6  25
BRANCH   1  34
HETATM   34  C3  UNL     1      -2.519 -19.759  56.105  1.00  0.00     0.034 C
BRANCH  34  35
HETATM   35  C2  UNL     1      -1.406 -20.810  56.103  1.00  0.00    -0.002 C
HETATM   36  C1  UNL     1      -1.019 -21.187  57.516  1.00  0.00     0.005 C
ENDBRANCH  34  35
ENDBRANCH   1  34
BRANCH  11  37
HETATM   37  C18 UNL     1      -2.674 -17.801  48.204  1.00  0.00     0.038 C
BRANCH  37  38
HETATM   38  C19 UNL     1      -3.518 -16.694  47.632  1.00  0.00    -0.020 C
HETATM   39  C20 UNL     1      -2.710 -16.083  46.473  1.00  0.00     0.009 C
HETATM   40  C21 UNL     1      -4.807 -17.243  47.034  1.00  0.00     0.009 C
ENDBRANCH  37  38
ENDBRANCH  11  37
BRANCH  20  41
HETATM   41  C31 UNL     1      -6.248 -18.472  55.238  1.00  0.00     0.036 C
HETATM   42  C32 UNL     1      -5.839 -19.646  56.163  1.00  0.00     0.016 C
BRANCH  41  43
HETATM   43  C33 UNL     1      -7.699 -18.491  55.136  1.00  0.00     0.006 C
HETATM   44  C34 UNL     1      -8.324 -17.128  55.035  1.00  0.00     0.006 C
ENDBRANCH  41  43
ENDBRANCH  20  41
BRANCH  16  45
HETATM   45  C24 UNL     1      -6.194 -15.088  51.764  1.00  0.00     0.065 C
BRANCH  45  46
HETATM   46  C25 UNL     1      -6.597 -14.138  50.664  1.00  0.00     0.026 C
BRANCH  46  47
HETATM   47  C26 UNL     1      -6.257 -14.732  49.324  1.00  0.00     0.122 C
BRANCH  47  48
HETATM   48  N4  UNL     1      -6.197 -13.813  48.243  1.00  0.00    -0.367 N
HETATM   49  C27 UNL     1      -5.148 -13.183  47.887  1.00  0.00     0.196 C
HETATM   50  N5  UNL     1      -3.941 -13.394  48.600  1.00  0.00    -0.067 NA
HETATM   51  N6  UNL     1      -5.252 -12.295  46.775  1.00  0.00    -0.067 NA
ATOM     52  H4  UNL     1      -7.053 -13.646  47.715  1.00  0.00     0.161 HD
ENDBRANCH  47  48
ENDBRANCH  46  47
ENDBRANCH  45  46
ENDBRANCH  16  45
BRANCH  19  53
HETATM   53  O4  UNL     1      -6.104 -19.583  52.298  1.00  0.00    -0.344 OA
ATOM     54  H4  UNL     1      -7.034 -19.643  52.111  1.00  0.00     0.219 HD
ENDBRANCH  19  53
TORSDOF 13
ENDMDL