MODEL 3
REMARK VINA RESULT: -6.947003155      0.670      1.051
REMARK  12 active torsions:
REMARK  status: ('A' for Active; 'I' for Inactive)
REMARK    1  A    between atoms: C2_2  and  C3_3
REMARK    2  A    between atoms: C3_3  and  C4_4
REMARK    3  A    between atoms: C4_4  and  C5_5
REMARK    4  A    between atoms: C7_10  and  C8_11
REMARK    5  A    between atoms: C8_11  and  C9_12
REMARK    6  A    between atoms: C9_12  and  C11_14
REMARK    7  A    between atoms: C14_20  and  C15_21
REMARK    8  A    between atoms: C15_21  and  C16_22
REMARK    9  A    between atoms: C20_29  and  C21_30
REMARK   10  A    between atoms: C21_30  and  C23_32
REMARK   11  A    between atoms: C31_47  and  O6_48
REMARK   12  A    between atoms: C32_50  and  C33_51
ROOT
HETATM    1  C5  UNL     1      -5.792 -16.679  52.310  1.00  0.00     0.184 C
HETATM    2  N1  UNL     1      -5.158 -15.429  52.027  1.00  0.00    -0.338 N
ATOM      3  H1  UNL     1      -5.590 -14.609  52.453  1.00  0.00     0.164 HD
HETATM    4  C6  UNL     1      -4.015 -15.177  51.238  1.00  0.00     0.242 C
HETATM    5  O1  UNL     1      -4.136 -14.447  50.172  1.00  0.00    -0.271 OA
HETATM    6  C7  UNL     1      -2.646 -15.659  51.483  1.00  0.00     0.177 C
HETATM    7  N2  UNL     1      -1.877 -15.635  50.254  1.00  0.00    -0.346 N
ATOM      8  H2  UNL     1      -1.850 -14.770  49.714  1.00  0.00     0.163 HD
HETATM    9  C13 UNL     1      -1.165 -16.751  49.773  1.00  0.00     0.241 C
HETATM   10  O2  UNL     1       0.012 -16.629  49.280  1.00  0.00    -0.271 OA
HETATM   11  C14 UNL     1      -1.698 -18.137  49.788  1.00  0.00     0.177 C
HETATM   12  N3  UNL     1      -0.661 -18.970  50.342  1.00  0.00    -0.346 N
ATOM     13  H3  UNL     1       0.248 -18.898  49.885  1.00  0.00     0.163 HD
HETATM   14  C19 UNL     1      -0.722 -19.851  51.403  1.00  0.00     0.241 C
HETATM   15  O3  UNL     1      -0.370 -21.069  51.220  1.00  0.00    -0.271 OA
HETATM   16  C20 UNL     1      -1.169 -19.550  52.813  1.00  0.00     0.180 C
HETATM   17  N4  UNL     1      -2.032 -20.607  53.294  1.00  0.00    -0.346 N
ATOM     18  H4  UNL     1      -1.784 -21.540  52.966  1.00  0.00     0.163 HD
HETATM   19  C25 UNL     1      -3.149 -20.561  54.135  1.00  0.00     0.241 C
HETATM   20  O4  UNL     1      -4.226 -21.041  53.595  1.00  0.00    -0.271 OA
HETATM   21  C26 UNL     1      -3.286 -20.069  55.504  1.00  0.00     0.187 C
HETATM   22  C27 UNL     1      -2.283 -20.805  56.438  1.00  0.00     0.138 C
HETATM   23  C28 UNL     1      -2.679 -20.531  57.840  1.00  0.00     0.220 C
HETATM   24  O5  UNL     1      -2.967 -21.500  58.579  1.00  0.00    -0.274 OA
HETATM   25  N5  UNL     1      -2.783 -19.271  58.500  1.00  0.00    -0.359 N
ATOM     26  H5  UNL     1      -2.885 -19.324  59.513  1.00  0.00     0.162 HD
HETATM   27  C29 UNL     1      -2.767 -17.927  57.958  1.00  0.00     0.142 C
HETATM   28  C30 UNL     1      -2.234 -18.013  56.566  1.00  0.00     0.145 C
HETATM   29  N6  UNL     1      -3.305 -18.660  55.738  1.00  0.00    -0.345 N
HETATM   30  C31 UNL     1      -4.172 -17.655  55.356  1.00  0.00     0.162 C
HETATM   31  C32 UNL     1      -5.397 -17.632  54.511  1.00  0.00     0.061 C
HETATM   32  N7  UNL     1      -5.089 -17.612  53.124  1.00  0.00    -0.368 N
ATOM     33  H7  UNL     1      -4.392 -18.242  52.727  1.00  0.00     0.161 HD
ENDROOT
BRANCH   6  34
HETATM   34  C8  UNL     1      -1.930 -15.100  52.638  1.00  0.00     0.039 C
BRANCH  34  35
HETATM   35  C9  UNL     1      -0.591 -14.496  52.509  1.00  0.00    -0.017 C
HETATM   36  C10 UNL     1       0.109 -14.566  53.918  1.00  0.00     0.010 C
BRANCH  35  37
HETATM   37  C11 UNL     1      -0.547 -13.006  52.233  1.00  0.00    -0.000 C
HETATM   38  C12 UNL     1       0.578 -12.718  51.222  1.00  0.00     0.005 C
ENDBRANCH  35  37
ENDBRANCH  34  35
ENDBRANCH   6  34
BRANCH   1  39
HETATM   39  C4  UNL     1      -6.311 -17.361  51.025  1.00  0.00     0.047 C
BRANCH  39  40
HETATM   40  C3  UNL     1      -7.271 -16.405  50.379  1.00  0.00     0.003 C
BRANCH  40  41
HETATM   41  C2  UNL     1      -7.054 -16.251  48.910  1.00  0.00    -0.004 C
HETATM   42  C1  UNL     1      -5.822 -16.994  48.436  1.00  0.00     0.005 C
ENDBRANCH  40  41
ENDBRANCH  39  40
ENDBRANCH   1  39
BRANCH  11  43
HETATM   43  C15 UNL     1      -1.988 -18.480  48.339  1.00  0.00     0.038 C
BRANCH  43  44
HETATM   44  C16 UNL     1      -1.020 -19.504  47.799  1.00  0.00    -0.020 C
HETATM   45  C17 UNL     1      -1.800 -20.814  47.646  1.00  0.00     0.009 C
HETATM   46  C18 UNL     1      -0.560 -19.143  46.403  1.00  0.00     0.009 C
ENDBRANCH  43  44
ENDBRANCH  11  43
BRANCH  31  47
HETATM   47  C33 UNL     1      -6.486 -18.504  54.996  1.00  0.00     0.031 C
HETATM   48  C34 UNL     1      -7.010 -19.548  54.053  1.00  0.00     0.016 C
HETATM   49  C35 UNL     1      -7.735 -17.687  55.388  1.00  0.00     0.016 C
ENDBRANCH  31  47
BRANCH  30  50
HETATM   50  O6  UNL     1      -3.850 -16.480  55.835  1.00  0.00    -0.345 OA
ATOM     51  H6  UNL     1      -3.619 -15.850  55.163  1.00  0.00     0.219 HD
ENDBRANCH  30  50
BRANCH  16  52
HETATM   52  C21 UNL     1       0.151 -19.532  53.599  1.00  0.00     0.013 C
HETATM   53  C22 UNL     1       1.212 -20.369  52.957  1.00  0.00     0.012 C
BRANCH  52  54
HETATM   54  C23 UNL     1       0.605 -18.088  53.717  1.00  0.00     0.002 C
HETATM   55  C24 UNL     1       1.648 -17.893  52.617  1.00  0.00     0.005 C
ENDBRANCH  52  54
ENDBRANCH  16  52
TORSDOF 12
ENDMDL