MODEL 3
REMARK VINA RESULT: -6.651671214      1.943      2.690
REMARK  16 active torsions:
REMARK  status: ('A' for Active; 'I' for Inactive)
REMARK    1  A    between atoms: C2_2  and  C4_4
REMARK    2  A    between atoms: C4_4  and  C5_5
REMARK    3  A    between atoms: C7_10  and  C8_11
REMARK    4  A    between atoms: N3_13  and  C9_15
REMARK    5  A    between atoms: N5_18  and  C10_19
REMARK    6  A    between atoms: C10_19  and  C11_20
REMARK    7  A    between atoms: C11_20  and  C12_21
REMARK    8  A    between atoms: C12_21  and  C13_22
REMARK    9  A    between atoms: C13_22  and  C14_23
REMARK   10  A    between atoms: C14_23  and  N6_24
REMARK   11  A    between atoms: C15_28  and  O2_29
REMARK   12  A    between atoms: C16_31  and  C17_32
REMARK   13  A    between atoms: C17_32  and  C18_33
REMARK   14  A    between atoms: C25_45  and  O4_46
REMARK   15  A    between atoms: C26_48  and  C27_49
REMARK   16  A    between atoms: C27_49  and  C28_50
ROOT
HETATM    1  C5  UNL     1      -6.537 -18.582  55.238  1.00  0.00     0.177 C
HETATM    2  N1  UNL     1      -6.416 -18.741  53.854  1.00  0.00    -0.346 N
ATOM      3  H1  UNL     1      -7.147 -19.335  53.460  1.00  0.00     0.163 HD
HETATM    4  C6  UNL     1      -5.510 -18.265  52.873  1.00  0.00     0.248 C
HETATM    5  O1  UNL     1      -5.101 -19.167  52.091  1.00  0.00    -0.271 OA
HETATM    6  C7  UNL     1      -5.004 -16.926  52.640  1.00  0.00     0.243 C
HETATM    7  N5  UNL     1      -3.625 -16.601  52.769  1.00  0.00    -0.344 N
HETATM    8  C15 UNL     1      -2.490 -17.243  53.199  1.00  0.00     0.138 C
HETATM    9  C16 UNL     1      -1.884 -18.571  52.932  1.00  0.00     0.159 C
HETATM   10  N7  UNL     1      -0.695 -18.762  53.734  1.00  0.00    -0.347 N
ATOM     11  H7  UNL     1      -0.012 -18.005  53.691  1.00  0.00     0.163 HD
HETATM   12  C21 UNL     1      -0.349 -19.839  54.561  1.00  0.00     0.245 C
HETATM   13  O3  UNL     1       0.720 -20.493  54.283  1.00  0.00    -0.271 OA
HETATM   14  C22 UNL     1      -1.100 -20.324  55.765  1.00  0.00     0.105 C
HETATM   15  C23 UNL     1      -0.173 -21.289  56.566  1.00  0.00     0.048 C
HETATM   16  C24 UNL     1      -1.301 -19.206  56.737  1.00  0.00     0.048 C
HETATM   17  N8  UNL     1      -2.233 -21.139  55.458  1.00  0.00    -0.355 N
ATOM     18  H8  UNL     1      -1.963 -21.991  54.968  1.00  0.00     0.162 HD
HETATM   19  C25 UNL     1      -3.599 -21.073  55.653  1.00  0.00     0.136 C
HETATM   20  C26 UNL     1      -4.470 -20.785  56.774  1.00  0.00     0.161 C
HETATM   21  N9  UNL     1      -4.837 -19.413  57.039  1.00  0.00    -0.343 N
HETATM   22  C31 UNL     1      -4.639 -18.963  58.464  1.00  0.00     0.153 C
HETATM   23  C32 UNL     1      -5.367 -18.491  56.105  1.00  0.00     0.243 C
HETATM   24  O5  UNL     1      -4.686 -17.413  56.041  1.00  0.00    -0.271 OA
ENDROOT
BRANCH   7  25
HETATM   25  C10 UNL     1      -3.408 -15.167  52.365  1.00  0.00     0.126 C
BRANCH  25  26
HETATM   26  C11 UNL     1      -2.478 -15.097  51.188  1.00  0.00     0.020 C
BRANCH  26  27
HETATM   27  C12 UNL     1      -1.657 -13.827  51.196  1.00  0.00     0.003 C
BRANCH  27  28
HETATM   28  C13 UNL     1      -0.295 -14.018  51.798  1.00  0.00     0.027 C
BRANCH  28  29
HETATM   29  C14 UNL     1      -0.192 -13.225  53.083  1.00  0.00     0.229 C
BRANCH  29  30
HETATM   30  N6  UNL     1      -0.159 -14.133  54.212  1.00  0.00    -0.079 N
ATOM     31  H63 UNL     1      -0.995 -14.716  54.262  1.00  0.00     0.274 HD
ATOM     32  H62 UNL     1       0.529 -14.876  54.089  1.00  0.00     0.274 HD
ATOM     33  H61 UNL     1      -0.006 -13.605  55.070  1.00  0.00     0.274 HD
ENDBRANCH  29  30
ENDBRANCH  28  29
ENDBRANCH  27  28
ENDBRANCH  26  27
ENDBRANCH  25  26
ENDBRANCH   7  25
BRANCH   6  34
HETATM   34  C8  UNL     1      -5.447 -16.569  51.221  1.00  0.00     0.127 C
HETATM   35  N2  UNL     1      -6.458 -15.604  50.990  1.00  0.00    -0.085 NA
HETATM   36  N3  UNL     1      -4.894 -17.123  50.196  1.00  0.00    -0.325 N
ATOM     37  H3  UNL     1      -4.154 -17.804  50.362  1.00  0.00     0.168 HD
BRANCH  36  38
HETATM   38  C9  UNL     1      -5.245 -16.846  48.870  1.00  0.00     0.186 C
HETATM   39  N4  UNL     1      -6.404 -17.432  48.297  1.00  0.00    -0.070 NA
HETATM   40  S1  UNL     1      -4.327 -15.853  47.977  1.00  0.00    -0.044 SA
ENDBRANCH  36  38
ENDBRANCH   6  34
BRANCH   8  41
HETATM   41  O2  UNL     1      -1.770 -16.534  54.035  1.00  0.00    -0.348 OA
ATOM     42  H2  UNL     1      -2.043 -16.621  54.941  1.00  0.00     0.219 HD
ENDBRANCH   8  41
BRANCH   9  43
HETATM   43  C17 UNL     1      -1.567 -18.847  51.504  1.00  0.00     0.037 C
BRANCH  43  44
HETATM   44  C18 UNL     1      -1.126 -17.743  50.622  1.00  0.00    -0.020 C
HETATM   45  C19 UNL     1      -1.319 -18.310  49.180  1.00  0.00     0.009 C
HETATM   46  C20 UNL     1       0.360 -17.496  50.696  1.00  0.00     0.009 C
ENDBRANCH  43  44
ENDBRANCH   9  43
BRANCH   1  47
HETATM   47  C4  UNL     1      -7.509 -17.446  55.552  1.00  0.00     0.038 C
BRANCH  47  48
HETATM   48  C2  UNL     1      -8.774 -17.424  54.806  1.00  0.00    -0.020 C
HETATM   49  C1  UNL     1      -8.703 -16.778  53.444  1.00  0.00     0.009 C
HETATM   50  C3  UNL     1      -9.959 -17.013  55.591  1.00  0.00     0.009 C
ENDBRANCH  47  48
ENDBRANCH   1  47
BRANCH  20  51
HETATM   51  C27 UNL     1      -4.046 -21.500  58.056  1.00  0.00     0.037 C
BRANCH  51  52
HETATM   52  C28 UNL     1      -5.235 -22.419  58.386  1.00  0.00    -0.020 C
HETATM   53  C29 UNL     1      -5.757 -22.162  59.772  1.00  0.00     0.009 C
HETATM   54  C30 UNL     1      -6.357 -22.241  57.410  1.00  0.00     0.009 C
ENDBRANCH  51  52
ENDBRANCH  20  51
BRANCH  19  55
HETATM   55  O4  UNL     1      -4.259 -21.338  54.555  1.00  0.00    -0.348 OA
ATOM     56  H4  UNL     1      -5.167 -21.553  54.733  1.00  0.00     0.219 HD
ENDBRANCH  19  55
TORSDOF 16
ENDMDL