MODEL 5
REMARK VINA RESULT: -6.693742952      1.371      1.788
REMARK  13 active torsions:
REMARK  status: ('A' for Active; 'I' for Inactive)
REMARK    1  A    between atoms: C2_2  and  C4_4
REMARK    2  A    between atoms: C4_4  and  C5_5
REMARK    3  A    between atoms: C5_5  and  C6_6
REMARK    4  A    between atoms: C6_6  and  C7_7
REMARK    5  A    between atoms: C6_6  and  N1_10
REMARK    6  A    between atoms: C7_7  and  C8_8
REMARK    7  A    between atoms: C18_29  and  C19_30
REMARK    8  A    between atoms: C19_30  and  C20_31
REMARK    9  A    between atoms: C23_36  and  O4_37
REMARK   10  A    between atoms: C24_39  and  C25_40
REMARK   11  A    between atoms: C25_40  and  C26_41
REMARK   12  A    between atoms: C30_48  and  C31_49
REMARK   13  A    between atoms: C31_49  and  C32_50
ROOT
HETATM    1  N1  UNL     1      -4.287 -17.664  52.704  1.00  0.00    -0.222 N
ATOM      2  H1  UNL     1      -3.521 -17.421  53.332  1.00  0.00     0.178 HD
HETATM    3  C10 UNL     1      -4.249 -17.115  51.524  1.00  0.00     0.677 C
HETATM    4  N2  UNL     1      -5.311 -17.445  50.647  1.00  0.00    -0.158 N
ATOM      5  H2  UNL     1      -5.585 -18.428  50.630  1.00  0.00     0.187 HD
HETATM    6  C11 UNL     1      -6.039 -16.589  49.794  1.00  0.00     0.258 C
HETATM    7  O1  UNL     1      -6.504 -17.172  48.730  1.00  0.00    -0.270 OA
HETATM    8  C12 UNL     1      -6.374 -15.176  49.873  1.00  0.00     0.173 C
HETATM    9  C13 UNL     1      -6.499 -14.603  51.269  1.00  0.00     0.042 C
HETATM   10  N3  UNL     1      -5.498 -14.277  49.159  1.00  0.00    -0.343 N
ATOM     11  H3  UNL     1      -4.538 -14.253  49.504  1.00  0.00     0.163 HD
HETATM   12  C14 UNL     1      -5.747 -13.441  48.082  1.00  0.00     0.264 C
HETATM   13  O2  UNL     1      -5.501 -12.178  48.266  1.00  0.00    -0.266 OA
HETATM   14  C15 UNL     1      -6.248 -13.740  46.742  1.00  0.00     0.076 C
HETATM   15  C16 UNL     1      -7.389 -12.817  46.311  1.00  0.00     0.074 C
HETATM   16  N4  UNL     1      -5.863 -14.606  45.937  1.00  0.00    -0.324 N
ATOM     17  H4  UNL     1      -6.450 -14.514  45.108  1.00  0.00     0.169 HD
HETATM   18  C17 UNL     1      -5.010 -15.608  45.692  1.00  0.00     0.244 C
HETATM   19  O3  UNL     1      -5.453 -16.802  45.519  1.00  0.00    -0.271 OA
HETATM   20  C18 UNL     1      -3.484 -15.600  45.568  1.00  0.00     0.176 C
HETATM   21  N5  UNL     1      -3.058 -16.104  46.857  1.00  0.00    -0.359 N
ATOM     22  H5  UNL     1      -3.095 -15.388  47.581  1.00  0.00     0.162 HD
HETATM   23  C23 UNL     1      -2.616 -17.315  47.343  1.00  0.00     0.135 C
HETATM   24  C24 UNL     1      -1.270 -17.924  47.470  1.00  0.00     0.159 C
HETATM   25  N6  UNL     1      -0.967 -18.147  48.901  1.00  0.00    -0.347 N
ATOM     26  H6  UNL     1      -0.138 -18.712  49.084  1.00  0.00     0.163 HD
HETATM   27  C29 UNL     1      -1.634 -17.710  50.026  1.00  0.00     0.242 C
HETATM   28  O5  UNL     1      -2.054 -18.640  50.827  1.00  0.00    -0.271 OA
HETATM   29  C30 UNL     1      -1.968 -16.362  50.506  1.00  0.00     0.197 C
HETATM   30  N9  UNL     1      -3.146 -16.264  51.320  1.00  0.00    -0.213 N
ATOM     31  H9  UNL     1      -3.194 -15.401  51.863  1.00  0.00     0.178 HD
ENDROOT
BRANCH   1  32
HETATM   32  C6  UNL     1      -5.267 -18.566  53.235  1.00  0.00     0.099 C
BRANCH  32  33
HETATM   33  C5  UNL     1      -6.138 -17.802  54.200  1.00  0.00     0.030 C
BRANCH  33  34
HETATM   34  C4  UNL     1      -7.592 -18.054  54.120  1.00  0.00     0.035 C
BRANCH  34  35
HETATM   35  C2  UNL     1      -8.076 -18.276  52.751  1.00  0.00    -0.093 C
HETATM   36  C1  UNL     1      -8.693 -17.368  52.038  1.00  0.00     0.014 C
HETATM   37  C3  UNL     1      -7.795 -19.638  52.146  1.00  0.00     0.042 C
ENDBRANCH  34  35
ENDBRANCH  33  34
ENDBRANCH  32  33
BRANCH  32  38
HETATM   38  C7  UNL     1      -4.429 -19.567  54.079  1.00  0.00     0.025 C
BRANCH  38  39
HETATM   39  C8  UNL     1      -4.930 -19.583  55.518  1.00  0.00    -0.002 C
HETATM   40  C9  UNL     1      -5.436 -20.999  55.751  1.00  0.00     0.005 C
ENDBRANCH  38  39
ENDBRANCH  32  38
ENDBRANCH   1  32
BRANCH  29  41
HETATM   41  C31 UNL     1      -0.836 -15.772  51.361  1.00  0.00     0.093 C
BRANCH  41  42
HETATM   42  C32 UNL     1      -0.806 -16.219  52.751  1.00  0.00     0.028 A
HETATM   43  C33 UNL     1      -0.751 -15.358  53.856  1.00  0.00     0.114 A
HETATM   44  N7  UNL     1      -0.773 -16.082  54.985  1.00  0.00    -0.360 N
HETATM   45  C34 UNL     1      -0.840 -17.373  54.631  1.00  0.00     0.180 A
ATOM     46  H7  UNL     1      -0.745 -15.717  55.937  1.00  0.00     0.166 HD
HETATM   47  N8  UNL     1      -0.859 -17.446  53.289  1.00  0.00    -0.354 N
ATOM     48  H8  UNL     1      -0.907 -18.313  52.755  1.00  0.00     0.166 HD
ENDBRANCH  41  42
ENDBRANCH  29  41
BRANCH  24  49
HETATM   49  C25 UNL     1      -0.170 -17.224  46.762  1.00  0.00     0.037 C
BRANCH  49  50
HETATM   50  C26 UNL     1      -0.004 -17.785  45.367  1.00  0.00    -0.020 C
HETATM   51  C27 UNL     1       1.443 -17.495  44.953  1.00  0.00     0.009 C
HETATM   52  C28 UNL     1      -0.164 -19.307  45.484  1.00  0.00     0.009 C
ENDBRANCH  49  50
ENDBRANCH  24  49
BRANCH  23  53
HETATM   53  O4  UNL     1      -3.465 -18.197  47.824  1.00  0.00    -0.348 OA
ATOM     54  H4  UNL     1      -3.644 -18.241  48.757  1.00  0.00     0.219 HD
ENDBRANCH  23  53
BRANCH  20  55
HETATM   55  C19 UNL     1      -3.035 -14.192  45.285  1.00  0.00     0.038 C
BRANCH  55  56
HETATM   56  C20 UNL     1      -2.279 -13.523  46.394  1.00  0.00    -0.020 C
HETATM   57  C21 UNL     1      -0.786 -13.599  46.095  1.00  0.00     0.009 C
HETATM   58  C22 UNL     1      -2.625 -12.030  46.329  1.00  0.00     0.009 C
ENDBRANCH  55  56
ENDBRANCH  20  55
TORSDOF 13
ENDMDL