MODEL 1
REMARK VINA RESULT: -7.386050898      0.000      0.000
REMARK  14 active torsions:
REMARK  status: ('A' for Active; 'I' for Inactive)
REMARK    1  A    between atoms: C2_2  and  C4_4
REMARK    2  A    between atoms: C4_4  and  C5_5
REMARK    3  A    between atoms: C6_8  and  O1_9
REMARK    4  A    between atoms: C7_11  and  C8_12
REMARK    5  A    between atoms: C8_12  and  C9_13
REMARK    6  A    between atoms: C13_20  and  C14_21
REMARK    7  A    between atoms: C14_21  and  C15_22
REMARK    8  A    between atoms: C25_35  and  C26_36
REMARK    9  A    between atoms: C26_36  and  C27_37
REMARK   10  A    between atoms: C27_37  and  C28_38
REMARK   11  A    between atoms: C28_38  and  C29_39
REMARK   12  A    between atoms: C29_39  and  N4_40
REMARK   13  A    between atoms: C31_48  and  C32_49
REMARK   14  A    between atoms: C32_49  and  C33_50
ROOT
HETATM    1  C5  UNL     1      -5.359 -15.753  49.337  1.00  0.00     0.176 C
HETATM    2  N1  UNL     1      -5.203 -14.824  50.403  1.00  0.00    -0.356 N
ATOM      3  H1  UNL     1      -5.997 -14.213  50.594  1.00  0.00     0.162 HD
HETATM    4  C6  UNL     1      -4.078 -14.659  51.216  1.00  0.00     0.159 C
HETATM    5  C7  UNL     1      -2.658 -14.896  51.064  1.00  0.00     0.063 C
HETATM    6  N2  UNL     1      -2.212 -15.581  49.875  1.00  0.00    -0.326 N
ATOM      7  H2  UNL     1      -2.443 -15.155  48.977  1.00  0.00     0.168 HD
HETATM    8  C12 UNL     1      -1.479 -16.797  49.844  1.00  0.00     0.233 C
HETATM    9  O2  UNL     1      -0.377 -16.822  49.172  1.00  0.00    -0.272 OA
HETATM   10  C13 UNL     1      -1.841 -18.065  50.509  1.00  0.00     0.150 C
HETATM   11  C18 UNL     1      -1.076 -18.266  51.770  1.00  0.00     0.163 C
HETATM   12  O3  UNL     1      -0.046 -17.696  52.007  1.00  0.00    -0.295 OA
HETATM   13  C19 UNL     1      -1.641 -19.236  52.779  1.00  0.00     0.162 C
HETATM   14  C20 UNL     1      -0.478 -19.983  53.332  1.00  0.00     0.037 C
HETATM   15  C21 UNL     1      -0.270 -19.920  54.806  1.00  0.00     0.031 C
HETATM   16  C22 UNL     1      -0.454 -18.535  55.288  1.00  0.00    -0.009 C
HETATM   17  C23 UNL     1      -1.476 -17.876  54.789  1.00  0.00     0.091 C
HETATM   18  N3  UNL     1      -2.352 -18.507  53.816  1.00  0.00    -0.315 N
HETATM   19  C24 UNL     1      -3.742 -18.387  53.901  1.00  0.00     0.247 C
HETATM   20  O4  UNL     1      -4.148 -17.232  54.290  1.00  0.00    -0.271 OA
HETATM   21  C25 UNL     1      -4.777 -19.395  53.610  1.00  0.00     0.177 C
HETATM   22  N5  UNL     1      -5.474 -19.268  52.374  1.00  0.00    -0.346 N
ATOM     23  H5  UNL     1      -5.003 -19.726  51.593  1.00  0.00     0.163 HD
HETATM   24  C30 UNL     1      -6.667 -18.645  52.013  1.00  0.00     0.241 C
HETATM   25  O5  UNL     1      -7.662 -19.331  51.637  1.00  0.00    -0.271 OA
HETATM   26  C31 UNL     1      -6.973 -17.159  52.000  1.00  0.00     0.177 C
HETATM   27  N6  UNL     1      -7.370 -16.832  50.613  1.00  0.00    -0.346 N
ATOM     28  H6  UNL     1      -8.373 -16.740  50.451  1.00  0.00     0.163 HD
HETATM   29  C36 UNL     1      -6.575 -16.635  49.517  1.00  0.00     0.241 C
HETATM   30  O6  UNL     1      -6.852 -17.275  48.429  1.00  0.00    -0.271 OA
ENDROOT
BRANCH  21  31
HETATM   31  C26 UNL     1      -5.647 -19.492  54.847  1.00  0.00     0.035 C
BRANCH  31  32
HETATM   32  C27 UNL     1      -4.888 -20.301  55.908  1.00  0.00     0.004 C
BRANCH  32  33
HETATM   33  C28 UNL     1      -4.677 -19.436  57.138  1.00  0.00     0.027 C
BRANCH  33  34
HETATM   34  C29 UNL     1      -3.264 -19.509  57.650  1.00  0.00     0.229 C
BRANCH  34  35
HETATM   35  N4  UNL     1      -2.993 -18.218  58.292  1.00  0.00    -0.079 N
ATOM     36  H43 UNL     1      -2.421 -17.593  57.722  1.00  0.00     0.274 HD
ATOM     37  H42 UNL     1      -3.813 -17.615  58.353  1.00  0.00     0.274 HD
ATOM     38  H41 UNL     1      -2.578 -18.431  59.199  1.00  0.00     0.274 HD
ENDBRANCH  34  35
ENDBRANCH  33  34
ENDBRANCH  32  33
ENDBRANCH  31  32
ENDBRANCH  21  31
BRANCH  26  39
HETATM   39  C32 UNL     1      -8.103 -16.970  52.956  1.00  0.00     0.038 C
BRANCH  39  40
HETATM   40  C33 UNL     1      -8.032 -17.533  54.299  1.00  0.00    -0.020 C
HETATM   41  C34 UNL     1      -9.038 -18.587  54.652  1.00  0.00     0.009 C
HETATM   42  C35 UNL     1      -8.031 -16.534  55.428  1.00  0.00     0.009 C
ENDBRANCH  39  40
ENDBRANCH  26  39
BRANCH  10  43
HETATM   43  C14 UNL     1      -1.620 -19.258  49.662  1.00  0.00     0.025 C
BRANCH  43  44
HETATM   44  C15 UNL     1      -1.785 -19.178  48.211  1.00  0.00    -0.021 C
HETATM   45  C16 UNL     1      -2.959 -18.503  47.626  1.00  0.00     0.009 C
HETATM   46  C17 UNL     1      -1.594 -20.543  47.540  1.00  0.00     0.009 C
ENDBRANCH  43  44
ENDBRANCH  10  43
BRANCH   1  47
HETATM   47  C4  UNL     1      -5.409 -15.149  47.968  1.00  0.00     0.038 C
BRANCH  47  48
HETATM   48  C2  UNL     1      -4.153 -14.925  47.229  1.00  0.00    -0.020 C
HETATM   49  C1  UNL     1      -3.740 -13.425  47.367  1.00  0.00     0.009 C
HETATM   50  C3  UNL     1      -4.369 -15.069  45.717  1.00  0.00     0.009 C
ENDBRANCH  47  48
ENDBRANCH   1  47
BRANCH   5  51
HETATM   51  C8  UNL     1      -1.752 -13.757  51.429  1.00  0.00     0.065 C
BRANCH  51  52
HETATM   52  C9  UNL     1      -0.340 -13.953  51.653  1.00  0.00    -0.017 C
HETATM   53  C10 UNL     1       0.596 -12.841  51.289  1.00  0.00     0.010 C
HETATM   54  C11 UNL     1       0.022 -14.458  53.023  1.00  0.00     0.010 C
ENDBRANCH  51  52
ENDBRANCH   5  51
BRANCH   4  55
HETATM   55  O1  UNL     1      -4.386 -14.182  52.395  1.00  0.00    -0.345 OA
ATOM     56  H1  UNL     1      -4.134 -13.271  52.490  1.00  0.00     0.219 HD
ENDBRANCH   4  55
TORSDOF 14
ENDMDL