MODEL 5
REMARK VINA RESULT: -5.872800720      2.408      8.068
REMARK  14 active torsions:
REMARK  status: ('A' for Active; 'I' for Inactive)
REMARK    1  A    between atoms: C2_2  and  C3_3
REMARK    2  A    between atoms: C4_4  and  C5_5
REMARK    3  A    between atoms: C5_5  and  C6_6
REMARK    4  A    between atoms: C6_6  and  C8_8
REMARK    5  A    between atoms: C9_11  and  O1_12
REMARK    6  A    between atoms: C10_14  and  C11_15
REMARK    7  A    between atoms: C15_22  and  C16_23
REMARK    8  A    between atoms: C16_23  and  C17_24
REMARK    9  A    between atoms: C17_24  and  C18_25
REMARK   10  A    between atoms: C18_25  and  N3_26
REMARK   11  A    between atoms: C25_41  and  C26_42
REMARK   12  A    between atoms: C26_42  and  C27_43
REMARK   13  A    between atoms: C31_50  and  C32_51
REMARK   14  A    between atoms: C32_51  and  C33_52
ROOT
HETATM    1  C8  UNL     1      -5.021 -18.576  53.401  1.00  0.00     0.027 C
HETATM    2  N1  UNL     1      -5.360 -18.177  52.066  1.00  0.00    -0.338 N
ATOM      3  H1  UNL     1      -4.580 -18.404  51.450  1.00  0.00     0.168 HD
HETATM    4  C9  UNL     1      -6.348 -17.606  51.323  1.00  0.00     0.164 C
HETATM    5  C10 UNL     1      -6.936 -16.336  50.937  1.00  0.00     0.066 C
HETATM    6  N2  UNL     1      -7.363 -16.346  49.510  1.00  0.00    -0.325 N
ATOM      7  H2  UNL     1      -8.335 -16.584  49.313  1.00  0.00     0.169 HD
HETATM    8  C14 UNL     1      -6.540 -16.056  48.420  1.00  0.00     0.244 C
HETATM    9  O2  UNL     1      -7.066 -15.425  47.458  1.00  0.00    -0.271 OA
HETATM   10  C15 UNL     1      -5.111 -16.403  48.256  1.00  0.00     0.177 C
HETATM   11  N6  UNL     1      -4.316 -15.225  48.232  1.00  0.00    -0.346 N
ATOM     12  H6  UNL     1      -4.822 -14.376  48.485  1.00  0.00     0.163 HD
HETATM   13  C20 UNL     1      -2.966 -15.016  47.925  1.00  0.00     0.240 C
HETATM   14  O3  UNL     1      -2.697 -14.060  47.148  1.00  0.00    -0.271 OA
HETATM   15  C21 UNL     1      -1.797 -15.794  48.414  1.00  0.00     0.174 C
HETATM   16  C22 UNL     1      -0.792 -15.792  47.264  1.00  0.00     0.042 C
HETATM   17  N7  UNL     1      -1.162 -15.150  49.574  1.00  0.00    -0.342 N
HETATM   18  C23 UNL     1      -0.434 -13.929  49.256  1.00  0.00     0.153 C
HETATM   19  C24 UNL     1      -1.208 -15.601  50.899  1.00  0.00     0.243 C
HETATM   20  O4  UNL     1      -0.961 -14.701  51.781  1.00  0.00    -0.271 OA
HETATM   21  C25 UNL     1      -1.497 -16.942  51.442  1.00  0.00     0.177 C
HETATM   22  N8  UNL     1      -1.744 -16.816  52.864  1.00  0.00    -0.344 N
ATOM     23  H8  UNL     1      -1.016 -16.343  53.399  1.00  0.00     0.163 HD
HETATM   24  C30 UNL     1      -2.863 -17.265  53.609  1.00  0.00     0.250 C
HETATM   25  O5  UNL     1      -3.371 -16.425  54.443  1.00  0.00    -0.268 OA
HETATM   26  C31 UNL     1      -3.506 -18.570  53.540  1.00  0.00     0.033 C
ENDROOT
BRANCH  10  27
HETATM   27  C16 UNL     1      -4.825 -17.422  47.229  1.00  0.00     0.036 C
BRANCH  27  28
HETATM   28  C17 UNL     1      -4.275 -16.992  45.916  1.00  0.00     0.022 C
BRANCH  28  29
HETATM   29  C18 UNL     1      -3.152 -17.957  45.499  1.00  0.00     0.122 C
BRANCH  29  30
HETATM   30  N3  UNL     1      -2.898 -18.827  46.640  1.00  0.00    -0.367 N
HETATM   31  C19 UNL     1      -1.773 -19.419  46.844  1.00  0.00     0.196 C
HETATM   32  N4  UNL     1      -1.671 -20.239  48.000  1.00  0.00    -0.067 NA
HETATM   33  N5  UNL     1      -0.730 -19.229  45.932  1.00  0.00    -0.067 NA
ATOM     34  H3  UNL     1      -3.651 -18.974  47.312  1.00  0.00     0.161 HD
ENDBRANCH  29  30
ENDBRANCH  28  29
ENDBRANCH  27  28
ENDBRANCH  10  27
BRANCH   5  35
HETATM   35  C11 UNL     1      -6.390 -15.027  51.313  1.00  0.00     0.032 C
HETATM   36  C12 UNL     1      -4.850 -15.048  51.302  1.00  0.00     0.016 C
HETATM   37  C13 UNL     1      -6.672 -13.913  50.294  1.00  0.00     0.016 C
ENDBRANCH   5  35
BRANCH   4  38
HETATM   38  O1  UNL     1      -7.096 -18.516  50.665  1.00  0.00    -0.345 OA
ATOM     39  H1  UNL     1      -7.907 -18.150  50.331  1.00  0.00     0.219 HD
ENDBRANCH   4  38
BRANCH   1  40
HETATM   40  C6  UNL     1      -5.853 -18.144  54.483  1.00  0.00     0.043 C
HETATM   41  C7  UNL     1      -5.282 -17.841  55.824  1.00  0.00     0.017 C
BRANCH  40  42
HETATM   42  C5  UNL     1      -6.940 -19.187  54.812  1.00  0.00     0.104 C
BRANCH  42  43
HETATM   43  C4  UNL     1      -6.324 -20.190  55.683  1.00  0.00    -0.106 C
HETATM   44  C3  UNL     1      -5.816 -21.006  56.418  1.00  0.00    -0.107 C
BRANCH  44  45
HETATM   45  C2  UNL     1      -5.204 -21.994  57.342  1.00  0.00     0.089 C
HETATM   46  C1  UNL     1      -6.369 -22.666  58.039  1.00  0.00     0.018 C
ENDBRANCH  44  45
ENDBRANCH  42  43
ENDBRANCH  40  42
ENDBRANCH   1  40
BRANCH  21  47
HETATM   47  C26 UNL     1      -0.499 -18.012  51.119  1.00  0.00     0.038 C
BRANCH  47  48
HETATM   48  C27 UNL     1       0.114 -18.789  52.206  1.00  0.00    -0.020 C
HETATM   49  C28 UNL     1       0.196 -20.241  51.635  1.00  0.00     0.009 C
HETATM   50  C29 UNL     1       1.599 -18.479  52.437  1.00  0.00     0.009 C
ENDBRANCH  47  48
ENDBRANCH  21  47
BRANCH  26  51
HETATM   51  C32 UNL     1      -2.948 -19.704  54.295  1.00  0.00     0.050 C
BRANCH  51  52
HETATM   52  C33 UNL     1      -1.956 -19.503  55.356  1.00  0.00    -0.018 C
HETATM   53  C34 UNL     1      -2.339 -19.424  56.763  1.00  0.00     0.010 C
HETATM   54  C35 UNL     1      -0.921 -20.640  55.202  1.00  0.00     0.010 C
ENDBRANCH  51  52
ENDBRANCH  26  51
TORSDOF 14
ENDMDL