MODEL 5
REMARK VINA RESULT: -5.712737804     14.624     19.268
REMARK  13 active torsions:
REMARK  status: ('A' for Active; 'I' for Inactive)
REMARK    1  A    between atoms: C2_2  and  C4_4
REMARK    2  A    between atoms: C4_4  and  C5_5
REMARK    3  A    between atoms: C7_10  and  C8_11
REMARK    4  A    between atoms: C8_11  and  C9_12
REMARK    5  A    between atoms: C11_19  and  C12_20
REMARK    6  A    between atoms: C12_20  and  C13_21
REMARK    7  A    between atoms: C17_28  and  C18_29
REMARK    8  A    between atoms: C18_29  and  C19_30
REMARK    9  A    between atoms: C23_37  and  C24_38
REMARK   10  A    between atoms: C24_38  and  C25_39
REMARK   11  A    between atoms: C29_46  and  C30_47
REMARK   12  A    between atoms: C30_47  and  C31_48
REMARK   13  A    between atoms: C34_53  and  O7_54
ROOT
HETATM    1  C5  UNL     1      -2.697 -30.705  64.351  1.00  0.00     0.159 C
HETATM    2  N1  UNL     1      -3.650 -31.303  65.258  1.00  0.00    -0.347 N
ATOM      3  H1  UNL     1      -3.271 -31.947  65.952  1.00  0.00     0.163 HD
HETATM    4  C6  UNL     1      -5.034 -31.099  65.294  1.00  0.00     0.241 C
HETATM    5  O1  UNL     1      -5.779 -32.086  65.546  1.00  0.00    -0.271 OA
HETATM    6  C7  UNL     1      -5.749 -29.816  65.066  1.00  0.00     0.185 C
HETATM    7  N3  UNL     1      -6.811 -30.130  64.109  1.00  0.00    -0.346 N
ATOM      8  H3  UNL     1      -7.343 -30.986  64.262  1.00  0.00     0.163 HD
HETATM    9  C10 UNL     1      -7.156 -29.348  62.999  1.00  0.00     0.241 C
HETATM   10  O3  UNL     1      -8.379 -29.160  62.678  1.00  0.00    -0.271 OA
HETATM   11  C11 UNL     1      -6.154 -28.690  62.125  1.00  0.00     0.177 C
HETATM   12  N4  UNL     1      -6.532 -27.325  61.772  1.00  0.00    -0.346 N
ATOM     13  H4  UNL     1      -7.522 -27.080  61.794  1.00  0.00     0.163 HD
HETATM   14  C16 UNL     1      -5.607 -26.322  61.403  1.00  0.00     0.244 C
HETATM   15  O4  UNL     1      -5.928 -25.617  60.392  1.00  0.00    -0.271 OA
HETATM   16  C17 UNL     1      -4.304 -26.051  62.115  1.00  0.00     0.200 C
HETATM   17  N5  UNL     1      -3.191 -26.333  61.249  1.00  0.00    -0.343 N
ATOM     18  H5  UNL     1      -3.415 -26.263  60.256  1.00  0.00     0.163 HD
HETATM   19  C22 UNL     1      -1.867 -26.685  61.501  1.00  0.00     0.241 C
HETATM   20  O5  UNL     1      -1.408 -27.765  60.957  1.00  0.00    -0.271 OA
HETATM   21  C23 UNL     1      -0.851 -25.990  62.328  1.00  0.00     0.177 C
HETATM   22  N6  UNL     1      -0.781 -26.385  63.700  1.00  0.00    -0.346 N
ATOM     23  H6  UNL     1      -0.793 -25.599  64.349  1.00  0.00     0.163 HD
HETATM   24  C28 UNL     1      -0.700 -27.613  64.325  1.00  0.00     0.241 C
HETATM   25  O6  UNL     1      -1.568 -27.846  65.257  1.00  0.00    -0.271 OA
HETATM   26  C29 UNL     1       0.234 -28.736  64.111  1.00  0.00     0.175 C
HETATM   27  N7  UNL     1      -0.214 -29.986  64.680  1.00  0.00    -0.359 N
ATOM     28  H7  UNL     1       0.535 -30.669  64.787  1.00  0.00     0.162 HD
HETATM   29  C34 UNL     1      -1.431 -30.449  65.107  1.00  0.00     0.135 C
ENDROOT
BRANCH   1  30
HETATM   30  C4  UNL     1      -2.477 -31.611  63.180  1.00  0.00     0.037 C
BRANCH  30  31
HETATM   31  C2  UNL     1      -1.927 -32.958  63.420  1.00  0.00    -0.020 C
HETATM   32  C1  UNL     1      -0.634 -33.135  62.579  1.00  0.00     0.009 C
HETATM   33  C3  UNL     1      -2.782 -34.132  63.033  1.00  0.00     0.009 C
ENDBRANCH  30  31
ENDBRANCH   1  30
BRANCH  29  34
HETATM   34  O7  UNL     1      -1.487 -30.710  66.381  1.00  0.00    -0.348 OA
ATOM     35  H7  UNL     1      -0.645 -30.811  66.808  1.00  0.00     0.219 HD
ENDBRANCH  29  34
BRANCH   6  36
HETATM   36  C8  UNL     1      -6.512 -29.451  66.347  1.00  0.00     0.134 C
BRANCH  36  37
HETATM   37  C9  UNL     1      -6.853 -28.040  66.449  1.00  0.00     0.233 C
HETATM   38  N2  UNL     1      -7.572 -27.555  67.570  1.00  0.00    -0.062 NA
HETATM   39  O2  UNL     1      -6.533 -27.211  65.571  1.00  0.00    -0.277 OA
ENDBRANCH  36  37
ENDBRANCH   6  36
BRANCH  26  40
HETATM   40  C30 UNL     1       1.661 -28.442  64.454  1.00  0.00     0.038 C
BRANCH  40  41
HETATM   41  C31 UNL     1       2.065 -28.175  65.823  1.00  0.00    -0.020 C
HETATM   42  C32 UNL     1       2.404 -29.296  66.731  1.00  0.00     0.009 C
HETATM   43  C33 UNL     1       3.187 -27.133  65.954  1.00  0.00     0.009 C
ENDBRANCH  40  41
ENDBRANCH  26  40
BRANCH  11  44
HETATM   44  C12 UNL     1      -5.797 -29.520  60.936  1.00  0.00     0.038 C
BRANCH  44  45
HETATM   45  C13 UNL     1      -6.588 -29.288  59.702  1.00  0.00    -0.020 C
HETATM   46  C14 UNL     1      -7.008 -30.683  59.202  1.00  0.00     0.009 C
HETATM   47  C15 UNL     1      -5.811 -28.690  58.549  1.00  0.00     0.009 C
ENDBRANCH  44  45
ENDBRANCH  11  44
BRANCH  21  48
HETATM   48  C24 UNL     1       0.528 -26.080  61.644  1.00  0.00     0.038 C
BRANCH  48  49
HETATM   49  C25 UNL     1       0.938 -24.728  61.125  1.00  0.00    -0.020 C
HETATM   50  C26 UNL     1       0.941 -24.624  59.627  1.00  0.00     0.009 C
HETATM   51  C27 UNL     1      -0.140 -23.757  61.634  1.00  0.00     0.009 C
ENDBRANCH  48  49
ENDBRANCH  21  48
BRANCH  16  52
HETATM   52  C18 UNL     1      -4.273 -24.817  62.901  1.00  0.00     0.010 C
BRANCH  52  53
HETATM   53  C19 UNL     1      -4.569 -23.490  62.366  1.00  0.00    -0.089 C
HETATM   54  C20 UNL     1      -5.813 -22.804  62.850  1.00  0.00     0.042 C
HETATM   55  C21 UNL     1      -3.393 -22.552  62.201  1.00  0.00     0.042 C
ENDBRANCH  52  53
ENDBRANCH  16  52
TORSDOF 13
ENDMDL