MODEL 5
REMARK VINA RESULT: -6.502550551      2.262      6.166
REMARK  15 active torsions:
REMARK  status: ('A' for Active; 'I' for Inactive)
REMARK    1  A    between atoms: C3_3  and  C4_4
REMARK    2  A    between atoms: C4_4  and  C5_5
REMARK    3  A    between atoms: C5_5  and  C6_6
REMARK    4  A    between atoms: C11_17  and  C12_18
REMARK    5  A    between atoms: C12_18  and  C13_19
REMARK    6  A    between atoms: C13_19  and  C14_20
REMARK    7  A    between atoms: C14_20  and  C15_21
REMARK    8  A    between atoms: C15_21  and  N3_22
REMARK    9  A    between atoms: C18_30  and  C19_31
REMARK   10  A    between atoms: C19_31  and  C20_32
REMARK   11  A    between atoms: C23_37  and  O4_38
REMARK   12  A    between atoms: C24_40  and  C25_41
REMARK   13  A    between atoms: C25_41  and  C26_42
REMARK   14  A    between atoms: C30_49  and  C31_50
REMARK   15  A    between atoms: C31_50  and  C32_51
ROOT
HETATM    1  C1  UNL     1      -6.162 -23.256  62.076  1.00  0.00     0.112 C
HETATM    2  C2  UNL     1      -6.239 -22.213  61.060  1.00  0.00    -0.111 C
HETATM    3  C3  UNL     1      -6.281 -21.355  60.232  1.00  0.00    -0.107 C
ENDROOT
BRANCH   3   4
HETATM    4  C4  UNL     1      -6.310 -20.261  59.200  1.00  0.00     0.096 C
BRANCH   4   5
HETATM    5  C5  UNL     1      -6.530 -20.900  57.883  1.00  0.00     0.047 C
BRANCH   5   6
HETATM    6  C6  UNL     1      -5.404 -20.868  56.886  1.00  0.00     0.177 C
HETATM    7  N1  UNL     1      -5.360 -19.468  56.445  1.00  0.00    -0.346 N
HETATM    8  C7  UNL     1      -5.890 -18.957  55.266  1.00  0.00     0.240 C
ATOM      9  H1  UNL     1      -4.894 -18.806  57.065  1.00  0.00     0.163 HD
HETATM   10  O1  UNL     1      -5.656 -17.760  54.912  1.00  0.00    -0.271 OA
HETATM   11  C8  UNL     1      -6.769 -19.709  54.298  1.00  0.00     0.172 C
HETATM   12  C9  UNL     1      -5.889 -20.651  53.548  1.00  0.00     0.042 C
HETATM   13  N2  UNL     1      -7.619 -18.877  53.517  1.00  0.00    -0.346 N
HETATM   14  C10 UNL     1      -7.400 -17.719  52.785  1.00  0.00     0.241 C
ATOM     15  H2  UNL     1      -8.587 -19.197  53.491  1.00  0.00     0.163 HD
HETATM   16  O2  UNL     1      -8.027 -16.656  53.178  1.00  0.00    -0.271 OA
HETATM   17  C11 UNL     1      -6.553 -17.478  51.597  1.00  0.00     0.178 C
HETATM   18  N4  UNL     1      -5.668 -16.332  51.719  1.00  0.00    -0.341 N
HETATM   19  C16 UNL     1      -6.186 -14.951  51.824  1.00  0.00     0.153 C
HETATM   20  C17 UNL     1      -4.264 -16.522  51.736  1.00  0.00     0.243 C
HETATM   21  O3  UNL     1      -3.624 -15.739  52.531  1.00  0.00    -0.271 OA
HETATM   22  C18 UNL     1      -3.450 -17.470  50.982  1.00  0.00     0.176 C
HETATM   23  N5  UNL     1      -3.079 -18.690  51.619  1.00  0.00    -0.359 N
HETATM   24  C23 UNL     1      -1.946 -19.152  52.265  1.00  0.00     0.135 C
ATOM     25  H5  UNL     1      -3.824 -19.387  51.592  1.00  0.00     0.162 HD
HETATM   26  C24 UNL     1      -1.271 -18.774  53.507  1.00  0.00     0.159 C
HETATM   27  N6  UNL     1      -2.091 -18.414  54.619  1.00  0.00    -0.347 N
HETATM   28  C29 UNL     1      -2.043 -18.933  55.934  1.00  0.00     0.241 C
ATOM     29  H6  UNL     1      -2.796 -17.698  54.445  1.00  0.00     0.163 HD
HETATM   30  O5  UNL     1      -2.057 -18.150  56.947  1.00  0.00    -0.271 OA
HETATM   31  C30 UNL     1      -1.976 -20.378  56.254  1.00  0.00     0.177 C
HETATM   32  N7  UNL     1      -2.854 -20.719  57.345  1.00  0.00    -0.346 N
HETATM   33  C35 UNL     1      -4.098 -21.337  57.374  1.00  0.00     0.241 C
ATOM     34  H7  UNL     1      -2.496 -20.460  58.264  1.00  0.00     0.163 HD
HETATM   35  O6  UNL     1      -4.139 -22.516  57.913  1.00  0.00    -0.271 OA
BRANCH  17  36
HETATM   36  C12 UNL     1      -7.388 -17.191  50.362  1.00  0.00     0.035 C
BRANCH  36  37
HETATM   37  C13 UNL     1      -6.663 -17.240  49.075  1.00  0.00     0.004 C
BRANCH  37  38
HETATM   38  C14 UNL     1      -7.147 -16.204  48.084  1.00  0.00     0.027 C
BRANCH  38  39
HETATM   39  C15 UNL     1      -6.289 -14.953  48.130  1.00  0.00     0.229 C
BRANCH  39  40
HETATM   40  N3  UNL     1      -7.089 -13.793  48.436  1.00  0.00    -0.079 N
ATOM     41  H33 UNL     1      -7.737 -13.571  47.680  1.00  0.00     0.274 HD
ATOM     42  H32 UNL     1      -7.770 -13.988  49.171  1.00  0.00     0.274 HD
ATOM     43  H31 UNL     1      -6.498 -12.995  48.672  1.00  0.00     0.274 HD
ENDBRANCH  39  40
ENDBRANCH  38  39
ENDBRANCH  37  38
ENDBRANCH  36  37
ENDBRANCH  17  36
BRANCH  22  44
HETATM   44  C19 UNL     1      -2.300 -16.668  50.387  1.00  0.00     0.038 C
BRANCH  44  45
HETATM   45  C20 UNL     1      -1.838 -17.394  49.111  1.00  0.00    -0.020 C
HETATM   46  C21 UNL     1      -3.056 -17.413  48.186  1.00  0.00     0.009 C
HETATM   47  C22 UNL     1      -0.741 -16.668  48.410  1.00  0.00     0.009 C
ENDBRANCH  44  45
ENDBRANCH  22  44
BRANCH  24  48
HETATM   48  O4  UNL     1      -1.337 -20.133  51.653  1.00  0.00    -0.348 OA
ATOM     49  H4  UNL     1      -1.898 -20.651  51.087  1.00  0.00     0.219 HD
ENDBRANCH  24  48
BRANCH  26  50
HETATM   50  C25 UNL     1      -0.244 -17.662  53.351  1.00  0.00     0.037 C
BRANCH  50  51
HETATM   51  C26 UNL     1       1.150 -18.176  53.112  1.00  0.00    -0.020 C
HETATM   52  C27 UNL     1       1.509 -18.192  51.666  1.00  0.00     0.009 C
HETATM   53  C28 UNL     1       1.174 -19.604  53.642  1.00  0.00     0.009 C
ENDBRANCH  50  51
ENDBRANCH  26  50
BRANCH  31  54
HETATM   54  C31 UNL     1      -0.519 -20.594  56.721  1.00  0.00     0.038 C
BRANCH  54  55
HETATM   55  C32 UNL     1      -0.452 -21.446  57.948  1.00  0.00    -0.020 C
HETATM   56  C33 UNL     1       0.963 -21.355  58.480  1.00  0.00     0.009 C
HETATM   57  C34 UNL     1      -0.708 -22.900  57.619  1.00  0.00     0.009 C
ENDBRANCH  54  55
ENDBRANCH  31  54
ENDBRANCH   5   6
ENDBRANCH   4   5
ENDBRANCH   3   4
TORSDOF 15
ENDMDL