MODEL 2
REMARK VINA RESULT: -6.537345921      2.946      4.340
REMARK  1 active torsions:
REMARK  status: ('A' for Active; 'I' for Inactive)
REMARK    1  A    between atoms: S1_2  and  C2_3
ROOT
HETATM    1  C2  UNL     1      30.632  47.279  11.331  1.00  0.00     0.183 C
HETATM    2  C3  UNL     1      30.324  47.437   9.855  1.00  0.00     0.070 C
HETATM    3  C4  UNL     1      31.380  48.285   9.154  1.00  0.00     0.236 C
HETATM    4  N1  UNL     1      32.502  47.509   8.707  1.00  0.00    -0.064 N
ATOM      5  H11 UNL     1      32.463  47.313   7.707  1.00  0.00     0.278 HD
ATOM      6  H12 UNL     1      32.467  46.546   9.044  1.00  0.00     0.278 HD
HETATM    7  C5  UNL     1      33.718  48.178   9.086  1.00  0.00     0.150 C
HETATM    8  C6  UNL     1      34.942  47.605   8.377  1.00  0.00     0.067 C
HETATM    9  C7  UNL     1      35.870  48.804   8.549  1.00  0.00     0.170 C
HETATM   10  O1  UNL     1      35.044  49.833   8.106  1.00  0.00    -0.389 OA
HETATM   11  C8  UNL     1      33.781  49.610   8.608  1.00  0.00     0.206 C
HETATM   12  C9  UNL     1      33.976  48.051  10.564  1.00  0.00     0.067 C
HETATM   13  C10 UNL     1      32.936  47.156  11.211  1.00  0.00     0.172 C
HETATM   14  O2  UNL     1      31.834  47.928  11.569  1.00  0.00    -0.376 OA
ENDROOT
BRANCH   1  15
HETATM   15  S1  UNL     1      30.696  45.525  11.762  1.00  0.00    -0.142 SA
HETATM   16  C1  UNL     1      29.354  44.634  10.942  1.00  0.00     0.092 C
ENDBRANCH   1  15
TORSDOF 1
ENDMDL