MODEL 3
REMARK VINA RESULT: -6.497815614      3.326      5.002
REMARK  2 active torsions:
REMARK  status: ('A' for Active; 'I' for Inactive)
REMARK    1  A    between atoms: C4_5  and  N1_6
REMARK    2  A    between atoms: C8_10  and  O2_11
ROOT
HETATM    1  N1  UNL     1      35.899  48.379  12.923  1.00  0.00     0.120 N
HETATM    2  C5  UNL     1      35.179  47.871  14.064  1.00  0.00     0.276 C
HETATM    3  C6  UNL     1      36.161  47.651  15.182  1.00  0.00     0.033 C
HETATM    4  C7  UNL     1      37.302  46.767  14.765  1.00  0.00     0.035 C
HETATM    5  C8  UNL     1      37.223  46.342  13.325  1.00  0.00     0.146 C
HETATM    6  C9  UNL     1      36.847  47.443  12.389  1.00  0.00     0.307 C
ENDROOT
BRANCH   1   7
HETATM    7  C4  UNL     1      34.955  48.736  11.866  1.00  0.00     0.369 C
HETATM    8  O1  UNL     1      35.594  48.601  10.681  1.00  0.00    -0.335 OA
HETATM    9  C2  UNL     1      34.769  48.769   9.615  1.00  0.00     0.104 C
HETATM   10  C1  UNL     1      35.301  48.063   8.397  1.00  0.00     0.058 C
HETATM   11  C3  UNL     1      34.450  50.180   9.260  1.00  0.00     0.058 C
HETATM   12  S1  UNL     1      33.273  47.852  10.174  1.00  0.00    -0.128 SA
HETATM   13  C10 UNL     1      33.817  47.705  11.929  1.00  0.00     0.141 C
ENDBRANCH   1   7
BRANCH   5  14
HETATM   14  O2  UNL     1      36.315  45.299  13.189  1.00  0.00    -0.394 OA
ATOM     15  H2  UNL     1      36.780  44.479  13.074  1.00  0.00     0.210 HD
ENDBRANCH   5  14
TORSDOF 2
ENDMDL