MODEL 3
REMARK VINA RESULT: -7.656709806      1.487      2.179
REMARK  2 active torsions:
REMARK  status: ('A' for Active; 'I' for Inactive)
REMARK    1  A    between atoms: O1_1  and  C1_3
REMARK    2  A    between atoms: N1_9  and  C7_10
ROOT
HETATM    1  C1  UNL     1      29.192  45.636  11.135  1.00  0.00     0.064 C
HETATM    2  C2  UNL     1      29.773  45.209   9.796  1.00  0.00     0.038 C
HETATM    3  C3  UNL     1      30.525  46.400   9.257  1.00  0.00     0.004 C
HETATM    4  C4  UNL     1      29.771  47.555   9.917  1.00  0.00     0.009 C
HETATM    5  C5  UNL     1      29.712  47.039  11.361  1.00  0.00     0.038 C
HETATM    6  C6  UNL     1      28.785  47.895  12.154  1.00  0.00     0.132 C
HETATM    7  N1  UNL     1      27.988  47.071  13.034  1.00  0.00    -0.366 N
HETATM    8  C11 UNL     1      27.159  46.039  12.441  1.00  0.00     0.127 C
HETATM    9  C12 UNL     1      27.685  45.624  11.077  1.00  0.00     0.058 C
ENDROOT
BRANCH   7  10
HETATM   10  C7  UNL     1      28.015  47.265  14.442  1.00  0.00     0.118 A
HETATM   11  C8  UNL     1      26.890  47.355  15.211  1.00  0.00     0.136 A
HETATM   12  N2  UNL     1      27.009  47.542  16.556  1.00  0.00    -0.371 N
HETATM   13  C9  UNL     1      28.219  47.641  17.146  1.00  0.00     0.104 A
ATOM     14  H2  UNL     1      26.167  47.608  17.128  1.00  0.00     0.164 HD
HETATM   15  C10 UNL     1      29.359  47.550  16.364  1.00  0.00     0.106 A
HETATM   16  N3  UNL     1      29.207  47.367  15.059  1.00  0.00    -0.350 N
ATOM     17  H3  UNL     1      30.048  47.301  14.487  1.00  0.00     0.166 HD
ENDBRANCH   7  10
BRANCH   1  18
HETATM   18  O1  UNL     1      29.594  44.772  12.153  1.00  0.00    -0.389 OA
ATOM     19  H1  UNL     1      29.197  45.014  12.981  1.00  0.00     0.210 HD
ENDBRANCH   1  18
TORSDOF 2
ENDMDL