MODEL 4
REMARK VINA RESULT: -7.837160207      1.577      3.259
REMARK  2 active torsions:
REMARK  status: ('A' for Active; 'I' for Inactive)
REMARK    1  A    between atoms: O1_1  and  C1_3
REMARK    2  A    between atoms: C1_3  and  C2_4
ROOT
HETATM    1  C1  UNL     1      30.601  46.521  11.134  1.00  0.00     0.122 C
HETATM    2  C8  UNL     1      30.074  47.412  12.261  1.00  0.00     0.072 C
HETATM    3  C9  UNL     1      28.634  47.265  12.565  1.00  0.00     0.171 C
HETATM    4  O2  UNL     1      27.872  46.708  11.576  1.00  0.00    -0.388 OA
HETATM    5  C10 UNL     1      28.460  45.501  11.136  1.00  0.00     0.211 C
HETATM    6  C11 UNL     1      29.583  46.011  10.213  1.00  0.00     0.138 A
HETATM    7  C12 UNL     1      29.712  45.489   8.903  1.00  0.00     0.213 A
HETATM    8  O3  UNL     1      29.061  46.709   9.167  1.00  0.00    -0.369 OA
ENDROOT
BRANCH   1   9
HETATM    9  O1  UNL     1      31.103  45.369  11.823  1.00  0.00    -0.382 OA
ATOM     10  H1  UNL     1      31.464  44.809  11.145  1.00  0.00     0.211 HD
ENDBRANCH   1   9
BRANCH   1  11
HETATM   11  C2  UNL     1      31.789  47.225  10.641  1.00  0.00    -0.021 A
HETATM   12  C3  UNL     1      32.844  47.395  11.531  1.00  0.00     0.010 A
HETATM   13  C4  UNL     1      33.984  48.101  11.201  1.00  0.00     0.001 A
HETATM   14  C5  UNL     1      34.110  48.675   9.957  1.00  0.00     0.000 A
HETATM   15  C6  UNL     1      33.088  48.533   9.056  1.00  0.00     0.001 A
HETATM   16  C7  UNL     1      31.942  47.806   9.414  1.00  0.00     0.010 A
ENDBRANCH   1  11
TORSDOF 2
ENDMDL