MODEL 2
REMARK VINA RESULT: -8.359417473      3.625      6.659
REMARK  1 active torsions:
REMARK  status: ('A' for Active; 'I' for Inactive)
REMARK    1  A    between atoms: N2_12  and  C9_14
ROOT
HETATM    1  C1  UNL     1      30.039  46.543  13.740  1.00  0.00     0.141 A
HETATM    2  N1  UNL     1      30.251  46.270  12.506  1.00  0.00    -0.364 N
ATOM      3  H1  UNL     1      31.041  45.723  12.160  1.00  0.00     0.162 HD
HETATM    4  C2  UNL     1      29.226  46.838  11.674  1.00  0.00     0.141 A
HETATM    5  C3  UNL     1      29.890  47.766  10.689  1.00  0.00     0.061 C
HETATM    6  C4  UNL     1      30.744  46.907   9.769  1.00  0.00     0.005 C
HETATM    7  C5  UNL     1      29.889  45.928   8.991  1.00  0.00     0.000 C
HETATM    8  C6  UNL     1      29.271  44.976   9.992  1.00  0.00     0.005 C
HETATM    9  C7  UNL     1      28.430  45.774  10.944  1.00  0.00     0.061 C
HETATM   10  O1  UNL     1      28.346  47.500  12.542  1.00  0.00    -0.303 OA
HETATM   11  C8  UNL     1      28.823  47.336  13.831  1.00  0.00     0.157 A
HETATM   12  N2  UNL     1      28.297  47.796  14.939  1.00  0.00    -0.347 N
ATOM     13  H2  UNL     1      27.438  48.346  14.915  1.00  0.00     0.163 HD
ENDROOT
BRANCH  12  14
HETATM   14  C9  UNL     1      28.946  47.516  16.183  1.00  0.00     0.200 C
HETATM   15  C10 UNL     1      28.005  47.648  17.368  1.00  0.00     0.069 C
HETATM   16  C11 UNL     1      28.978  48.103  18.431  1.00  0.00     0.143 C
HETATM   17  N3  UNL     1      29.994  48.758  17.704  1.00  0.00    -0.339 N
HETATM   18  N4  UNL     1      29.964  48.438  16.521  1.00  0.00    -0.317 N
ATOM     19  H3  UNL     1      30.664  49.412  18.109  1.00  0.00     0.179 HD
ATOM     20  H4  UNL     1      30.621  48.807  15.834  1.00  0.00     0.182 HD
ENDBRANCH  12  14
TORSDOF 1
ENDMDL