MODEL 1
REMARK VINA RESULT: -7.758709449      0.000      0.000
REMARK  3 active torsions:
REMARK  status: ('A' for Active; 'I' for Inactive)
REMARK    1  A    between atoms: C2_2  and  O2_4
REMARK    2  A    between atoms: O2_4  and  C3_5
REMARK    3  A    between atoms: C7_9  and  O3_10
ROOT
HETATM    1  C3  UNL     1      30.519  47.270   9.253  1.00  0.00     0.157 C
HETATM    2  C4  UNL     1      29.854  45.985   9.163  1.00  0.00     0.001 C
HETATM    3  C5  UNL     1      29.423  44.927   9.878  1.00  0.00    -0.025 C
HETATM    4  C6  UNL     1      29.506  44.666  11.335  1.00  0.00     0.067 C
HETATM    5  C7  UNL     1      28.750  45.560  12.250  1.00  0.00     0.084 C
HETATM    6  C8  UNL     1      29.646  46.221  13.321  1.00  0.00     0.206 C
HETATM    7  O4  UNL     1      29.893  47.555  12.862  1.00  0.00    -0.383 OA
HETATM    8  C9  UNL     1      29.854  47.290  11.517  1.00  0.00     0.127 C
HETATM    9  C10 UNL     1      30.158  48.148  10.441  1.00  0.00     0.068 C
HETATM   10  C11 UNL     1      28.444  46.799  11.476  1.00  0.00     0.072 C
ENDROOT
BRANCH   1  11
HETATM   11  O2  UNL     1      31.928  47.046   9.266  1.00  0.00    -0.312 OA
BRANCH  11  12
HETATM   12  C2  UNL     1      32.835  48.042   8.927  1.00  0.00     0.255 C
HETATM   13  C1  UNL     1      33.838  48.586   9.880  1.00  0.00     0.126 C
HETATM   14  O1  UNL     1      32.758  48.472   7.733  1.00  0.00    -0.266 OA
ENDBRANCH  11  12
ENDBRANCH   1  11
BRANCH   5  15
HETATM   15  O3  UNL     1      27.636  44.981  12.833  1.00  0.00    -0.387 OA
ATOM     16  H3  UNL     1      27.532  45.166  13.759  1.00  0.00     0.210 HD
ENDBRANCH   5  15
TORSDOF 3
ENDMDL