MODEL 1
REMARK VINA RESULT: -6.934740065      0.000      0.000
REMARK  2 active torsions:
REMARK  status: ('A' for Active; 'I' for Inactive)
REMARK    1  A    between atoms: O1_1  and  C1_3
REMARK    2  A    between atoms: C6_10  and  C7_11
ROOT
HETATM    1  C1  UNL     1      33.372  49.528   8.527  1.00  0.00     0.161 C
HETATM    2  C2  UNL     1      34.876  49.659   8.421  1.00  0.00     0.098 C
HETATM    3  C3  UNL     1      35.417  48.261   8.622  1.00  0.00     0.362 C
HETATM    4  O2  UNL     1      36.561  48.342   9.400  1.00  0.00    -0.355 OA
HETATM    5  C4  UNL     1      36.144  48.638  10.682  1.00  0.00     0.201 C
HETATM    6  C5  UNL     1      34.640  48.415  10.722  1.00  0.00     0.303 C
HETATM    7  N1  UNL     1      34.398  47.674   9.509  1.00  0.00     0.131 N
HETATM    8  C6  UNL     1      33.191  48.077   8.823  1.00  0.00     0.294 C
ENDROOT
BRANCH   8   9
HETATM    9  C7  UNL     1      31.990  47.833   9.684  1.00  0.00     0.018 A
HETATM   10  C8  UNL     1      30.693  48.135   9.386  1.00  0.00     0.017 A
HETATM   11  C9  UNL     1      29.760  47.830  10.306  1.00  0.00     0.008 A
HETATM   12  C10 UNL     1      30.183  47.244  11.464  1.00  0.00     0.050 A
HETATM   13  S1  UNL     1      31.870  47.135  11.237  1.00  0.00    -0.104 SA
ENDBRANCH   8   9
BRANCH   1  14
HETATM   14  O1  UNL     1      32.821  49.774   7.261  1.00  0.00    -0.393 OA
ATOM     15  H1  UNL     1      32.003  50.243   7.379  1.00  0.00     0.210 HD
ENDBRANCH   1  14
TORSDOF 2
ENDMDL