MODEL 5
REMARK VINA RESULT: -5.689817103      1.456      2.051
REMARK  1 active torsions:
REMARK  status: ('A' for Active; 'I' for Inactive)
REMARK    1  A    between atoms: C1_2  and  C2_4
ROOT
HETATM    1  C2  UNL     1      28.510  45.539  11.879  1.00  0.00     0.157 C
HETATM    2  C3  UNL     1      28.525  47.012  12.191  1.00  0.00     0.100 C
HETATM    3  S1  UNL     1      29.213  47.978  10.799  1.00  0.00    -0.154 SA
HETATM    4  C4  UNL     1      30.827  47.260  10.412  1.00  0.00     0.040 C
HETATM    5  C5  UNL     1      31.597  48.130   9.415  1.00  0.00     0.049 C
HETATM    6  C6  UNL     1      33.007  47.629   9.746  1.00  0.00     0.169 C
HETATM    7  O3  UNL     1      33.035  47.534  11.113  1.00  0.00    -0.389 OA
HETATM    8  C7  UNL     1      31.772  47.321  11.587  1.00  0.00     0.189 C
HETATM    9  C8  UNL     1      30.678  45.871   9.855  1.00  0.00     0.097 C
HETATM   10  S2  UNL     1      29.030  45.195  10.182  1.00  0.00    -0.151 SA
ENDROOT
BRANCH   1  11
HETATM   11  C1  UNL     1      27.139  45.043  12.082  1.00  0.00     0.188 C
HETATM   12  O1  UNL     1      26.927  43.801  12.289  1.00  0.00    -0.647 OA
HETATM   13  O2  UNL     1      26.048  45.883  12.059  1.00  0.00    -0.647 OA
ENDBRANCH   1  11
TORSDOF 1
ENDMDL