MODEL 1
REMARK VINA RESULT: -7.732413787      0.000      0.000
REMARK  2 active torsions:
REMARK  status: ('A' for Active; 'I' for Inactive)
REMARK    1  A    between atoms: O1_2  and  C2_3
REMARK    2  A    between atoms: C8_9  and  O2_10
ROOT
HETATM    1  C2  UNL     1      28.782  45.866  10.400  1.00  0.00     0.220 C
HETATM    2  C3  UNL     1      29.459  45.088  11.535  1.00  0.00     0.051 C
HETATM    3  C4  UNL     1      30.924  45.354  11.437  1.00  0.00     0.017 C
HETATM    4  C5  UNL     1      31.222  46.830  11.124  1.00  0.00     0.002 C
HETATM    5  C6  UNL     1      32.413  47.281  11.825  1.00  0.00     0.016 C
HETATM    6  C7  UNL     1      33.470  47.973  11.062  1.00  0.00     0.032 C
HETATM    7  C8  UNL     1      33.503  47.698   9.600  1.00  0.00     0.120 C
HETATM    8  C9  UNL     1      32.113  47.973   9.063  1.00  0.00     0.066 C
HETATM    9  C10 UNL     1      31.109  47.064   9.669  1.00  0.00     0.158 C
HETATM   10  O3  UNL     1      29.836  47.638   9.440  1.00  0.00    -0.295 OA
HETATM   11  N1  UNL     1      29.077  47.290  10.504  1.00  0.00    -0.167 NA
HETATM   12  C11 UNL     1      29.970  47.580  11.611  1.00  0.00     0.136 C
ENDROOT
BRANCH   1  13
HETATM   13  O1  UNL     1      27.414  45.634  10.408  1.00  0.00    -0.374 OA
HETATM   14  C1  UNL     1      26.985  45.315  11.695  1.00  0.00     0.204 C
ENDBRANCH   1  13
BRANCH   7  15
HETATM   15  O2  UNL     1      34.342  48.669   9.009  1.00  0.00    -0.395 OA
ATOM     16  H2  UNL     1      33.860  49.058   8.289  1.00  0.00     0.210 HD
ENDBRANCH   7  15
TORSDOF 2
ENDMDL