MODEL 3
REMARK VINA RESULT: -5.577928418      6.384      7.713
REMARK  1 active torsions:
REMARK  status: ('A' for Active; 'I' for Inactive)
REMARK    1  A    between atoms: C1_2  and  C2_4
ROOT
HETATM    1  C2  UNL     1      36.765  46.600  14.363  1.00  0.00     0.192 C
HETATM    2  C3  UNL     1      37.566  47.256  15.455  1.00  0.00     0.122 C
HETATM    3  S1  UNL     1      36.589  48.477  16.380  1.00  0.00    -0.093 SA
HETATM    4  S2  UNL     1      35.841  49.756  14.820  1.00  0.00    -0.072 SA
HETATM    5  C4  UNL     1      35.763  48.597  13.391  1.00  0.00     0.153 C
HETATM    6  C5  UNL     1      34.417  48.836  12.722  1.00  0.00     0.038 C
HETATM    7  C6  UNL     1      33.616  47.577  12.885  1.00  0.00     0.022 C
HETATM    8  C7  UNL     1      34.701  46.536  13.197  1.00  0.00     0.119 C
HETATM    9  N1  UNL     1      35.631  47.301  13.937  1.00  0.00    -0.385 N
ENDROOT
BRANCH   1  10
HETATM   10  C1  UNL     1      37.721  46.214  13.296  1.00  0.00     0.197 C
HETATM   11  O1  UNL     1      38.597  46.988  12.845  1.00  0.00    -0.646 OA
HETATM   12  O2  UNL     1      37.641  44.939  12.775  1.00  0.00    -0.646 OA
ENDBRANCH   1  10
TORSDOF 1
ENDMDL