MODEL 5
REMARK VINA RESULT: -5.290113224      2.543      4.756
REMARK  9 active torsions:
REMARK  status: ('A' for Active; 'I' for Inactive)
REMARK    1  A    between atoms: C2_2  and  O2_4
REMARK    2  A    between atoms: O2_4  and  C3_5
REMARK    3  A    between atoms: C5_7  and  C6_8
REMARK    4  A    between atoms: C6_8  and  O3_9
REMARK    5  A    between atoms: O3_9  and  C7_10
REMARK    6  A    between atoms: N1_19  and  S1_20
REMARK    7  A    between atoms: S1_20  and  C14_22
REMARK    8  A    between atoms: C15_25  and  O5_26
REMARK    9  A    between atoms: O5_26  and  C16_27
ROOT
HETATM    1  C3  UNL     1      16.484  12.438  18.654  1.00  0.00     0.182 C
HETATM    2  C4  UNL     1      16.629  13.359  19.820  1.00  0.00     0.045 C
HETATM    3  C5  UNL     1      15.854  14.644  19.689  1.00  0.00     0.031 C
HETATM    4  C13 UNL     1      14.442  14.438  19.217  1.00  0.00     0.142 C
HETATM    5  N1  UNL     1      14.185  13.136  18.695  1.00  0.00    -0.299 N
HETATM    6  C15 UNL     1      15.221  12.604  17.874  1.00  0.00     0.270 C
ENDROOT
BRANCH   3   7
HETATM    7  C6  UNL     1      16.567  15.638  18.801  1.00  0.00     0.182 C
BRANCH   7   8
HETATM    8  O3  UNL     1      16.996  16.782  19.414  1.00  0.00    -0.351 OA
BRANCH   8   9
HETATM    9  C7  UNL     1      18.168  17.255  19.890  1.00  0.00     0.070 A
HETATM   10  C8  UNL     1      19.145  16.282  20.192  1.00  0.00     0.038 A
HETATM   11  C9  UNL     1      20.343  16.664  20.675  1.00  0.00     0.028 A
HETATM   12  C10 UNL     1      20.686  17.981  20.899  1.00  0.00     0.056 A
HETATM   13 CL1  UNL     1      22.258  18.442  21.527  1.00  0.00    -0.083 Cl
HETATM   14  C11 UNL     1      19.713  18.907  20.595  1.00  0.00     0.058 A
HETATM   15 CL2  UNL     1      20.062  20.607  20.848  1.00  0.00    -0.082 Cl
HETATM   16  C12 UNL     1      18.474  18.568  20.101  1.00  0.00     0.062 A
ENDBRANCH   8   9
ENDBRANCH   7   8
ENDBRANCH   3   7
BRANCH   1  17
HETATM   17  O2  UNL     1      17.601  12.636  17.807  1.00  0.00    -0.312 OA
BRANCH  17  18
HETATM   18  C2  UNL     1      18.502  11.651  17.511  1.00  0.00     0.255 C
HETATM   19  C1  UNL     1      19.807  12.004  16.913  1.00  0.00     0.126 C
HETATM   20  O1  UNL     1      18.191  10.454  17.759  1.00  0.00    -0.266 OA
ENDBRANCH  17  18
ENDBRANCH   1  17
BRANCH   5  21
HETATM   21  S1  UNL     1      13.504  12.038  19.800  1.00  0.00     0.148 S
HETATM   22  O4  UNL     1      13.673  12.557  21.410  1.00  0.00    -0.233 OA
BRANCH  21  23
HETATM   23  C14 UNL     1      11.732  11.886  19.536  1.00  0.00     0.292 C
HETATM   24 CL3  UNL     1      11.420  11.048  17.976  1.00  0.00    -0.092 Cl
HETATM   25 CL4  UNL     1      11.022  13.508  19.384  1.00  0.00    -0.092 Cl
ENDBRANCH  21  23
ENDBRANCH   5  21
BRANCH   6  26
HETATM   26  O5  UNL     1      14.787  11.367  17.355  1.00  0.00    -0.292 OA
BRANCH  26  27
HETATM   27  C16 UNL     1      15.135  10.851  16.138  1.00  0.00     0.256 C
HETATM   28  C17 UNL     1      15.394  11.672  14.922  1.00  0.00     0.126 C
HETATM   29  O6  UNL     1      15.248   9.604  16.022  1.00  0.00    -0.266 OA
ENDBRANCH  26  27
ENDBRANCH   6  26
TORSDOF 9
ENDMDL