MODEL 2
REMARK VINA RESULT: -5.127886020      0.796      1.009
REMARK  8 active torsions:
REMARK  status: ('A' for Active; 'I' for Inactive)
REMARK    1  A    between atoms: N1_6  and  C6_7
REMARK    2  A    between atoms: C7_10  and  N3_11
REMARK    3  A    between atoms: C12_22  and  C13_23
REMARK    4  A    between atoms: C13_23  and  C14_24
REMARK    5  A    between atoms: C14_24  and  C17_27
REMARK    6  A    between atoms: C17_27  and  N6_28
REMARK    7  A    between atoms: N6_28  and  C19_30
REMARK    8  A    between atoms: C19_30  and  C20_31
ROOT
HETATM    1  C6  UNL     1      22.416  20.919  22.454  1.00  0.00     0.150 A
HETATM    2  N2  UNL     1      23.268  21.005  23.519  1.00  0.00    -0.174 N
ATOM      3  H2  UNL     1      23.901  20.225  23.694  1.00  0.00     0.186 HD
HETATM    4  C7  UNL     1      23.318  22.054  24.345  1.00  0.00     0.683 A
HETATM    5  N4  UNL     1      22.484  23.073  24.106  1.00  0.00    -0.174 N
ATOM      6  H4  UNL     1      22.496  23.891  24.716  1.00  0.00     0.186 HD
HETATM    7  C11 UNL     1      21.615  23.023  23.049  1.00  0.00     0.153 A
HETATM    8  N5  UNL     1      20.688  23.886  22.614  1.00  0.00    -0.330 N
ATOM      9  H5  UNL     1      20.493  24.788  23.047  1.00  0.00     0.168 HD
HETATM   10  C12 UNL     1      20.045  23.409  21.530  1.00  0.00     0.086 A
HETATM   11  N7  UNL     1      20.600  22.208  21.291  1.00  0.00    -0.335 N
HETATM   12  C22 UNL     1      20.193  21.288  20.216  1.00  0.00     0.158 C
HETATM   13  C23 UNL     1      21.563  21.936  22.193  1.00  0.00     0.125 A
ENDROOT
BRANCH  10  14
HETATM   14  C13 UNL     1      18.965  24.115  20.849  1.00  0.00     0.087 C
BRANCH  14  15
HETATM   15  C14 UNL     1      17.595  23.955  21.539  1.00  0.00    -0.015 C
HETATM   16  C15 UNL     1      17.163  22.548  21.594  1.00  0.00     0.017 C
HETATM   17  C16 UNL     1      16.577  24.660  20.592  1.00  0.00     0.017 C
BRANCH  15  18
HETATM   18  C17 UNL     1      17.678  24.758  22.773  1.00  0.00     0.281 C
BRANCH  18  19
HETATM   19  N6  UNL     1      17.044  24.306  23.958  1.00  0.00     0.090 N
HETATM   20  C18 UNL     1      18.010  24.046  24.986  1.00  0.00     0.310 C
BRANCH  19  21
HETATM   21  C19 UNL     1      16.067  25.265  24.376  1.00  0.00     0.349 C
BRANCH  21  22
HETATM   22  C20 UNL     1      14.651  24.988  24.054  1.00  0.00     0.266 C
HETATM   23  C21 UNL     1      14.216  26.101  23.075  1.00  0.00     0.092 C
HETATM   24  F3  UNL     1      13.808  25.042  25.129  1.00  0.00    -0.205 F
HETATM   25  F4  UNL     1      14.495  23.775  23.382  1.00  0.00    -0.205 F
ENDBRANCH  21  22
ENDBRANCH  19  21
ENDBRANCH  18  19
ENDBRANCH  15  18
ENDBRANCH  14  15
ENDBRANCH  10  14
BRANCH   1  26
HETATM   26  N1  UNL     1      22.530  19.765  21.668  1.00  0.00    -0.360 N
HETATM   27  C4  UNL     1      23.239  19.641  20.426  1.00  0.00     0.082 C
HETATM   28  C3  UNL     1      22.982  18.257  19.901  1.00  0.00     0.031 C
HETATM   29  C5  UNL     1      24.761  19.671  20.745  1.00  0.00     0.032 C
HETATM   30  C2  UNL     1      21.811  17.784  20.719  1.00  0.00     0.001 C
HETATM   31  C1  UNL     1      21.836  16.282  20.948  1.00  0.00     0.011 C
HETATM   32  C24 UNL     1      21.978  18.477  22.021  1.00  0.00     0.129 C
ENDBRANCH   1  26
BRANCH   4  33
HETATM   33  N3  UNL     1      24.231  22.080  25.453  1.00  0.00    -0.206 N
HETATM   34  C8  UNL     1      24.375  22.987  26.586  1.00  0.00     0.222 C
HETATM   35  C9  UNL     1      25.235  21.940  27.261  1.00  0.00     0.276 C
HETATM   36  F1  UNL     1      24.582  21.228  28.239  1.00  0.00    -0.203 F
HETATM   37  F2  UNL     1      26.487  22.414  27.620  1.00  0.00    -0.203 F
HETATM   38  C10 UNL     1      25.338  21.265  25.911  1.00  0.00     0.222 C
ENDBRANCH   4  33
TORSDOF 8
ENDMDL