MODEL 5
REMARK VINA RESULT: -5.654289720      3.505      6.277
REMARK  8 active torsions:
REMARK  status: ('A' for Active; 'I' for Inactive)
REMARK    1  A    between atoms: N1_2  and  C3_4
REMARK    2  A    between atoms: C5_6  and  C6_7
REMARK    3  A    between atoms: C6_7  and  O1_8
REMARK    4  A    between atoms: O1_8  and  C7_9
REMARK    5  A    between atoms: N4_19  and  C13_20
REMARK    6  A    between atoms: C13_20  and  C14_21
REMARK    7  A    between atoms: C18_27  and  C19_28
REMARK    8  A    between atoms: C19_28  and  N5_29
ROOT
HETATM    1  O1  UNL     1      17.686  19.083  19.433  1.00  0.00    -0.321 OA
ENDROOT
BRANCH   1   2
HETATM    2  C6  UNL     1      18.463  19.395  20.556  1.00  0.00     0.183 C
BRANCH   2   3
HETATM    3  C5  UNL     1      19.099  20.746  20.528  1.00  0.00     0.018 C
HETATM    4  C4  UNL     1      18.145  21.830  20.987  1.00  0.00     0.043 C
HETATM    5  C3  UNL     1      18.893  22.697  21.938  1.00  0.00     0.223 C
HETATM    6  C25 UNL     1      20.336  22.254  21.919  1.00  0.00     0.042 C
HETATM    7  C18 UNL     1      20.319  20.820  21.418  1.00  0.00     0.022 C
BRANCH   5   8
HETATM    8  N1  UNL     1      18.807  24.096  21.667  1.00  0.00     0.084 N
HETATM    9  C1  UNL     1      19.710  24.592  20.676  1.00  0.00     0.309 C
HETATM   10  C2  UNL     1      17.441  24.515  21.391  1.00  0.00     0.309 C
ENDBRANCH   5   8
BRANCH   7  11
HETATM   11  C19 UNL     1      21.522  20.529  20.561  1.00  0.00     0.277 C
BRANCH  11  12
HETATM   12  N5  UNL     1      22.329  19.445  21.026  1.00  0.00     0.089 N
HETATM   13  C20 UNL     1      22.267  19.187  22.423  1.00  0.00     0.278 C
HETATM   14  C21 UNL     1      23.324  18.115  22.724  1.00  0.00     0.109 C
HETATM   15  C22 UNL     1      22.789  16.843  22.100  1.00  0.00     0.246 C
HETATM   16  F3  UNL     1      21.522  16.658  22.640  1.00  0.00    -0.206 F
HETATM   17  F4  UNL     1      23.624  15.788  22.397  1.00  0.00    -0.206 F
HETATM   18  C23 UNL     1      22.747  17.044  20.621  1.00  0.00     0.109 C
HETATM   19  C24 UNL     1      22.171  18.331  20.155  1.00  0.00     0.278 C
ENDBRANCH  11  12
ENDBRANCH   7  11
ENDBRANCH   2   3
ENDBRANCH   1   2
BRANCH   1  20
HETATM   20  C7  UNL     1      16.902  17.917  19.535  1.00  0.00     0.228 A
HETATM   21  N2  UNL     1      15.664  17.803  20.056  1.00  0.00    -0.319 N
HETATM   22  C8  UNL     1      15.218  16.538  19.990  1.00  0.00     0.080 A
ATOM     23  H2  UNL     1      15.133  18.580  20.451  1.00  0.00     0.169 HD
HETATM   24  C9  UNL     1      14.062  15.890  20.369  1.00  0.00     0.042 A
HETATM   25  C12 UNL     1      16.236  15.818  19.392  1.00  0.00     0.138 A
HETATM   26  C10 UNL     1      13.877  14.518  20.170  1.00  0.00    -0.033 A
HETATM   27  C11 UNL     1      14.918  13.848  19.570  1.00  0.00     0.017 A
HETATM   28  C17 UNL     1      12.755  13.603  20.485  1.00  0.00     0.041 A
HETATM   29  N3  UNL     1      16.051  14.502  19.203  1.00  0.00    -0.343 N
HETATM   30  C15 UNL     1      14.583  12.404  19.418  1.00  0.00     0.058 A
ATOM     31  H3  UNL     1      16.799  13.966  18.762  1.00  0.00     0.167 HD
HETATM   32  C16 UNL     1      13.196  12.270  19.981  1.00  0.00     0.011 A
HETATM   33  N4  UNL     1      17.244  16.687  19.128  1.00  0.00    -0.292 N
BRANCH  33  34
HETATM   34  C13 UNL     1      18.506  16.358  18.499  1.00  0.00     0.205 C
BRANCH  34  35
HETATM   35  C14 UNL     1      19.322  15.566  19.498  1.00  0.00     0.371 C
HETATM   36  F1  UNL     1      19.467  16.248  20.693  1.00  0.00    -0.213 F
HETATM   37  F2  UNL     1      20.570  15.273  18.989  1.00  0.00    -0.213 F
ENDBRANCH  34  35
ENDBRANCH  33  34
ENDBRANCH   1  20
TORSDOF 8
ENDMDL