MODEL 2
REMARK VINA RESULT: -5.711782317      4.302      7.780
REMARK  9 active torsions:
REMARK  status: ('A' for Active; 'I' for Inactive)
REMARK    1  A    between atoms: C2_2  and  C3_4
REMARK    2  A    between atoms: C5_10  and  N3_11
REMARK    3  A    between atoms: C8_14  and  O2_15
REMARK    4  A    between atoms: O2_15  and  C9_16
REMARK    5  A    between atoms: C9_16  and  C10_17
REMARK    6  A    between atoms: C11_18  and  C12_19
REMARK    7  A    between atoms: C12_19  and  N4_20
REMARK    8  A    between atoms: N4_20  and  C13_21
REMARK    9  A    between atoms: N4_20  and  C19_31
ROOT
HETATM    1  C3  UNL     1      19.040  17.251  20.134  1.00  0.00     0.051 A
HETATM    2  C4  UNL     1      19.139  18.620  20.158  1.00  0.00     0.124 A
HETATM    3  N1  UNL     1      18.029  19.353  20.047  1.00  0.00    -0.309 N
ATOM      4  H1  UNL     1      18.112  20.370  20.066  1.00  0.00     0.186 HD
HETATM    5  N2  UNL     1      16.830  18.822  19.913  1.00  0.00    -0.285 N
ATOM      6  H2  UNL     1      16.009  19.419  19.831  1.00  0.00     0.188 HD
HETATM    7  C5  UNL     1      16.701  17.475  19.887  1.00  0.00     0.140 A
HETATM    8  C24 UNL     1      17.800  16.670  19.997  1.00  0.00     0.105 A
HETATM    9  C25 UNL     1      17.634  15.241  19.967  1.00  0.00     0.104 C
HETATM   10  N5  UNL     1      17.485  14.076  19.959  1.00  0.00    -0.191 NA
ENDROOT
BRANCH   1  11
HETATM   11  C2  UNL     1      20.245  16.437  20.255  1.00  0.00     0.158 C
HETATM   12  C1  UNL     1      21.094  16.597  21.484  1.00  0.00     0.097 C
HETATM   13  O1  UNL     1      20.615  15.606  19.389  1.00  0.00    -0.293 OA
ENDBRANCH   1  11
BRANCH   7  14
HETATM   14  N3  UNL     1      15.383  16.919  19.739  1.00  0.00    -0.365 N
HETATM   15  C6  UNL     1      14.819  16.548  18.460  1.00  0.00     0.127 C
HETATM   16  C7  UNL     1      13.461  17.239  18.248  1.00  0.00     0.052 C
HETATM   17  C8  UNL     1      12.643  17.216  19.476  1.00  0.00     0.125 C
HETATM   18  C22 UNL     1      13.230  16.121  20.386  1.00  0.00     0.052 C
HETATM   19  C23 UNL     1      14.536  16.699  20.913  1.00  0.00     0.127 C
BRANCH  17  20
HETATM   20  O2  UNL     1      12.524  18.311  20.220  1.00  0.00    -0.374 OA
BRANCH  20  21
HETATM   21  C9  UNL     1      12.780  19.537  19.679  1.00  0.00     0.261 C
BRANCH  21  22
HETATM   22  C10 UNL     1      13.228  20.456  20.728  1.00  0.00    -0.079 C
HETATM   23  C11 UNL     1      13.592  21.202  21.612  1.00  0.00    -0.085 C
BRANCH  23  24
HETATM   24  C12 UNL     1      14.032  22.092  22.712  1.00  0.00     0.218 C
BRANCH  24  25
HETATM   25  N4  UNL     1      14.842  23.193  22.206  1.00  0.00    -0.360 N
BRANCH  25  26
HETATM   26  C13 UNL     1      16.254  23.232  22.462  1.00  0.00     0.113 A
HETATM   27  C14 UNL     1      17.139  22.740  21.526  1.00  0.00     0.149 A
HETATM   28  F1  UNL     1      16.620  22.223  20.365  1.00  0.00    -0.203 F
HETATM   29  C15 UNL     1      18.507  22.753  21.721  1.00  0.00     0.090 A
HETATM   30  C16 UNL     1      19.032  23.267  22.875  1.00  0.00     0.161 A
HETATM   31  F2  UNL     1      20.366  23.304  23.114  1.00  0.00    -0.203 F
HETATM   32  C17 UNL     1      18.147  23.766  23.824  1.00  0.00     0.195 A
HETATM   33  F3  UNL     1      18.684  24.267  24.954  1.00  0.00    -0.199 F
HETATM   34  C18 UNL     1      16.776  23.748  23.618  1.00  0.00     0.187 A
HETATM   35  F4  UNL     1      15.921  24.238  24.554  1.00  0.00    -0.200 F
ENDBRANCH  25  26
BRANCH  25  36
HETATM   36  C19 UNL     1      14.277  24.268  21.441  1.00  0.00     0.085 A
HETATM   37  C20 UNL     1      13.604  25.328  22.322  1.00  0.00     0.027 A
HETATM   38  C21 UNL     1      14.796  25.653  21.516  1.00  0.00     0.027 A
ENDBRANCH  25  36
ENDBRANCH  24  25
ENDBRANCH  23  24
ENDBRANCH  21  22
ENDBRANCH  20  21
ENDBRANCH  17  20
ENDBRANCH   7  14
TORSDOF 9
ENDMDL