MODEL 2
REMARK VINA RESULT: -5.433446832      5.911      8.957
REMARK  10 active torsions:
REMARK  status: ('A' for Active; 'I' for Inactive)
REMARK    1  A    between atoms: C5_6  and  C6_7
REMARK    2  A    between atoms: C5_6  and  C21_28
REMARK    3  A    between atoms: C6_7  and  O3_9
REMARK    4  A    between atoms: O3_9  and  C7_10
REMARK    5  A    between atoms: C10_13  and  C11_14
REMARK    6  A    between atoms: C11_14  and  O5_16
REMARK    7  A    between atoms: O5_16  and  C12_17
REMARK    8  A    between atoms: C12_17  and  C13_18
REMARK    9  A    between atoms: C13_18  and  C14_19
REMARK   10  A    between atoms: C14_19  and  N1_20
ROOT
HETATM    1  C7  UNL     1      17.724  21.569  20.734  1.00  0.00     0.132 C
HETATM    2  C8  UNL     1      17.162  20.697  19.646  1.00  0.00     0.033 C
HETATM    3  C9  UNL     1      18.188  19.621  19.337  1.00  0.00     0.017 C
HETATM    4  C10 UNL     1      18.930  19.299  20.617  1.00  0.00     0.085 C
HETATM    5  C19 UNL     1      19.856  20.436  21.010  1.00  0.00     0.017 C
HETATM    6  C20 UNL     1      19.208  21.723  20.480  1.00  0.00     0.033 C
ENDROOT
BRANCH   1   7
HETATM    7  O3  UNL     1      17.059  22.788  20.889  1.00  0.00    -0.313 OA
BRANCH   7   8
HETATM    8  C6  UNL     1      16.367  23.154  22.034  1.00  0.00     0.306 C
HETATM    9  O2  UNL     1      15.519  22.323  22.450  1.00  0.00    -0.261 OA
BRANCH   8  10
HETATM   10  C5  UNL     1      16.622  24.469  22.733  1.00  0.00     0.277 C
HETATM   11  O1  UNL     1      15.402  24.951  23.109  1.00  0.00    -0.359 OA
HETATM   12  C4  UNL     1      15.336  26.218  23.569  1.00  0.00     0.178 C
HETATM   13  C2  UNL     1      16.103  27.237  22.769  1.00  0.00    -0.023 C
HETATM   14  C1  UNL     1      15.261  27.699  21.592  1.00  0.00     0.017 C
HETATM   15  C3  UNL     1      16.274  28.464  23.667  1.00  0.00     0.017 C
HETATM   16  C23 UNL     1      17.406  26.736  22.253  1.00  0.00     0.052 C
HETATM   17  C22 UNL     1      17.272  25.355  21.713  1.00  0.00     0.225 C
HETATM   18  F4  UNL     1      18.495  24.904  21.303  1.00  0.00    -0.245 F
BRANCH  10  19
HETATM   19  C21 UNL     1      17.528  24.133  23.894  1.00  0.00     0.431 C
HETATM   20  F1  UNL     1      16.733  23.448  24.824  1.00  0.00    -0.167 F
HETATM   21  F2  UNL     1      18.514  23.283  23.492  1.00  0.00    -0.167 F
HETATM   22  F3  UNL     1      18.048  25.204  24.530  1.00  0.00    -0.167 F
ENDBRANCH  10  19
ENDBRANCH   8  10
ENDBRANCH   7   8
ENDBRANCH   1   7
BRANCH   4  23
HETATM   23  C11 UNL     1      19.773  18.096  20.451  1.00  0.00     0.263 C
HETATM   24  O4  UNL     1      19.305  17.099  19.855  1.00  0.00    -0.265 OA
BRANCH  23  25
HETATM   25  O5  UNL     1      21.069  18.001  20.922  1.00  0.00    -0.321 OA
BRANCH  25  26
HETATM   26  C12 UNL     1      21.495  16.912  21.753  1.00  0.00     0.180 C
BRANCH  26  27
HETATM   27  C13 UNL     1      22.295  17.449  22.919  1.00  0.00     0.057 C
BRANCH  27  28
HETATM   28  C14 UNL     1      22.886  18.758  22.508  1.00  0.00     0.274 C
BRANCH  28  29
HETATM   29  N1  UNL     1      22.900  19.711  23.568  1.00  0.00     0.092 N
HETATM   30  C15 UNL     1      23.703  19.276  24.700  1.00  0.00     0.298 C
HETATM   31  C16 UNL     1      23.992  20.364  25.680  1.00  0.00     0.198 C
HETATM   32  O6  UNL     1      23.154  21.465  25.556  1.00  0.00    -0.388 OA
HETATM   33  C17 UNL     1      23.159  22.025  24.307  1.00  0.00     0.198 C
HETATM   34  C18 UNL     1      23.374  21.008  23.203  1.00  0.00     0.298 C
ENDBRANCH  28  29
ENDBRANCH  27  28
ENDBRANCH  26  27
ENDBRANCH  25  26
ENDBRANCH  23  25
ENDBRANCH   4  23
TORSDOF 10
ENDMDL