MODEL 5
REMARK VINA RESULT: -5.493671718      6.527      8.200
REMARK  8 active torsions:
REMARK  status: ('A' for Active; 'I' for Inactive)
REMARK    1  A    between atoms: C4_4  and  N1_5
REMARK    2  A    between atoms: C9_13  and  N3_14
REMARK    3  A    between atoms: C12_17  and  C13_18
REMARK       I    between atoms: C13_18  and  N4_20
REMARK    4  A    between atoms: N4_20  and  C14_21
REMARK    5  A    between atoms: N4_20  and  C20_31
REMARK    6  A    between atoms: C14_21  and  C15_22
REMARK    7  A    between atoms: C15_22  and  C16_25
REMARK    8  A    between atoms: C16_25  and  C19_28
ROOT
HETATM    1  N3  UNL     1      16.905  19.978  20.171  1.00  0.00    -0.217 N
HETATM    2  C10 UNL     1      17.725  19.033  19.443  1.00  0.00     0.142 C
HETATM    3  C11 UNL     1      17.302  17.602  19.809  1.00  0.00     0.034 C
HETATM    4  C12 UNL     1      15.861  17.504  19.440  1.00  0.00     0.081 C
HETATM    5  C23 UNL     1      15.091  18.323  20.466  1.00  0.00     0.034 C
HETATM    6  C24 UNL     1      15.467  19.775  20.174  1.00  0.00     0.142 C
ENDROOT
BRANCH   4   7
HETATM    7  C13 UNL     1      15.312  16.171  19.260  1.00  0.00     0.224 C
HETATM    8  O2  UNL     1      15.896  15.205  19.870  1.00  0.00    -0.273 OA
HETATM    9  N4  UNL     1      14.165  15.810  18.455  1.00  0.00    -0.342 N
BRANCH   9  10
HETATM   10  C14 UNL     1      13.830  14.402  18.438  1.00  0.00     0.206 C
BRANCH  10  11
HETATM   11  C15 UNL     1      12.704  13.940  19.251  1.00  0.00     0.271 C
HETATM   12  F1  UNL     1      11.496  14.166  18.574  1.00  0.00    -0.203 F
HETATM   13  F2  UNL     1      12.622  14.622  20.484  1.00  0.00    -0.203 F
BRANCH  11  14
HETATM   14  C16 UNL     1      12.692  12.492  19.648  1.00  0.00     0.079 C
HETATM   15  C17 UNL     1      13.983  11.772  19.376  1.00  0.00     0.027 C
HETATM   16  C18 UNL     1      11.660  11.830  18.702  1.00  0.00     0.027 C
BRANCH  14  17
HETATM   17  C19 UNL     1      12.229  12.176  21.025  1.00  0.00     0.366 C
HETATM   18  F3  UNL     1      11.024  11.525  21.102  1.00  0.00    -0.213 F
HETATM   19  F4  UNL     1      13.161  11.322  21.622  1.00  0.00    -0.213 F
ENDBRANCH  14  17
ENDBRANCH  11  14
ENDBRANCH  10  11
ENDBRANCH   9  10
BRANCH   9  20
HETATM   20  C20 UNL     1      13.552  16.838  17.708  1.00  0.00     0.079 C
HETATM   21  C21 UNL     1      13.368  16.538  16.243  1.00  0.00     0.032 C
HETATM   22  C22 UNL     1      12.227  17.383  18.186  1.00  0.00     0.032 C
ENDBRANCH   9  20
ENDBRANCH   4   7
BRANCH   1  23
HETATM   23  C9  UNL     1      17.524  21.057  20.851  1.00  0.00     0.682 A
HETATM   24  N2  UNL     1      16.839  22.091  21.349  1.00  0.00    -0.177 N
HETATM   25  C4  UNL     1      17.447  23.119  22.001  1.00  0.00     0.121 A
ATOM     26  H2  UNL     1      15.826  22.111  21.236  1.00  0.00     0.186 HD
HETATM   27  C3  UNL     1      18.811  23.081  22.145  1.00  0.00     0.074 A
HETATM   28  C2  UNL     1      19.532  22.010  21.631  1.00  0.00     0.026 A
HETATM   29  C1  UNL     1      21.017  21.982  21.797  1.00  0.00     0.069 C
HETATM   30  N5  UNL     1      18.857  21.036  21.002  1.00  0.00    -0.196 N
ATOM     31  H5  UNL     1      19.379  20.247  20.623  1.00  0.00     0.184 HD
BRANCH  25  32
HETATM   32  N1  UNL     1      16.685  24.194  22.514  1.00  0.00    -0.363 N
HETATM   33  C5  UNL     1      15.609  24.045  23.440  1.00  0.00     0.150 C
HETATM   34  C6  UNL     1      15.862  25.022  24.583  1.00  0.00     0.187 C
HETATM   35  O1  UNL     1      17.106  25.606  24.494  1.00  0.00    -0.388 OA
HETATM   36  C7  UNL     1      17.290  26.352  23.333  1.00  0.00     0.187 C
HETATM   37  C8  UNL     1      17.010  25.540  22.082  1.00  0.00     0.150 C
ENDBRANCH  25  32
ENDBRANCH   1  23
TORSDOF 8
ENDMDL