MODEL 4
REMARK VINA RESULT: -5.678530553      4.872     10.525
REMARK  7 active torsions:
REMARK  status: ('A' for Active; 'I' for Inactive)
REMARK    1  A    between atoms: C2_2  and  C4_4
REMARK    2  A    between atoms: C5_5  and  C6_6
REMARK    3  A    between atoms: C6_6  and  O1_7
REMARK    4  A    between atoms: O1_7  and  C7_8
REMARK    5  A    between atoms: C8_11  and  C9_12
REMARK    6  A    between atoms: C12_17  and  N2_18
REMARK    7  A    between atoms: C23_34  and  N5_35
ROOT
HETATM    1  C7  UNL     1      19.104  17.861  20.156  1.00  0.00     0.170 A
HETATM    2  N1  UNL     1      19.124  19.160  20.537  1.00  0.00    -0.334 N
ATOM      3  H1  UNL     1      19.997  19.529  20.916  1.00  0.00     0.168 HD
HETATM    4  C8  UNL     1      18.080  19.994  20.453  1.00  0.00     0.076 A
HETATM    5  C10 UNL     1      16.896  19.510  19.944  1.00  0.00     0.033 A
HETATM    6  C11 UNL     1      16.814  18.199  19.541  1.00  0.00     0.036 A
HETATM    7  C12 UNL     1      17.935  17.359  19.647  1.00  0.00     0.082 A
ENDROOT
BRANCH   1   8
HETATM    8  O1  UNL     1      20.216  17.040  20.263  1.00  0.00    -0.334 OA
BRANCH   8   9
HETATM    9  C6  UNL     1      21.442  17.607  19.826  1.00  0.00     0.182 C
BRANCH   9  10
HETATM   10  C5  UNL     1      22.517  17.448  20.810  1.00  0.00     0.022 C
HETATM   11  C4  UNL     1      23.205  18.631  21.320  1.00  0.00     0.035 C
HETATM   12  C23 UNL     1      24.064  18.047  22.420  1.00  0.00     0.298 C
HETATM   13  C22 UNL     1      23.520  16.697  22.749  1.00  0.00     0.275 C
HETATM   14  C21 UNL     1      22.170  16.611  22.019  1.00  0.00     0.088 C
HETATM   15  F3  UNL     1      24.264  15.641  22.328  1.00  0.00    -0.204 F
HETATM   16  F4  UNL     1      23.334  16.509  24.121  1.00  0.00    -0.204 F
BRANCH  11  17
HETATM   17  C2  UNL     1      22.476  19.833  21.734  1.00  0.00    -0.016 C
HETATM   18  C1  UNL     1      22.558  21.011  20.783  1.00  0.00     0.010 C
HETATM   19  C3  UNL     1      22.709  20.351  23.098  1.00  0.00     0.010 C
ENDBRANCH  11  17
BRANCH  12  20
HETATM   20  N5  UNL     1      25.449  18.142  22.209  1.00  0.00     0.090 N
HETATM   21  C24 UNL     1      25.976  18.880  21.148  1.00  0.00     0.310 C
HETATM   22  C25 UNL     1      26.101  18.527  23.448  1.00  0.00     0.310 C
ENDBRANCH  12  20
ENDBRANCH   9  10
ENDBRANCH   8   9
ENDBRANCH   1   8
BRANCH   7  23
HETATM   23  N2  UNL     1      17.815  16.021  19.258  1.00  0.00    -0.373 N
HETATM   24  C13 UNL     1      18.242  15.756  17.893  1.00  0.00     0.124 C
HETATM   25  C14 UNL     1      19.000  14.415  17.956  1.00  0.00     0.026 C
HETATM   26  C15 UNL     1      18.010  13.384  17.459  1.00  0.00     0.061 C
HETATM   27  C16 UNL     1      16.895  13.191  18.378  1.00  0.00     0.037 A
HETATM   28  C17 UNL     1      16.601  13.896  19.503  1.00  0.00     0.001 A
HETATM   29  N4  UNL     1      15.970  12.239  18.219  1.00  0.00    -0.300 N
HETATM   30  C18 UNL     1      15.450  13.339  20.040  1.00  0.00     0.118 A
HETATM   31  C20 UNL     1      17.280  15.033  20.134  1.00  0.00     0.165 C
HETATM   32  N3  UNL     1      15.083  12.316  19.224  1.00  0.00    -0.309 N
ATOM     33  H3  UNL     1      14.273  11.711  19.352  1.00  0.00     0.186 HD
HETATM   34  C19 UNL     1      15.944  11.282  17.130  1.00  0.00     0.177 C
ENDBRANCH   7  23
BRANCH   4  35
HETATM   35  C9  UNL     1      18.176  21.415  20.894  1.00  0.00     0.403 C
HETATM   36  F1  UNL     1      19.240  21.517  21.780  1.00  0.00    -0.208 F
HETATM   37  F2  UNL     1      16.995  21.768  21.528  1.00  0.00    -0.208 F
ENDBRANCH   4  35
TORSDOF 7
ENDMDL