MODEL 2
REMARK VINA RESULT: -5.267118687      4.714      8.953
REMARK  9 active torsions:
REMARK  status: ('A' for Active; 'I' for Inactive)
REMARK    1  A    between atoms: C2_2  and  C3_3
REMARK    2  A    between atoms: C4_5  and  C5_6
REMARK       I    between atoms: N2_11  and  C6_12
REMARK    3  A    between atoms: C6_12  and  C7_14
REMARK    4  A    between atoms: C7_14  and  O2_15
REMARK    5  A    between atoms: O2_15  and  C8_16
REMARK    6  A    between atoms: C8_16  and  C9_18
REMARK    7  A    between atoms: C10_19  and  C11_20
REMARK    8  A    between atoms: C14_24  and  O4_25
REMARK    9  A    between atoms: C16_27  and  O5_28
ROOT
HETATM    1  O2  UNL     1      14.653  21.582  20.693  1.00  0.00    -0.309 OA
ENDROOT
BRANCH   1   2
HETATM    2  C7  UNL     1      14.674  21.913  22.065  1.00  0.00     0.283 C
BRANCH   2   3
HETATM    3  C6  UNL     1      15.520  23.053  22.398  1.00  0.00     0.263 C
HETATM    4  N2  UNL     1      16.929  23.037  22.105  1.00  0.00    -0.243 N
HETATM    5  C3  UNL     1      17.778  24.161  22.457  1.00  0.00     0.178 C
HETATM    6  N1  UNL     1      17.570  22.006  21.467  1.00  0.00    -0.287 N
HETATM    7  S1  UNL     1      19.370  23.235  22.565  1.00  0.00    -0.082 SA
HETATM    8  C4  UNL     1      18.812  21.885  21.545  1.00  0.00     0.129 C
ATOM      9  H1  UNL     1      17.030  21.332  20.925  1.00  0.00     0.188 HD
HETATM   10  O1  UNL     1      15.004  24.041  22.938  1.00  0.00    -0.269 OA
BRANCH   5  11
HETATM   11  C2  UNL     1      17.471  24.800  23.775  1.00  0.00     0.034 C
HETATM   12  C1  UNL     1      18.032  24.093  24.958  1.00  0.00     0.008 C
ENDBRANCH   5  11
BRANCH   8  13
HETATM   13  C5  UNL     1      19.691  20.872  20.945  1.00  0.00     0.411 C
HETATM   14  F1  UNL     1      20.891  20.698  21.595  1.00  0.00    -0.207 F
HETATM   15  F2  UNL     1      19.091  19.612  20.927  1.00  0.00    -0.207 F
ENDBRANCH   8  13
ENDBRANCH   2   3
ENDBRANCH   1   2
BRANCH   1  16
HETATM   16  C8  UNL     1      14.944  20.224  20.331  1.00  0.00     0.283 C
HETATM   17  O3  UNL     1      16.047  20.100  19.793  1.00  0.00    -0.260 OA
BRANCH  16  18
HETATM   18  C9  UNL     1      13.973  19.229  20.622  1.00  0.00     0.083 C
HETATM   19  C10 UNL     1      13.953  17.948  20.621  1.00  0.00     0.017 C
BRANCH  19  20
HETATM   20  C11 UNL     1      14.858  16.875  20.331  1.00  0.00    -0.032 A
HETATM   21  C12 UNL     1      16.222  16.947  20.199  1.00  0.00     0.033 A
HETATM   22  C13 UNL     1      17.014  15.807  20.004  1.00  0.00     0.048 A
HETATM   23 BR1  UNL     1      18.901  15.991  19.831  1.00  0.00    -0.048 Br
HETATM   24  C14 UNL     1      16.445  14.560  19.936  1.00  0.00     0.118 A
HETATM   25  C16 UNL     1      15.081  14.448  20.063  1.00  0.00     0.103 A
HETATM   26  C18 UNL     1      14.323  15.561  20.252  1.00  0.00     0.051 A
BRANCH  24  27
HETATM   27  O4  UNL     1      17.249  13.455  19.745  1.00  0.00    -0.352 OA
HETATM   28  C15 UNL     1      17.416  12.950  18.430  1.00  0.00     0.210 C
ENDBRANCH  24  27
BRANCH  25  29
HETATM   29  O5  UNL     1      14.516  13.193  19.992  1.00  0.00    -0.353 OA
HETATM   30  C17 UNL     1      13.397  12.759  20.703  1.00  0.00     0.210 C
ENDBRANCH  25  29
ENDBRANCH  19  20
ENDBRANCH  16  18
ENDBRANCH   1  16
TORSDOF 9
ENDMDL