MODEL 5
REMARK VINA RESULT: -5.577541560      1.523      2.299
REMARK  9 active torsions:
REMARK  status: ('A' for Active; 'I' for Inactive)
REMARK    1  A    between atoms: O1_2  and  C2_3
REMARK    2  A    between atoms: C2_3  and  C4_5
REMARK    3  A    between atoms: C2_3  and  C24_35
REMARK    4  A    between atoms: C4_5  and  N1_6
REMARK    5  A    between atoms: N2_9  and  C7_10
REMARK    6  A    between atoms: N3_12  and  C9_13
REMARK    7  A    between atoms: C12_20  and  C13_21
REMARK    8  A    between atoms: C13_21  and  C16_24
REMARK    9  A    between atoms: C16_24  and  C17_25
ROOT
HETATM    1  C7  UNL     1      16.567  17.365  19.843  1.00  0.00     0.276 C
HETATM    2  C8  UNL     1      17.369  18.426  19.119  1.00  0.00     0.180 C
HETATM    3  N3  UNL     1      17.147  19.548  20.048  1.00  0.00    -0.213 N
HETATM    4  C20 UNL     1      15.736  19.597  20.239  1.00  0.00     0.180 C
HETATM    5  C21 UNL     1      15.261  18.133  20.064  1.00  0.00     0.223 C
HETATM    6  F1  UNL     1      14.572  17.683  21.151  1.00  0.00    -0.245 F
ENDROOT
BRANCH   3   7
HETATM    7  C9  UNL     1      18.177  20.317  20.605  1.00  0.00     0.683 A
HETATM    8  N4  UNL     1      17.908  21.561  21.119  1.00  0.00    -0.181 N
HETATM    9  C10 UNL     1      18.883  22.284  21.681  1.00  0.00     0.094 A
ATOM     10  H4  UNL     1      16.961  21.936  21.072  1.00  0.00     0.185 HD
HETATM   11  C11 UNL     1      18.621  23.659  22.238  1.00  0.00     0.089 C
HETATM   12  N5  UNL     1      20.106  21.758  21.724  1.00  0.00    -0.334 N
HETATM   13  C12 UNL     1      20.473  20.574  21.261  1.00  0.00     0.106 A
ATOM     14  H5  UNL     1      20.833  22.325  22.157  1.00  0.00     0.168 HD
HETATM   15  N6  UNL     1      19.423  19.873  20.690  1.00  0.00    -0.180 N
ATOM     16  H6  UNL     1      19.623  18.949  20.307  1.00  0.00     0.185 HD
BRANCH  13  17
HETATM   17  C13 UNL     1      21.764  19.925  21.283  1.00  0.00     0.012 C
HETATM   18  C14 UNL     1      22.321  20.087  22.742  1.00  0.00     0.023 C
HETATM   19  C15 UNL     1      22.721  20.894  20.512  1.00  0.00     0.023 C
BRANCH  17  20
HETATM   20  C16 UNL     1      22.034  18.551  20.933  1.00  0.00     0.020 C
BRANCH  20  21
HETATM   21  C17 UNL     1      21.768  17.350  21.711  1.00  0.00    -0.022 C
HETATM   22  C18 UNL     1      22.894  16.395  21.897  1.00  0.00     0.009 C
HETATM   23  C19 UNL     1      20.651  16.520  21.014  1.00  0.00     0.009 C
ENDBRANCH  20  21
ENDBRANCH  17  20
ENDBRANCH  13  17
ENDBRANCH   3   7
BRANCH   1  24
HETATM   24  N2  UNL     1      16.366  16.193  19.035  1.00  0.00     0.101 N
HETATM   25  C6  UNL     1      16.315  15.005  19.862  1.00  0.00     0.303 C
HETATM   26  C5  UNL     1      14.951  14.415  19.955  1.00  0.00     0.302 C
HETATM   27  N1  UNL     1      14.476  13.961  18.627  1.00  0.00     0.095 N
HETATM   28  C23 UNL     1      14.921  14.903  17.634  1.00  0.00     0.302 C
HETATM   29  C22 UNL     1      15.093  16.260  18.321  1.00  0.00     0.303 C
BRANCH  27  30
HETATM   30  C4  UNL     1      13.053  13.858  18.684  1.00  0.00     0.319 C
BRANCH  30  31
HETATM   31  C2  UNL     1      12.400  12.539  18.518  1.00  0.00     0.180 C
HETATM   32  C3  UNL     1      11.026  12.519  17.936  1.00  0.00     0.057 C
BRANCH  31  33
HETATM   33  O1  UNL     1      13.236  11.545  18.099  1.00  0.00    -0.374 OA
HETATM   34  C1  UNL     1      13.276  11.212  16.787  1.00  0.00     0.203 C
ENDBRANCH  31  33
BRANCH  31  35
HETATM   35  C24 UNL     1      12.124  12.105  20.038  1.00  0.00     0.419 C
HETATM   36  F2  UNL     1      11.886  13.240  20.774  1.00  0.00    -0.168 F
HETATM   37  F3  UNL     1      11.022  11.310  20.008  1.00  0.00    -0.168 F
HETATM   38  F4  UNL     1      13.272  11.493  20.443  1.00  0.00    -0.168 F
ENDBRANCH  31  35
ENDBRANCH  30  31
ENDBRANCH  27  30
ENDBRANCH   1  24
TORSDOF 9
ENDMDL