MODEL 3
REMARK VINA RESULT: -6.247837414      5.438      9.452
REMARK  7 active torsions:
REMARK  status: ('A' for Active; 'I' for Inactive)
REMARK    1  A    between atoms: C2_2  and  C3_3
REMARK    2  A    between atoms: C8_10  and  N1_11
REMARK    3  A    between atoms: N2_14  and  C11_15
REMARK    4  A    between atoms: C14_22  and  O1_23
REMARK    5  A    between atoms: O1_23  and  C15_24
REMARK    6  A    between atoms: C15_24  and  C17_26
REMARK    7  A    between atoms: C17_26  and  O2_27
ROOT
HETATM    1  N1  UNL     1      18.863  22.749  21.186  1.00  0.00    -0.360 N
HETATM    2  C9  UNL     1      18.896  23.609  20.031  1.00  0.00     0.145 C
HETATM    3  C10 UNL     1      18.680  24.973  20.597  1.00  0.00     0.146 C
HETATM    4  N2  UNL     1      17.809  24.708  21.735  1.00  0.00    -0.347 N
HETATM    5  C20 UNL     1      17.973  23.327  22.142  1.00  0.00     0.251 C
ENDROOT
BRANCH   1   6
HETATM    6  C8  UNL     1      19.629  21.547  21.247  1.00  0.00     0.081 A
HETATM    7  C3  UNL     1      20.886  21.481  21.800  1.00  0.00     0.010 A
HETATM    8  C4  UNL     1      21.564  20.255  21.811  1.00  0.00     0.132 A
HETATM    9  F1  UNL     1      22.806  20.246  22.369  1.00  0.00    -0.205 F
HETATM   10  C5  UNL     1      20.968  19.149  21.274  1.00  0.00    -0.002 A
HETATM   11  C6  UNL     1      19.716  19.196  20.720  1.00  0.00     0.063 A
HETATM   12  C24 UNL     1      21.711  17.853  21.296  1.00  0.00     0.046 C
HETATM   13  C7  UNL     1      19.045  20.418  20.712  1.00  0.00     0.158 A
HETATM   14  C21 UNL     1      19.118  17.995  20.161  1.00  0.00     0.197 C
HETATM   15  F2  UNL     1      17.822  20.462  20.170  1.00  0.00    -0.203 F
HETATM   16  O3  UNL     1      17.915  18.033  19.788  1.00  0.00    -0.289 OA
HETATM   17  C22 UNL     1      19.918  16.754  20.037  1.00  0.00     0.245 C
HETATM   18  F4  UNL     1      20.743  16.775  18.942  1.00  0.00    -0.241 F
HETATM   19  C23 UNL     1      20.777  16.671  21.300  1.00  0.00     0.050 C
BRANCH   7  20
HETATM   20  C2  UNL     1      21.482  22.697  22.363  1.00  0.00     0.040 C
HETATM   21  C1  UNL     1      22.437  23.386  21.433  1.00  0.00     0.010 C
ENDBRANCH   7  20
ENDBRANCH   1   6
BRANCH   4  22
HETATM   22  C11 UNL     1      16.959  25.696  22.300  1.00  0.00     0.149 A
HETATM   23  N3  UNL     1      17.439  26.681  23.075  1.00  0.00    -0.330 N
HETATM   24  C12 UNL     1      16.691  27.646  23.639  1.00  0.00     0.080 A
ATOM     25  H3  UNL     1      18.444  26.700  23.248  1.00  0.00     0.168 HD
HETATM   26  C13 UNL     1      17.321  28.708  24.492  1.00  0.00     0.089 C
HETATM   27  N4  UNL     1      15.379  27.612  23.406  1.00  0.00    -0.324 N
HETATM   28  C14 UNL     1      14.775  26.676  22.647  1.00  0.00     0.187 A
ATOM     29  H4  UNL     1      14.797  28.337  23.827  1.00  0.00     0.169 HD
HETATM   30  C19 UNL     1      15.580  25.706  22.088  1.00  0.00     0.210 A
HETATM   31  F3  UNL     1      15.037  24.738  21.318  1.00  0.00    -0.197 F
BRANCH  28  32
HETATM   32  O1  UNL     1      13.415  26.656  22.416  1.00  0.00    -0.326 OA
BRANCH  32  33
HETATM   33  C15 UNL     1      12.499  25.839  23.121  1.00  0.00     0.150 C
HETATM   34  C16 UNL     1      12.000  24.675  22.310  1.00  0.00     0.042 C
BRANCH  33  35
HETATM   35  C17 UNL     1      13.004  25.407  24.451  1.00  0.00     0.199 C
BRANCH  35  36
HETATM   36  O2  UNL     1      12.145  25.816  25.450  1.00  0.00    -0.393 OA
HETATM   37  C18 UNL     1      11.476  24.771  26.037  1.00  0.00     0.201 C
ENDBRANCH  35  36
ENDBRANCH  33  35
ENDBRANCH  32  33
ENDBRANCH  28  32
ENDBRANCH   4  22
TORSDOF 7
ENDMDL