MODEL 3
REMARK VINA RESULT: -6.233174432      2.425      8.414
REMARK  13 active torsions:
REMARK  status: ('A' for Active; 'I' for Inactive)
REMARK    1  A    between atoms: N1_2  and  C3_4
REMARK    2  A    between atoms: C4_7  and  N3_8
REMARK    3  A    between atoms: N3_8  and  C5_10
REMARK    4  A    between atoms: C6_14  and  O1_15
REMARK    5  A    between atoms: O1_15  and  C7_16
REMARK    6  A    between atoms: C7_16  and  C8_17
REMARK    7  A    between atoms: C8_17  and  N5_18
REMARK    8  A    between atoms: N6_21  and  C11_22
REMARK    9  A    between atoms: C11_22  and  C12_23
REMARK   10  A    between atoms: C15_26  and  C16_27
REMARK   11  A    between atoms: C20_41  and  N12_42
REMARK   12  A    between atoms: C22_47  and  N13_48
REMARK   13  A    between atoms: C23_54  and  N15_55
ROOT
HETATM    1  C5  UNL     1      31.911  93.004   0.370  1.00  0.00     0.333 C
HETATM    2  N4  UNL     1      31.529  93.223  -1.037  1.00  0.00    -0.023 N
ATOM      3  H41 UNL     1      30.707  92.697  -1.333  1.00  0.00     0.282 HD
ATOM      4  H42 UNL     1      32.173  92.815  -1.714  1.00  0.00     0.282 HD
HETATM    5  C6  UNL     1      31.380  94.713  -1.147  1.00  0.00     0.354 C
HETATM    6  C20 UNL     1      30.053  95.050  -0.465  1.00  0.00     0.241 C
HETATM    7  C21 UNL     1      29.614  93.889   0.393  1.00  0.00     0.074 C
HETATM    8  C22 UNL     1      30.777  93.500   1.265  1.00  0.00     0.236 C
ENDROOT
BRANCH   5   9
HETATM    9  O1  UNL     1      32.455  95.325  -0.638  1.00  0.00    -0.356 OA
BRANCH   9  10
HETATM   10  C7  UNL     1      33.439  95.911  -1.329  1.00  0.00     0.190 C
BRANCH  10  11
HETATM   11  C8  UNL     1      33.680  95.482  -2.739  1.00  0.00     0.148 C
BRANCH  11  12
HETATM   12  N5  UNL     1      34.933  94.898  -3.020  1.00  0.00    -0.385 N
HETATM   13  C9  UNL     1      35.040  94.197  -4.229  1.00  0.00     0.102 C
HETATM   14  C10 UNL     1      35.668  92.821  -4.104  1.00  0.00     0.107 C
HETATM   15  N6  UNL     1      35.295  92.205  -2.899  1.00  0.00    -0.361 N
HETATM   16  C18 UNL     1      35.784  92.943  -1.767  1.00  0.00     0.147 C
HETATM   17  C19 UNL     1      35.622  94.415  -1.867  1.00  0.00     0.142 C
BRANCH  15  18
HETATM   18  C11 UNL     1      35.232  90.813  -2.780  1.00  0.00     0.119 C
BRANCH  18  19
HETATM   19  C12 UNL     1      36.490  90.168  -3.212  1.00  0.00     0.047 A
HETATM   20  C13 UNL     1      36.525  89.365  -4.348  1.00  0.00     0.032 A
HETATM   21  C14 UNL     1      37.681  88.769  -4.787  1.00  0.00     0.019 A
HETATM   22  C15 UNL     1      38.853  88.957  -4.095  1.00  0.00     0.026 A
HETATM   23  C17 UNL     1      38.783  89.759  -2.973  1.00  0.00     0.103 A
HETATM   24  N11 UNL     1      37.643  90.333  -2.560  1.00  0.00    -0.364 N
ATOM     25  H11 UNL     1      37.658  90.914  -1.722  1.00  0.00     0.165 HD
BRANCH  22  26
HETATM   26  C16 UNL     1      40.127  88.350  -4.497  1.00  0.00     0.148 A
HETATM   27  N7  UNL     1      40.400  87.521  -5.509  1.00  0.00    -0.268 N
HETATM   28  N8  UNL     1      41.701  87.215  -5.483  1.00  0.00    -0.227 N
ATOM     29  H7  UNL     1      39.724  87.177  -6.191  1.00  0.00     0.190 HD
HETATM   30  N9  UNL     1      42.249  87.836  -4.473  1.00  0.00    -0.227 N
ATOM     31  H8  UNL     1      42.183  86.601  -6.139  1.00  0.00     0.210 HD
HETATM   32  N10 UNL     1      41.300  88.532  -3.864  1.00  0.00    -0.268 N
ATOM     33  H9  UNL     1      43.231  87.793  -4.201  1.00  0.00     0.210 HD
ATOM     34  H10 UNL     1      41.438  89.116  -3.040  1.00  0.00     0.190 HD
ENDBRANCH  22  26
ENDBRANCH  18  19
ENDBRANCH  15  18
ENDBRANCH  11  12
ENDBRANCH  10  11
ENDBRANCH   9  10
ENDBRANCH   5   9
BRANCH   6  35
HETATM   35  N12 UNL     1      29.015  95.185  -1.490  1.00  0.00    -0.071 N
ATOM     36 3H12 UNL     1      29.087  96.063  -2.004  1.00  0.00     0.274 HD
ATOM     37 2H12 UNL     1      29.158  94.549  -2.274  1.00  0.00     0.274 HD
ATOM     38 1H12 UNL     1      28.102  95.064  -1.052  1.00  0.00     0.274 HD
ENDBRANCH   6  35
BRANCH   1  39
HETATM   39  N3  UNL     1      32.406  91.779   0.693  1.00  0.00    -0.193 N
ATOM     40  H3  UNL     1      31.696  91.369   1.299  1.00  0.00     0.180 HD
BRANCH  39  41
HETATM   41  C4  UNL     1      33.274  90.928   0.619  1.00  0.00     0.709 A
HETATM   42  N2  UNL     1      32.980  89.597   0.404  1.00  0.00    -0.021 N
HETATM   43  C3  UNL     1      33.881  88.628   0.343  1.00  0.00     0.708 A
ATOM     44  H2  UNL     1      32.000  89.341   0.284  1.00  0.00     0.203 HD
HETATM   45  N16 UNL     1      35.192  88.964   0.500  1.00  0.00    -0.022 N
HETATM   46  C23 UNL     1      35.548  90.239   0.712  1.00  0.00     0.705 A
ATOM     47  H16 UNL     1      35.908  88.239   0.457  1.00  0.00     0.203 HD
HETATM   48  N14 UNL     1      34.585  91.185   0.766  1.00  0.00    -0.022 N
ATOM     49  H14 UNL     1      34.870  92.152   0.926  1.00  0.00     0.203 HD
BRANCH  43  50
HETATM   50  N1  UNL     1      33.554  87.266   0.107  1.00  0.00    -0.225 N
HETATM   51  C1  UNL     1      32.662  86.933  -0.973  1.00  0.00     0.168 C
HETATM   52  C2  UNL     1      34.114  86.250   0.964  1.00  0.00     0.168 C
ENDBRANCH  43  50
BRANCH  46  53
HETATM   53  N15 UNL     1      36.807  90.488   0.845  1.00  0.00    -0.234 N
ATOM     54 2H15 UNL     1      37.136  90.760   1.771  1.00  0.00     0.174 HD
ATOM     55 1H15 UNL     1      37.482  90.420   0.083  1.00  0.00     0.174 HD
ENDBRANCH  46  53
ENDBRANCH  39  41
ENDBRANCH   1  39
BRANCH   8  56
HETATM   56  N13 UNL     1      31.184  94.613   2.059  1.00  0.00    -0.071 N
ATOM     57 3H13 UNL     1      32.150  94.515   2.371  1.00  0.00     0.274 HD
ATOM     58 2H13 UNL     1      31.283  95.457   1.495  1.00  0.00     0.274 HD
ATOM     59 1H13 UNL     1      30.552  94.764   2.845  1.00  0.00     0.274 HD
ENDBRANCH   8  56
TORSDOF 13
ENDMDL