MODEL 3
REMARK VINA RESULT: -6.072173210      3.109      4.637
REMARK  14 active torsions:
REMARK  status: ('A' for Active; 'I' for Inactive)
REMARK    1  A    between atoms: C2_2  and  O1_3
REMARK    2  A    between atoms: C2_2  and  C3_5
REMARK    3  A    between atoms: C3_5  and  N1_6
REMARK       I    between atoms: N1_6  and  C4_8
REMARK    4  A    between atoms: C4_8  and  C5_10
REMARK    5  A    between atoms: C5_10  and  N2_11
REMARK    6  A    between atoms: C5_10  and  C6_15
REMARK    7  A    between atoms: C6_15  and  C7_16
REMARK    8  A    between atoms: C6_15  and  N5_25
REMARK    9  A    between atoms: N7_32  and  C12_33
REMARK   10  A    between atoms: C14_35  and  N8_36
REMARK   11  A    between atoms: N8_36  and  N9_38
REMARK   12  A    between atoms: N9_38  and  N10_39
REMARK   13  A    between atoms: C16_43  and  S2_44
REMARK   14  A    between atoms: S2_44  and  N11_45
ROOT
HETATM    1  N5  UNL     1      37.179  90.072  -4.339  1.00  0.00    -0.214 N
HETATM    2  C10 UNL     1      36.372  89.060  -4.041  1.00  0.00     0.339 A
HETATM    3  O3  UNL     1      35.450  89.191  -3.246  1.00  0.00    -0.246 OA
HETATM    4  N6  UNL     1      36.516  87.820  -4.601  1.00  0.00    -0.260 N
ATOM      5  H6  UNL     1      35.878  87.065  -4.351  1.00  0.00     0.175 HD
HETATM    6  C11 UNL     1      37.506  87.606  -5.484  1.00  0.00     0.335 A
HETATM    7  O4  UNL     1      37.640  86.468  -5.998  1.00  0.00    -0.246 OA
HETATM    8  N7  UNL     1      38.346  88.598  -5.816  1.00  0.00    -0.240 N
HETATM    9  C17 UNL     1      38.164  89.797  -5.242  1.00  0.00     0.342 A
HETATM   10  O7  UNL     1      38.959  90.755  -5.551  1.00  0.00    -0.246 OA
ENDROOT
BRANCH   1  11
HETATM   11  C6  UNL     1      37.071  91.398  -3.780  1.00  0.00     0.084 C
BRANCH  11  12
HETATM   12  C5  UNL     1      37.003  91.514  -2.319  1.00  0.00     0.326 C
BRANCH  12  13
HETATM   13  C4  UNL     1      36.016  92.351  -1.667  1.00  0.00     0.254 C
HETATM   14  N1  UNL     1      34.808  91.737  -1.191  1.00  0.00    -0.357 N
ATOM     15  H1  UNL     1      34.695  90.732  -1.323  1.00  0.00     0.162 HD
HETATM   16  O2  UNL     1      36.096  93.587  -1.470  1.00  0.00    -0.271 OA
BRANCH  14  17
HETATM   17  C3  UNL     1      33.752  92.456  -0.539  1.00  0.00     0.153 C
BRANCH  17  18
HETATM   18  C2  UNL     1      33.384  91.931   0.822  1.00  0.00     0.132 C
HETATM   19  C1  UNL     1      32.117  91.096   0.615  1.00  0.00     0.041 C
BRANCH  18  20
HETATM   20  O1  UNL     1      33.071  93.030   1.640  1.00  0.00    -0.394 OA
ATOM     21  H1  UNL     1      33.149  93.825   1.125  1.00  0.00     0.210 HD
ENDBRANCH  18  20
ENDBRANCH  17  18
ENDBRANCH  14  17
ENDBRANCH  12  13
BRANCH  12  22
HETATM   22  N2  UNL     1      38.312  91.834  -1.716  1.00  0.00    -0.061 N
ATOM     23  H23 UNL     1      38.507  92.834  -1.692  1.00  0.00     0.275 HD
ATOM     24  H22 UNL     1      38.338  91.670  -0.709  1.00  0.00     0.275 HD
ATOM     25  H21 UNL     1      39.016  91.300  -2.225  1.00  0.00     0.275 HD
ENDBRANCH  12  22
ENDBRANCH  11  12
BRANCH  11  26
HETATM   26  C7  UNL     1      36.175  92.307  -4.542  1.00  0.00     0.049 A
HETATM   27  C8  UNL     1      36.486  93.510  -5.129  1.00  0.00     0.111 A
HETATM   28  N3  UNL     1      35.542  94.155  -5.738  1.00  0.00    -0.345 N
HETATM   29  C9  UNL     1      34.315  93.628  -5.768  1.00  0.00     0.142 A
ATOM     30  H3  UNL     1      35.732  95.052  -6.186  1.00  0.00     0.167 HD
HETATM   31  N4  UNL     1      33.231  94.118  -6.327  1.00  0.00    -0.380 N
HETATM   32  S1  UNL     1      34.515  92.164  -4.902  1.00  0.00    -0.051 SA
ATOM     33  H42 UNL     1      33.111  94.990  -6.842  1.00  0.00     0.158 HD
ATOM     34  H41 UNL     1      32.293  93.715  -6.350  1.00  0.00     0.158 HD
ENDBRANCH  11  26
ENDBRANCH   1  11
BRANCH   8  35
HETATM   35  C12 UNL     1      39.416  88.426  -6.749  1.00  0.00     0.147 C
HETATM   36  C13 UNL     1      38.914  87.804  -8.027  1.00  0.00     0.063 C
HETATM   37  C14 UNL     1      39.950  86.755  -8.350  1.00  0.00     0.140 C
HETATM   38  C15 UNL     1      40.825  86.647  -7.169  1.00  0.00     0.023 C
HETATM   39  C16 UNL     1      40.530  87.577  -6.276  1.00  0.00     0.079 C
BRANCH  37  40
HETATM   40  N8  UNL     1      39.381  85.497  -8.777  1.00  0.00    -0.244 N
ATOM     41  H8  UNL     1      38.393  85.312  -8.610  1.00  0.00     0.197 HD
BRANCH  40  42
HETATM   42  N9  UNL     1      40.067  84.644  -9.338  1.00  0.00    -0.248 NA
BRANCH  42  43
HETATM   43  N10 UNL     1      40.384  83.669 -10.019  1.00  0.00    -0.261 N
ATOM     44 2H10 UNL     1      39.947  82.970  -9.420  1.00  0.00     0.193 HD
ATOM     45 1H10 UNL     1      40.785  83.107 -10.770  1.00  0.00     0.193 HD
ENDBRANCH  42  43
ENDBRANCH  40  42
ENDBRANCH  37  40
BRANCH  39  46
HETATM   46  S2  UNL     1      41.361  87.771  -4.754  1.00  0.00     0.254 S
HETATM   47  O5  UNL     1      40.716  86.912  -3.675  1.00  0.00    -0.201 OA
HETATM   48  O6  UNL     1      42.791  87.282  -4.847  1.00  0.00    -0.201 OA
BRANCH  46  49
HETATM   49  N11 UNL     1      41.322  89.392  -4.233  1.00  0.00    -0.324 N
ATOM     50 2H11 UNL     1      40.503  89.830  -3.812  1.00  0.00     0.169 HD
ATOM     51 1H11 UNL     1      42.216  89.854  -4.399  1.00  0.00     0.169 HD
ENDBRANCH  46  49
ENDBRANCH  39  46
ENDBRANCH   8  35
TORSDOF 14
ENDMDL