MODEL 2
REMARK VINA RESULT: -6.298454841      2.287      5.551
REMARK  16 active torsions:
REMARK  status: ('A' for Active; 'I' for Inactive)
REMARK    1  A    between atoms: N1_2  and  O1_3
REMARK    2  A    between atoms: N1_2  and  C2_5
REMARK    3  A    between atoms: C3_8  and  N3_9
REMARK    4  A    between atoms: N3_9  and  C4_11
REMARK    5  A    between atoms: C7_14  and  N4_15
REMARK    6  A    between atoms: N4_15  and  C8_17
REMARK    7  A    between atoms: C9_20  and  N6_21
REMARK    8  A    between atoms: N6_21  and  C10_23
REMARK    9  A    between atoms: C10_23  and  C11_24
REMARK   10  A    between atoms: C15_34  and  N9_35
REMARK   11  A    between atoms: N9_35  and  C16_37
REMARK   12  A    between atoms: C16_37  and  C17_38
REMARK   13  A    between atoms: C17_38  and  O3_39
REMARK   14  A    between atoms: N12_48  and  C21_49
REMARK   15  A    between atoms: C21_49  and  C22_50
REMARK   16  A    between atoms: C22_50  and  O4_51
ROOT
HETATM    1  N4  UNL     1      38.302  90.139  -2.787  1.00  0.00    -0.220 N
ATOM      2  H4  UNL     1      37.897  89.544  -2.064  1.00  0.00     0.178 HD
ENDROOT
BRANCH   1   3
HETATM    3  C7  UNL     1      38.226  91.555  -2.573  1.00  0.00     0.101 C
HETATM    4  C6  UNL     1      37.468  92.317  -3.621  1.00  0.00     0.028 C
HETATM    5  C5  UNL     1      36.057  92.372  -3.117  1.00  0.00     0.027 C
HETATM    6  C4  UNL     1      36.084  91.896  -1.702  1.00  0.00     0.085 C
HETATM    7  C18 UNL     1      37.543  91.914  -1.287  1.00  0.00     0.050 C
BRANCH   6   8
HETATM    8  N3  UNL     1      35.331  92.699  -0.789  1.00  0.00    -0.369 N
ATOM      9  H3  UNL     1      35.679  93.613  -0.505  1.00  0.00     0.161 HD
BRANCH   8  10
HETATM   10  C3  UNL     1      34.213  92.263  -0.330  1.00  0.00     0.148 A
HETATM   11  N2  UNL     1      33.898  91.004  -0.058  1.00  0.00    -0.172 N
HETATM   12  C2  UNL     1      32.705  90.607   0.419  1.00  0.00     0.707 A
ATOM     13  H2  UNL     1      34.608  90.290  -0.221  1.00  0.00     0.186 HD
HETATM   14  N13 UNL     1      31.749  91.546   0.645  1.00  0.00    -0.172 N
HETATM   15  C23 UNL     1      32.022  92.826   0.386  1.00  0.00     0.155 A
ATOM     16  H13 UNL     1      30.835  91.276   1.007  1.00  0.00     0.186 HD
HETATM   17  C19 UNL     1      33.236  93.234  -0.101  1.00  0.00     0.123 A
HETATM   18  N12 UNL     1      31.262  93.926   0.522  1.00  0.00    -0.325 N
HETATM   19  N11 UNL     1      33.198  94.572  -0.253  1.00  0.00    -0.346 N
HETATM   20  C20 UNL     1      31.991  95.000   0.127  1.00  0.00     0.185 A
ATOM     21  H11 UNL     1      33.959  95.157  -0.600  1.00  0.00     0.167 HD
BRANCH  12  22
HETATM   22  N1  UNL     1      32.391  89.259   0.698  1.00  0.00    -0.095 N
HETATM   23  C1  UNL     1      33.402  88.248   0.545  1.00  0.00     0.205 C
BRANCH  22  24
HETATM   24  O1  UNL     1      31.161  88.927   1.100  1.00  0.00    -0.274 OA
ATOM     25  H1  UNL     1      30.430  88.971   0.495  1.00  0.00     0.245 HD
ENDBRANCH  22  24
ENDBRANCH  12  22
BRANCH  18  26
HETATM   26  C21 UNL     1      29.914  93.982   0.999  1.00  0.00     0.157 C
BRANCH  26  27
HETATM   27  C22 UNL     1      29.870  94.839   2.240  1.00  0.00     0.184 C
BRANCH  27  28
HETATM   28  O4  UNL     1      30.462  94.184   3.315  1.00  0.00    -0.399 OA
ATOM     29  H4  UNL     1      30.571  93.260   3.128  1.00  0.00     0.209 HD
ENDBRANCH  27  28
ENDBRANCH  26  27
ENDBRANCH  18  26
ENDBRANCH   8  10
ENDBRANCH   6   8
ENDBRANCH   1   3
BRANCH   1  30
HETATM   30  C8  UNL     1      38.827  89.545  -3.794  1.00  0.00     0.707 A
HETATM   31  N5  UNL     1      38.488  89.734  -5.075  1.00  0.00    -0.021 N
HETATM   32  C9  UNL     1      39.074  89.100  -6.101  1.00  0.00     0.711 A
ATOM     33  H5  UNL     1      37.743  90.399  -5.283  1.00  0.00     0.203 HD
HETATM   34  N8  UNL     1      40.062  88.222  -5.829  1.00  0.00    -0.021 N
HETATM   35  C15 UNL     1      40.402  88.031  -4.553  1.00  0.00     0.707 A
ATOM     36  H8  UNL     1      40.537  87.718  -6.578  1.00  0.00     0.203 HD
HETATM   37  N10 UNL     1      39.814  88.665  -3.535  1.00  0.00    -0.022 N
ATOM     38  H10 UNL     1      40.109  88.486  -2.575  1.00  0.00     0.203 HD
BRANCH  32  39
HETATM   39  N6  UNL     1      38.679  89.329  -7.428  1.00  0.00    -0.202 N
ATOM     40  H6  UNL     1      37.910  88.777  -7.809  1.00  0.00     0.183 HD
BRANCH  39  41
HETATM   41  C10 UNL     1      39.233  90.190  -8.174  1.00  0.00     0.114 C
BRANCH  41  42
HETATM   42  C11 UNL     1      39.318  91.653  -7.888  1.00  0.00     0.248 C
HETATM   43  C12 UNL     1      40.210  92.258  -8.938  1.00  0.00     0.206 C
HETATM   44  O2  UNL     1      39.822  93.499  -9.379  1.00  0.00    -0.387 OA
HETATM   45  C13 UNL     1      38.501  93.605  -9.744  1.00  0.00     0.195 C
HETATM   46  C14 UNL     1      37.657  92.410  -9.352  1.00  0.00     0.259 C
HETATM   47  N7  UNL     1      37.955  92.146  -7.959  1.00  0.00    -0.062 N
ATOM     48  H72 UNL     1      37.282  91.517  -7.521  1.00  0.00     0.278 HD
ATOM     49  H71 UNL     1      37.793  92.955  -7.358  1.00  0.00     0.278 HD
ENDBRANCH  41  42
ENDBRANCH  39  41
ENDBRANCH  32  39
BRANCH  35  50
HETATM   50  N9  UNL     1      41.349  87.203  -4.268  1.00  0.00    -0.223 N
ATOM     51  H9  UNL     1      41.278  86.647  -3.416  1.00  0.00     0.177 HD
BRANCH  50  52
HETATM   52  C16 UNL     1      42.508  87.037  -5.116  1.00  0.00     0.164 C
BRANCH  52  53
HETATM   53  C17 UNL     1      42.133  85.994  -6.178  1.00  0.00     0.184 C
BRANCH  53  54
HETATM   54  O3  UNL     1      41.695  84.851  -5.550  1.00  0.00    -0.399 OA
ATOM     55  H3  UNL     1      42.226  84.117  -5.837  1.00  0.00     0.209 HD
ENDBRANCH  53  54
ENDBRANCH  52  53
ENDBRANCH  50  52
ENDBRANCH  35  50
ENDBRANCH   1  30
TORSDOF 16
ENDMDL