MODEL 4
REMARK VINA RESULT: -6.808029456      1.977      2.541
REMARK  9 active torsions:
REMARK  status: ('A' for Active; 'I' for Inactive)
REMARK    1  A    between atoms: S1_2  and  C2_5
REMARK    2  A    between atoms: C2_5  and  C3_6
REMARK    3  A    between atoms: C4_7  and  C5_8
REMARK    4  A    between atoms: C8_18  and  C9_19
REMARK    5  A    between atoms: N3_23  and  C12_24
REMARK    6  A    between atoms: C12_24  and  C13_25
REMARK    7  A    between atoms: C13_25  and  C14_26
REMARK    8  A    between atoms: C14_26  and  C15_27
REMARK    9  A    between atoms: C15_27  and  C16_28
ROOT
HETATM    1  C3  UNL     1      38.832  86.137  -6.171  1.00  0.00     0.071 C
HETATM    2  C4  UNL     1      39.910  86.660  -5.590  1.00  0.00     0.157 C
HETATM    3  N1  UNL     1      39.465  87.865  -4.940  1.00  0.00    -0.213 N
HETATM    4  C6  UNL     1      39.859  89.099  -4.358  1.00  0.00     0.275 C
HETATM    5  O5  UNL     1      40.932  89.302  -3.756  1.00  0.00    -0.269 OA
HETATM    6  C7  UNL     1      38.784  90.081  -4.593  1.00  0.00     0.330 C
HETATM    7  N2  UNL     1      38.372  90.811  -3.431  1.00  0.00    -0.024 N
ATOM      8  H21 UNL     1      38.853  91.695  -3.265  1.00  0.00     0.281 HD
ATOM      9  H22 UNL     1      38.637  90.407  -2.532  1.00  0.00     0.281 HD
HETATM   10  C8  UNL     1      36.925  90.903  -3.695  1.00  0.00     0.436 C
HETATM   11  N8  UNL     1      36.604  89.533  -3.943  1.00  0.00    -0.018 N
ATOM     12  H81 UNL     1      35.635  89.355  -4.208  1.00  0.00     0.282 HD
ATOM     13  H82 UNL     1      36.587  88.935  -3.118  1.00  0.00     0.282 HD
HETATM   14  C18 UNL     1      37.599  89.176  -4.950  1.00  0.00     0.344 C
HETATM   15  N9  UNL     1      38.065  87.836  -4.818  1.00  0.00    -0.095 NA
HETATM   16  N10 UNL     1      37.724  86.987  -5.875  1.00  0.00    -0.300 N
ATOM     17  H10 UNL     1      36.826  86.977  -6.358  1.00  0.00     0.182 HD
ENDROOT
BRANCH  10  18
HETATM   18  C9  UNL     1      36.192  91.525  -2.593  1.00  0.00     0.089 A
HETATM   19  C10 UNL     1      36.055  92.875  -2.370  1.00  0.00     0.106 A
HETATM   20  C11 UNL     1      35.290  93.077  -1.229  1.00  0.00     0.263 A
HETATM   21  O6  UNL     1      34.963  94.199  -0.723  1.00  0.00    -0.267 OA
HETATM   22  N3  UNL     1      34.978  91.851  -0.780  1.00  0.00    -0.257 N
HETATM   23  N7  UNL     1      35.515  90.943  -1.592  1.00  0.00    -0.296 N
ATOM     24  H7  UNL     1      35.423  89.935  -1.468  1.00  0.00     0.187 HD
BRANCH  22  25
HETATM   25  C12 UNL     1      34.169  91.606   0.400  1.00  0.00     0.152 C
BRANCH  25  26
HETATM   26  C13 UNL     1      32.699  91.866   0.151  1.00  0.00     0.022 C
BRANCH  26  27
HETATM   27  C14 UNL     1      32.085  92.869   1.065  1.00  0.00     0.008 C
BRANCH  27  28
HETATM   28  C15 UNL     1      31.130  93.780   0.354  1.00  0.00     0.066 C
BRANCH  28  29
HETATM   29  C16 UNL     1      31.788  94.754  -0.566  1.00  0.00     0.069 A
HETATM   30  N4  UNL     1      32.574  95.792  -0.348  1.00  0.00    -0.296 N
HETATM   31  N5  UNL     1      33.022  96.489  -1.302  1.00  0.00    -0.279 N
ATOM     32  H4  UNL     1      32.825  96.036   0.610  1.00  0.00     0.187 HD
HETATM   33  C17 UNL     1      32.686  96.159  -2.553  1.00  0.00     0.158 A
ATOM     34  H5  UNL     1      33.629  97.288  -1.120  1.00  0.00     0.189 HD
HETATM   35  N6  UNL     1      33.050  96.759  -3.664  1.00  0.00    -0.379 N
HETATM   36  S2  UNL     1      31.691  94.795  -2.299  1.00  0.00    -0.038 SA
ATOM     37  H62 UNL     1      33.644  97.574  -3.815  1.00  0.00     0.158 HD
ATOM     38  H61 UNL     1      32.793  96.507  -4.619  1.00  0.00     0.158 HD
ENDBRANCH  28  29
ENDBRANCH  27  28
ENDBRANCH  26  27
ENDBRANCH  25  26
ENDBRANCH  22  25
ENDBRANCH  10  18
BRANCH   2  39
HETATM   39  C5  UNL     1      41.251  86.163  -5.595  1.00  0.00     0.230 C
HETATM   40  O3  UNL     1      42.215  87.007  -5.599  1.00  0.00    -0.643 OA
HETATM   41  O4  UNL     1      41.663  84.863  -5.597  1.00  0.00    -0.643 OA
ENDBRANCH   2  39
BRANCH   1  42
HETATM   42  C2  UNL     1      38.717  84.911  -6.973  1.00  0.00     0.200 C
BRANCH  42  43
HETATM   43  S1  UNL     1      39.186  85.219  -8.667  1.00  0.00     0.146 S
HETATM   44  C1  UNL     1      38.252  84.179  -9.772  1.00  0.00     0.161 C
HETATM   45  O1  UNL     1      40.635  84.863  -8.830  1.00  0.00    -0.228 OA
HETATM   46  O2  UNL     1      38.992  86.658  -9.002  1.00  0.00    -0.228 OA
ENDBRANCH  42  43
ENDBRANCH   1  42
TORSDOF 9
ENDMDL