MODEL 1
REMARK VINA RESULT: -6.922960014      0.000      0.000
REMARK  13 active torsions:
REMARK  status: ('A' for Active; 'I' for Inactive)
REMARK    1  A    between atoms: N1_1  and  C1_4
REMARK    2  A    between atoms: C3_8  and  C4_9
REMARK    3  A    between atoms: C4_9  and  C5_10
REMARK    4  A    between atoms: C5_10  and  N3_11
REMARK    5  A    between atoms: C8_14  and  N4_15
REMARK    6  A    between atoms: N4_15  and  C9_17
REMARK    7  A    between atoms: C10_20  and  N6_21
REMARK    8  A    between atoms: N6_21  and  C11_23
REMARK    9  A    between atoms: C11_23  and  C12_24
REMARK   10  A    between atoms: C12_24  and  N7_25
REMARK   11  A    between atoms: C16_32  and  C17_33
REMARK   12  A    between atoms: C17_33  and  C18_34
REMARK   13  A    between atoms: C20_41  and  O2_42
ROOT
HETATM    1  C9  UNL     1      38.833  90.308  -8.317  1.00  0.00     0.695 A
HETATM    2  N5  UNL     1      39.117  90.195  -9.597  1.00  0.00    -0.021 N
ATOM      3  H5  UNL     1      38.927  90.980 -10.221  1.00  0.00     0.203 HD
HETATM    4  C10 UNL     1      39.653  89.070 -10.101  1.00  0.00     0.715 A
HETATM    5  N8  UNL     1      39.897  88.044  -9.261  1.00  0.00    -0.068 N
HETATM    6  N9  UNL     1      40.410  86.841  -9.487  1.00  0.00    -0.288 N
ATOM      7  H9  UNL     1      40.711  86.506 -10.402  1.00  0.00     0.187 HD
HETATM    8  C15 UNL     1      40.481  86.130  -8.368  1.00  0.00     0.123 A
HETATM    9  C16 UNL     1      39.976  86.940  -7.359  1.00  0.00     0.030 A
HETATM   10  C21 UNL     1      39.619  88.127  -7.947  1.00  0.00     0.172 A
HETATM   11  N12 UNL     1      39.077  89.288  -7.484  1.00  0.00    -0.173 N
ATOM     12  H12 UNL     1      38.856  89.382  -6.493  1.00  0.00     0.186 HD
ENDROOT
BRANCH   1  13
HETATM   13  N4  UNL     1      38.325  91.377  -7.847  1.00  0.00    -0.212 N
ATOM     14  H4  UNL     1      38.349  92.188  -8.466  1.00  0.00     0.178 HD
BRANCH  13  15
HETATM   15  C8  UNL     1      37.731  91.591  -6.574  1.00  0.00     0.194 C
HETATM   16  C7  UNL     1      36.216  91.361  -6.711  1.00  0.00     0.051 C
HETATM   17  C6  UNL     1      35.544  91.423  -5.376  1.00  0.00     0.116 C
HETATM   18  N3  UNL     1      36.109  92.341  -4.445  1.00  0.00    -0.228 NA
HETATM   19  N13 UNL     1      36.938  93.317  -5.001  1.00  0.00    -0.287 N
HETATM   20  C22 UNL     1      37.868  92.946  -6.017  1.00  0.00     0.255 C
ATOM     21  H13 UNL     1      36.879  94.285  -4.684  1.00  0.00     0.184 HD
HETATM   22  O3  UNL     1      38.738  93.779  -6.376  1.00  0.00    -0.270 OA
BRANCH  18  23
HETATM   23  C5  UNL     1      35.134  92.982  -3.598  1.00  0.00     0.119 C
BRANCH  23  24
HETATM   24  C4  UNL     1      35.743  93.529  -2.323  1.00  0.00     0.074 C
BRANCH  24  25
HETATM   25  C3  UNL     1      35.817  92.401  -1.351  1.00  0.00     0.025 A
HETATM   26  N2  UNL     1      34.734  91.897  -0.730  1.00  0.00    -0.365 N
HETATM   27  C2  UNL     1      34.817  90.882   0.143  1.00  0.00     0.136 A
ATOM     28  H2  UNL     1      33.819  92.301  -0.930  1.00  0.00     0.165 HD
HETATM   29  C1  UNL     1      36.019  90.294   0.455  1.00  0.00     0.114 A
HETATM   30  N14 UNL     1      37.123  90.798  -0.169  1.00  0.00    -0.350 N
HETATM   31  C23 UNL     1      37.034  91.812  -1.041  1.00  0.00     0.114 A
ATOM     32  H14 UNL     1      38.038  90.393   0.033  1.00  0.00     0.166 HD
BRANCH  29  33
HETATM   33  N1  UNL     1      36.153  89.311   1.292  1.00  0.00    -0.384 N
ATOM     34  H12 UNL     1      35.492  89.217   2.063  1.00  0.00     0.157 HD
ATOM     35  H11 UNL     1      36.888  88.606   1.234  1.00  0.00     0.157 HD
ENDBRANCH  29  33
ENDBRANCH  24  25
ENDBRANCH  23  24
ENDBRANCH  18  23
ENDBRANCH  13  15
ENDBRANCH   1  13
BRANCH   4  36
HETATM   36  N6  UNL     1      39.943  89.013 -11.504  1.00  0.00    -0.222 N
ATOM     37  H6  UNL     1      39.657  88.197 -12.045  1.00  0.00     0.177 HD
BRANCH  36  38
HETATM   38  C11 UNL     1      40.627  90.082 -12.151  1.00  0.00     0.168 C
BRANCH  38  39
HETATM   39  C12 UNL     1      42.135  89.996 -11.905  1.00  0.00     0.292 C
BRANCH  39  40
HETATM   40  N7  UNL     1      42.473  91.239 -11.199  1.00  0.00     0.093 N
HETATM   41  C13 UNL     1      41.507  92.318 -11.451  1.00  0.00     0.302 A
HETATM   42  C14 UNL     1      42.867  92.384 -12.049  1.00  0.00     0.302 A
ENDBRANCH  39  40
ENDBRANCH  38  39
ENDBRANCH  36  38
ENDBRANCH   4  36
BRANCH   9  43
HETATM   43  C17 UNL     1      39.866  86.618  -6.094  1.00  0.00     0.051 C
BRANCH  43  44
HETATM   44  C18 UNL     1      40.079  87.542  -5.005  1.00  0.00     0.088 A
HETATM   45  N10 UNL     1      39.146  88.166  -4.299  1.00  0.00    -0.305 N
HETATM   46  C19 UNL     1      39.693  88.954  -3.345  1.00  0.00     0.326 A
ATOM     47  H10 UNL     1      38.143  88.065  -4.455  1.00  0.00     0.171 HD
HETATM   48  O1  UNL     1      39.070  89.668  -2.520  1.00  0.00    -0.247 OA
HETATM   49  N11 UNL     1      41.036  88.791  -3.491  1.00  0.00    -0.287 N
HETATM   50  C20 UNL     1      41.293  87.939  -4.492  1.00  0.00     0.171 A
ATOM     51  H11 UNL     1      41.744  89.251  -2.920  1.00  0.00     0.172 HD
BRANCH  50  52
HETATM   52  O2  UNL     1      42.531  87.523  -4.940  1.00  0.00    -0.344 OA
ATOM     53  H2  UNL     1      43.237  87.194  -4.395  1.00  0.00     0.219 HD
ENDBRANCH  50  52
ENDBRANCH  43  44
ENDBRANCH   9  43
TORSDOF 13
ENDMDL