MODEL 2
REMARK VINA RESULT: -6.431391057      3.532      6.845
REMARK  13 active torsions:
REMARK  status: ('A' for Active; 'I' for Inactive)
REMARK    1  A    between atoms: S1_2  and  C2_3
REMARK    2  A    between atoms: C3_6  and  N2_7
REMARK    3  A    between atoms: C4_11  and  C5_12
REMARK    4  A    between atoms: C5_12  and  C6_17
REMARK    5  A    between atoms: N3_13  and  O1_15
REMARK       I    between atoms: C6_17  and  N4_19
REMARK    6  A    between atoms: N6_24  and  C8_25
REMARK    7  A    between atoms: C8_25  and  C9_26
REMARK    8  A    between atoms: C9_26  and  O3_27
REMARK    9  A    between atoms: O3_27  and  S3_28
REMARK       I    between atoms: N7_34  and  C12_35
REMARK   10  A    between atoms: C12_35  and  C13_37
REMARK   11  A    between atoms: C13_37  and  N8_38
REMARK       I    between atoms: N8_38  and  C14_40
REMARK   12  A    between atoms: C14_40  and  C15_42
REMARK   13  A    between atoms: C15_42  and  N9_43
ROOT
HETATM    1  C6  UNL     1      35.661  91.686  -5.593  1.00  0.00     0.289 C
HETATM    2  O2  UNL     1      34.456  91.643  -5.832  1.00  0.00    -0.265 OA
HETATM    3  N4  UNL     1      36.442  90.533  -5.729  1.00  0.00    -0.153 N
ATOM      4  H4  UNL     1      36.895  90.155  -4.897  1.00  0.00     0.187 HD
HETATM    5  C7  UNL     1      36.619  89.923  -6.857  1.00  0.00     0.700 C
HETATM    6  N5  UNL     1      36.035  90.365  -8.076  1.00  0.00    -0.151 N
ATOM      7  H5  UNL     1      35.605  91.289  -8.093  1.00  0.00     0.199 HD
HETATM    8  N6  UNL     1      36.013  89.620  -9.236  1.00  0.00    -0.213 NA
HETATM    9  C10 UNL     1      36.474  88.262  -9.048  1.00  0.00     0.135 C
HETATM   10  C11 UNL     1      37.759  88.268  -8.246  1.00  0.00     0.167 C
HETATM   11  N7  UNL     1      37.427  88.754  -6.924  1.00  0.00    -0.147 N
HETATM   12  C12 UNL     1      37.893  88.085  -5.748  1.00  0.00     0.255 C
HETATM   13  O7  UNL     1      37.629  88.474  -4.601  1.00  0.00    -0.271 OA
ENDROOT
BRANCH   1  14
HETATM   14  C5  UNL     1      36.254  92.997  -5.157  1.00  0.00     0.142 C
HETATM   15  N3  UNL     1      36.948  93.582  -5.940  1.00  0.00    -0.262 N
ATOM     16  H3  UNL     1      36.961  92.993  -6.772  1.00  0.00     0.194 HD
BRANCH  14  17
HETATM   17  C4  UNL     1      35.909  93.418  -3.789  1.00  0.00     0.076 A
HETATM   18  C2  UNL     1      36.301  93.049  -2.550  1.00  0.00     0.091 A
HETATM   19  N1  UNL     1      35.795  93.678  -1.515  1.00  0.00    -0.330 N
HETATM   20  C3  UNL     1      34.919  94.651  -1.712  1.00  0.00     0.143 A
ATOM     21  H1  UNL     1      36.075  93.421  -0.568  1.00  0.00     0.168 HD
HETATM   22  S2  UNL     1      34.782  94.705  -3.395  1.00  0.00    -0.049 SA
BRANCH  18  23
HETATM   23  S1  UNL     1      37.507  91.686  -2.294  1.00  0.00    -0.115 SA
HETATM   24  C1  UNL     1      37.323  91.075  -0.579  1.00  0.00     0.097 C
ENDBRANCH  18  23
BRANCH  20  25
HETATM   25  N2  UNL     1      34.302  95.396  -0.825  1.00  0.00    -0.380 N
ATOM     26  H22 UNL     1      34.715  95.993  -0.108  1.00  0.00     0.158 HD
ATOM     27  H21 UNL     1      33.300  95.523  -0.681  1.00  0.00     0.158 HD
ENDBRANCH  20  25
ENDBRANCH  14  17
BRANCH  15  28
HETATM   28  O1  UNL     1      37.674  94.578  -6.233  1.00  0.00    -0.289 OA
ATOM     29  H1  UNL     1      37.757  95.481  -6.512  1.00  0.00     0.244 HD
ENDBRANCH  15  28
ENDBRANCH   1  14
BRANCH   8  30
HETATM   30  C8  UNL     1      36.729  90.201 -10.333  1.00  0.00     0.142 C
BRANCH  30  31
HETATM   31  C9  UNL     1      37.364  91.528  -9.978  1.00  0.00     0.209 C
BRANCH  31  32
HETATM   32  O3  UNL     1      38.699  91.366  -9.609  1.00  0.00    -0.256 OA
BRANCH  32  33
HETATM   33  S3  UNL     1      39.217  92.655  -8.697  1.00  0.00     0.251 S
HETATM   34  O4  UNL     1      40.506  93.149  -9.300  1.00  0.00    -0.572 OA
HETATM   35  O5  UNL     1      38.227  93.782  -8.813  1.00  0.00    -0.572 OA
HETATM   36  O6  UNL     1      39.472  92.285  -7.095  1.00  0.00    -0.572 OA
ENDBRANCH  32  33
ENDBRANCH  31  32
ENDBRANCH  30  31
ENDBRANCH   8  30
BRANCH  12  37
HETATM   37  C13 UNL     1      38.726  86.878  -5.935  1.00  0.00     0.226 C
BRANCH  37  38
HETATM   38  N8  UNL     1      40.133  87.104  -5.718  1.00  0.00    -0.351 N
HETATM   39  C14 UNL     1      41.053  86.032  -5.783  1.00  0.00     0.243 C
HETATM   40  O8  UNL     1      40.734  84.838  -6.020  1.00  0.00    -0.272 OA
ATOM     41  H8  UNL     1      40.467  88.046  -5.516  1.00  0.00     0.163 HD
BRANCH  39  42
HETATM   42  C15 UNL     1      42.507  86.343  -5.553  1.00  0.00     0.332 C
BRANCH  42  43
HETATM   43  N9  UNL     1      42.662  87.487  -4.695  1.00  0.00    -0.071 N
ATOM     44  H93 UNL     1      41.760  87.858  -4.396  1.00  0.00     0.274 HD
ATOM     45  H92 UNL     1      43.033  87.224  -3.781  1.00  0.00     0.274 HD
ATOM     46  H91 UNL     1      43.235  88.205  -5.140  1.00  0.00     0.274 HD
ENDBRANCH  42  43
ENDBRANCH  39  42
ENDBRANCH  37  38
ENDBRANCH  12  37
TORSDOF 13
ENDMDL