MODEL 1
REMARK VINA RESULT: -6.397207588      0.000      0.000
REMARK  12 active torsions:
REMARK  status: ('A' for Active; 'I' for Inactive)
REMARK    1  A    between atoms: S1_2  and  C2_3
REMARK    2  A    between atoms: N3_9  and  S2_11
REMARK    3  A    between atoms: S2_11  and  N4_14
REMARK    4  A    between atoms: N4_14  and  C4_16
REMARK    5  A    between atoms: C4_16  and  C5_17
REMARK    6  A    between atoms: C7_21  and  O4_22
REMARK    7  A    between atoms: O4_22  and  C8_23
REMARK    8  A    between atoms: C8_23  and  C9_24
REMARK    9  A    between atoms: C9_24  and  C10_25
REMARK   10  A    between atoms: C10_25  and  C11_26
REMARK   11  A    between atoms: C12_27  and  O5_28
REMARK   12  A    between atoms: C15_38  and  N8_39
ROOT
HETATM    1  C4  UNL     1      38.658  89.054  -5.181  1.00  0.00     0.226 C
HETATM    2  C6  UNL     1      37.766  90.121  -4.618  1.00  0.00     0.106 C
HETATM    3  C7  UNL     1      37.751  91.420  -5.341  1.00  0.00     0.159 C
HETATM    4  C15 UNL     1      38.225  91.397  -6.753  1.00  0.00     0.236 C
HETATM    5  C16 UNL     1      39.158  90.281  -7.101  1.00  0.00     0.207 C
HETATM    6  O8  UNL     1      38.849  89.084  -6.532  1.00  0.00    -0.350 OA
ENDROOT
BRANCH   1   7
HETATM    7  N4  UNL     1      37.953  87.786  -4.904  1.00  0.00    -0.261 N
ATOM      8  H4  UNL     1      37.554  87.555  -3.995  1.00  0.00     0.177 HD
BRANCH   7   9
HETATM    9  S2  UNL     1      37.873  86.751  -6.247  1.00  0.00     0.323 S
HETATM   10  O1  UNL     1      37.211  87.324  -7.440  1.00  0.00    -0.182 OA
HETATM   11  O2  UNL     1      37.316  85.418  -5.829  1.00  0.00    -0.182 OA
BRANCH   9  12
HETATM   12  N3  UNL     1      39.531  86.402  -6.712  1.00  0.00    -0.246 N
HETATM   13  C3  UNL     1      39.633  85.636  -7.775  1.00  0.00     0.176 A
HETATM   14  N2  UNL     1      40.756  85.206  -8.359  1.00  0.00    -0.278 N
HETATM   15  S3  UNL     1      38.435  84.930  -8.772  1.00  0.00    -0.026 SA
HETATM   16  N1  UNL     1      40.671  84.467  -9.385  1.00  0.00    -0.286 N
ATOM     17  H2  UNL     1      41.667  85.468  -7.984  1.00  0.00     0.189 HD
HETATM   18  C2  UNL     1      39.483  84.130  -9.870  1.00  0.00     0.129 A
ATOM     19  H1  UNL     1      41.519  84.131  -9.840  1.00  0.00     0.188 HD
ATOM     20  H3  UNL     1      40.339  86.761  -6.203  1.00  0.00     0.182 HD
BRANCH  18  21
HETATM   21  S1  UNL     1      39.091  83.106 -11.299  1.00  0.00    -0.108 SA
HETATM   22  C1  UNL     1      40.565  82.052 -11.579  1.00  0.00     0.097 C
ENDBRANCH  18  21
ENDBRANCH   9  12
ENDBRANCH   7   9
ENDBRANCH   1   7
BRANCH   1  23
HETATM   23  C5  UNL     1      39.920  89.063  -4.402  1.00  0.00     0.287 C
HETATM   24  N5  UNL     1      41.036  88.284  -4.800  1.00  0.00    -0.058 NA
HETATM   25  O3  UNL     1      40.090  89.752  -3.343  1.00  0.00    -0.271 OA
ENDBRANCH   1  23
BRANCH   3  26
HETATM   26  O4  UNL     1      36.477  92.010  -5.308  1.00  0.00    -0.384 OA
BRANCH  26  27
HETATM   27  C8  UNL     1      36.534  93.121  -4.486  1.00  0.00     0.168 C
BRANCH  27  28
HETATM   28  C9  UNL     1      35.503  92.972  -3.380  1.00  0.00     0.031 C
BRANCH  28  29
HETATM   29  C10 UNL     1      36.134  93.268  -2.032  1.00  0.00     0.051 C
BRANCH  29  30
HETATM   30  C11 UNL     1      36.042  92.104  -1.138  1.00  0.00     0.061 A
HETATM   31  C12 UNL     1      37.153  91.309  -0.963  1.00  0.00     0.155 A
HETATM   32  N6  UNL     1      37.091  90.238  -0.150  1.00  0.00    -0.288 N
HETATM   33  C13 UNL     1      35.967  89.916   0.503  1.00  0.00     0.329 A
ATOM     34  H6  UNL     1      37.920  89.657  -0.029  1.00  0.00     0.172 HD
HETATM   35  O6  UNL     1      35.942  88.902   1.260  1.00  0.00    -0.247 OA
HETATM   36  N7  UNL     1      34.878  90.688   0.336  1.00  0.00    -0.275 N
HETATM   37  C14 UNL     1      34.890  91.761  -0.460  1.00  0.00     0.259 A
ATOM     38  H7  UNL     1      34.019  90.448   0.831  1.00  0.00     0.173 HD
HETATM   39  O7  UNL     1      33.880  92.493  -0.626  1.00  0.00    -0.267 OA
BRANCH  31  40
HETATM   40  O5  UNL     1      38.340  91.609  -1.622  1.00  0.00    -0.345 OA
ATOM     41  H5  UNL     1      38.347  91.724  -2.566  1.00  0.00     0.219 HD
ENDBRANCH  31  40
ENDBRANCH  29  30
ENDBRANCH  28  29
ENDBRANCH  27  28
ENDBRANCH  26  27
ENDBRANCH   3  26
BRANCH   4  42
HETATM   42  N8  UNL     1      38.810  92.701  -7.067  1.00  0.00    -0.070 N
ATOM     43  H83 UNL     1      39.700  92.855  -6.592  1.00  0.00     0.274 HD
ATOM     44  H82 UNL     1      39.153  92.757  -8.026  1.00  0.00     0.274 HD
ATOM     45  H81 UNL     1      38.123  93.423  -6.854  1.00  0.00     0.274 HD
ENDBRANCH   4  42
TORSDOF 12
ENDMDL