MODEL 1
REMARK VINA RESULT: -6.607880876      0.000      0.000
REMARK  14 active torsions:
REMARK  status: ('A' for Active; 'I' for Inactive)
REMARK    1  A    between atoms: N1_1  and  N2_4
REMARK    2  A    between atoms: N2_4  and  N3_5
REMARK    3  A    between atoms: N3_5  and  C1_7
REMARK    4  A    between atoms: C2_14  and  C3_15
REMARK    5  A    between atoms: C3_15  and  C4_16
REMARK    6  A    between atoms: C4_16  and  N7_17
REMARK    7  A    between atoms: C8_26  and  C9_27
REMARK    8  A    between atoms: N11_29  and  N12_31
REMARK       I    between atoms: N12_31  and  C10_33
REMARK    9  A    between atoms: C11_38  and  C12_39
REMARK   10  A    between atoms: C12_39  and  O2_40
REMARK   11  A    between atoms: C12_39  and  C13_42
REMARK   12  A    between atoms: C13_42  and  N15_43
REMARK   13  A    between atoms: C16_46  and  C17_47
REMARK   14  A    between atoms: C17_47  and  O3_48
ROOT
HETATM    1  N7  UNL     1      37.121  91.872  -2.342  1.00  0.00    -0.225 N
ATOM      2  H7  UNL     1      36.842  92.662  -2.923  1.00  0.00     0.177 HD
HETATM    3  C5  UNL     1      36.382  91.616  -1.352  1.00  0.00     0.688 A
HETATM    4  N8  UNL     1      36.608  90.607  -0.481  1.00  0.00    -0.187 N
ATOM      5  H8  UNL     1      37.426  90.015  -0.626  1.00  0.00     0.185 HD
HETATM    6  C6  UNL     1      35.804  90.346   0.567  1.00  0.00     0.199 A
HETATM    7  N9  UNL     1      34.733  91.124   0.754  1.00  0.00    -0.335 N
ATOM      8  H9  UNL     1      34.104  90.955   1.539  1.00  0.00     0.168 HD
HETATM    9  C7  UNL     1      34.493  92.137  -0.106  1.00  0.00     0.161 A
HETATM   10  C8  UNL     1      33.439  93.061  -0.095  1.00  0.00     0.122 A
HETATM   11  N14 UNL     1      33.666  93.839  -1.151  1.00  0.00    -0.337 N
ATOM     12  H14 UNL     1      33.076  94.622  -1.432  1.00  0.00     0.167 HD
HETATM   13  C11 UNL     1      34.801  93.443  -1.807  1.00  0.00     0.138 A
HETATM   14  N16 UNL     1      35.281  92.405  -1.148  1.00  0.00    -0.116 N
ENDROOT
BRANCH   1  15
HETATM   15  C4  UNL     1      38.290  91.188  -2.736  1.00  0.00     0.144 C
BRANCH  15  16
HETATM   16  C3  UNL     1      38.006  89.703  -3.042  1.00  0.00     0.083 C
BRANCH  16  17
HETATM   17  C2  UNL     1      38.405  89.371  -4.422  1.00  0.00     0.076 A
HETATM   18  C1  UNL     1      39.651  89.091  -4.936  1.00  0.00     0.172 A
HETATM   19  N4  UNL     1      39.528  88.852  -6.246  1.00  0.00    -0.268 N
HETATM   20  N5  UNL     1      38.257  88.977  -6.548  1.00  0.00    -0.241 N
ATOM     21  H4  UNL     1      40.283  88.616  -6.890  1.00  0.00     0.190 HD
HETATM   22  N6  UNL     1      37.572  89.286  -5.475  1.00  0.00    -0.287 N
ATOM     23  H5  UNL     1      37.861  88.852  -7.480  1.00  0.00     0.208 HD
ATOM     24  H6  UNL     1      36.563  89.439  -5.443  1.00  0.00     0.188 HD
BRANCH  18  25
HETATM   25  N3  UNL     1      40.862  89.061  -4.193  1.00  0.00    -0.197 N
ATOM     26  H3  UNL     1      41.030  89.695  -3.412  1.00  0.00     0.205 HD
BRANCH  25  27
HETATM   27  N2  UNL     1      41.705  88.217  -4.549  1.00  0.00    -0.242 NA
BRANCH  27  28
HETATM   28  N1  UNL     1      42.495  87.291  -4.583  1.00  0.00    -0.260 N
ATOM     29  H12 UNL     1      42.570  87.231  -3.567  1.00  0.00     0.193 HD
ATOM     30  H11 UNL     1      43.124  86.547  -4.885  1.00  0.00     0.193 HD
ENDBRANCH  27  28
ENDBRANCH  25  27
ENDBRANCH  18  25
ENDBRANCH  16  17
ENDBRANCH  15  16
ENDBRANCH   1  15
BRANCH  13  31
HETATM   31  C12 UNL     1      35.268  94.159  -3.037  1.00  0.00     0.205 C
BRANCH  31  32
HETATM   32  O2  UNL     1      34.926  95.518  -2.825  1.00  0.00    -0.386 OA
ATOM     33  H2  UNL     1      34.191  95.497  -2.224  1.00  0.00     0.210 HD
ENDBRANCH  31  32
BRANCH  31  34
HETATM   34  C13 UNL     1      34.471  93.673  -4.218  1.00  0.00     0.167 C
BRANCH  34  35
HETATM   35  N15 UNL     1      35.249  93.280  -5.358  1.00  0.00    -0.325 N
HETATM   36  C14 UNL     1      35.597  94.221  -6.429  1.00  0.00     0.131 C
HETATM   37  C15 UNL     1      37.104  94.230  -6.537  1.00  0.00     0.055 C
HETATM   38  C16 UNL     1      37.739  92.884  -6.414  1.00  0.00     0.158 C
HETATM   39  O4  UNL     1      36.812  91.813  -6.401  1.00  0.00    -0.296 OA
HETATM   40  C18 UNL     1      35.721  91.956  -5.519  1.00  0.00     0.363 C
HETATM   41  O5  UNL     1      35.211  90.999  -4.926  1.00  0.00    -0.238 OA
BRANCH  38  42
HETATM   42  C17 UNL     1      38.781  92.703  -7.498  1.00  0.00     0.196 C
BRANCH  42  43
HETATM   43  O3  UNL     1      39.705  91.720  -7.152  1.00  0.00    -0.398 OA
ATOM     44  H3  UNL     1      40.131  91.360  -7.921  1.00  0.00     0.209 HD
ENDBRANCH  42  43
ENDBRANCH  38  42
ENDBRANCH  34  35
ENDBRANCH  31  34
ENDBRANCH  13  31
BRANCH  10  45
HETATM   45  C9  UNL     1      32.357  93.123   0.874  1.00  0.00     0.161 C
HETATM   46  N10 UNL     1      31.643  91.950   1.192  1.00  0.00    -0.079 NA
HETATM   47  N11 UNL     1      32.070  94.245   1.421  1.00  0.00    -0.282 N
ATOM     48  H11 UNL     1      32.611  95.070   1.161  1.00  0.00     0.188 HD
BRANCH  47  49
HETATM   49  N12 UNL     1      31.044  94.384   2.360  1.00  0.00    -0.253 N
HETATM   50  C10 UNL     1      30.087  95.401   2.192  1.00  0.00     0.347 C
HETATM   51  N13 UNL     1      29.046  95.551   3.133  1.00  0.00    -0.038 NA
HETATM   52  O1  UNL     1      30.150  96.172   1.216  1.00  0.00    -0.249 OA
ATOM     53  H12 UNL     1      30.991  93.755   3.161  1.00  0.00     0.191 HD
ENDBRANCH  47  49
ENDBRANCH  10  45
TORSDOF 14
ENDMDL