MODEL 3
REMARK VINA RESULT: -5.851893212      2.866      6.570
REMARK  10 active torsions:
REMARK  status: ('A' for Active; 'I' for Inactive)
REMARK    1  A    between atoms: C2_2  and  N1_3
REMARK    2  A    between atoms: C5_8  and  S1_9
REMARK    3  A    between atoms: S1_9  and  C6_11
REMARK    4  A    between atoms: C6_11  and  N3_15
REMARK    5  A    between atoms: N3_15  and  C7_17
REMARK    6  A    between atoms: C7_17  and  C8_18
REMARK    7  A    between atoms: C8_18  and  N4_19
REMARK       I    between atoms: N4_19  and  C9_21
REMARK    8  A    between atoms: C13_31  and  S3_32
REMARK    9  A    between atoms: S3_32  and  C14_33
REMARK   10  A    between atoms: C16_43  and  C17_44
ROOT
HETATM    1  N1  UNL     1      34.900  86.662  -4.972  1.00  0.00    -0.388 N
ATOM      2  H1  UNL     1      34.010  87.069  -4.684  1.00  0.00     0.159 HD
HETATM    3  C3  UNL     1      35.924  87.422  -4.882  1.00  0.00     0.098 C
HETATM    4  C4  UNL     1      37.308  87.117  -5.218  1.00  0.00     0.220 C
HETATM    5  O1  UNL     1      37.689  86.109  -5.868  1.00  0.00    -0.288 OA
HETATM    6  C5  UNL     1      38.167  88.211  -4.655  1.00  0.00     0.401 C
HETATM    7  N7  UNL     1      37.257  89.313  -4.692  1.00  0.00     0.152 N
HETATM    8  C10 UNL     1      35.931  88.800  -4.404  1.00  0.00     0.341 C
HETATM    9  S2  UNL     1      34.816  89.886  -5.384  1.00  0.00    -0.123 SA
HETATM   10  C11 UNL     1      35.681  91.509  -5.321  1.00  0.00     0.114 C
HETATM   11  C12 UNL     1      36.618  91.534  -4.160  1.00  0.00    -0.021 C
HETATM   12  C13 UNL     1      36.632  92.582  -3.341  1.00  0.00     0.058 C
HETATM   13  C16 UNL     1      37.565  90.416  -3.852  1.00  0.00     0.357 C
ENDROOT
BRANCH   6  14
HETATM   14  S1  UNL     1      39.587  88.560  -5.586  1.00  0.00     0.125 S
HETATM   15  O2  UNL     1      39.469  89.734  -6.721  1.00  0.00    -0.247 OA
BRANCH  14  16
HETATM   16  C6  UNL     1      41.099  88.357  -4.817  1.00  0.00     0.167 C
HETATM   17  N2  UNL     1      41.302  89.088  -3.741  1.00  0.00    -0.378 N
ATOM     18  H22 UNL     1      40.543  89.708  -3.461  1.00  0.00     0.158 HD
ATOM     19  H21 UNL     1      42.204  88.966  -3.282  1.00  0.00     0.158 HD
BRANCH  16  20
HETATM   20  N3  UNL     1      42.146  87.501  -5.204  1.00  0.00    -0.368 N
ATOM     21  H3  UNL     1      43.086  87.891  -5.271  1.00  0.00     0.161 HD
BRANCH  20  22
HETATM   22  C7  UNL     1      41.967  86.114  -5.509  1.00  0.00     0.141 C
BRANCH  22  23
HETATM   23  C8  UNL     1      41.766  85.882  -6.992  1.00  0.00     0.142 C
BRANCH  23  24
HETATM   24  N4  UNL     1      40.453  85.311  -7.215  1.00  0.00    -0.363 N
HETATM   25  C9  UNL     1      39.827  85.358  -8.491  1.00  0.00     0.181 C
HETATM   26  N5  UNL     1      38.961  86.286  -8.700  1.00  0.00    -0.374 N
HETATM   27  N6  UNL     1      40.150  84.402  -9.512  1.00  0.00    -0.064 NA
ATOM     28  H52 UNL     1      38.731  86.965  -7.974  1.00  0.00     0.158 HD
ATOM     29  H51 UNL     1      38.512  86.321  -9.615  1.00  0.00     0.158 HD
ATOM     30  H4  UNL     1      39.967  84.864  -6.438  1.00  0.00     0.162 HD
ENDBRANCH  23  24
ENDBRANCH  22  23
ENDBRANCH  20  22
ENDBRANCH  16  20
ENDBRANCH  14  16
ENDBRANCH   6  14
BRANCH  13  31
HETATM   31  C17 UNL     1      37.407  90.125  -2.400  1.00  0.00     0.212 C
HETATM   32  O3  UNL     1      38.393  90.013  -1.621  1.00  0.00    -0.646 OA
HETATM   33  O4  UNL     1      36.155  89.956  -1.795  1.00  0.00    -0.646 OA
ENDBRANCH  13  31
BRANCH   1  34
HETATM   34  C2  UNL     1      34.856  85.310  -5.429  1.00  0.00     0.115 C
HETATM   35  C1  UNL     1      35.028  84.309  -4.303  1.00  0.00     0.026 C
ENDBRANCH   1  34
BRANCH  12  36
HETATM   36  S3  UNL     1      35.512  93.950  -3.654  1.00  0.00    -0.075 SA
BRANCH  36  37
HETATM   37  C14 UNL     1      34.580  94.254  -2.132  1.00  0.00     0.134 A
HETATM   38  N8  UNL     1      34.155  95.413  -1.650  1.00  0.00    -0.286 N
HETATM   39  N9  UNL     1      33.511  95.451  -0.557  1.00  0.00    -0.279 N
ATOM     40  H8  UNL     1      34.346  96.276  -2.158  1.00  0.00     0.188 HD
HETATM   41  C15 UNL     1      33.276  94.301   0.088  1.00  0.00     0.159 A
ATOM     42  H9  UNL     1      33.179  96.338  -0.178  1.00  0.00     0.189 HD
HETATM   43  N10 UNL     1      32.636  94.132   1.222  1.00  0.00    -0.379 N
HETATM   44  S4  UNL     1      34.019  93.163  -0.942  1.00  0.00    -0.026 SA
ATOM     45 2H10 UNL     1      32.192  94.814   1.838  1.00  0.00     0.158 HD
ATOM     46 1H10 UNL     1      32.457  93.257   1.713  1.00  0.00     0.158 HD
ENDBRANCH  36  37
ENDBRANCH  12  36
TORSDOF 10
ENDMDL