MODEL 3
REMARK VINA RESULT: -6.591474582      3.211     10.370
REMARK  11 active torsions:
REMARK  status: ('A' for Active; 'I' for Inactive)
REMARK    1  A    between atoms: N1_1  and  C1_5
REMARK    2  A    between atoms: C1_5  and  C2_6
REMARK    3  A    between atoms: C2_6  and  N2_7
REMARK       I    between atoms: N2_7  and  C3_9
REMARK       I    between atoms: C3_9  and  N5_15
REMARK    4  A    between atoms: N3_10  and  N4_12
REMARK    5  A    between atoms: C6_18  and  N6_19
REMARK    6  A    between atoms: C6_18  and  N7_23
REMARK    7  A    between atoms: N9_29  and  C10_31
REMARK    8  A    between atoms: C10_31  and  C11_32
REMARK    9  A    between atoms: C11_32  and  C12_34
REMARK   10  A    between atoms: C12_34  and  C13_35
REMARK   11  A    between atoms: C16_44  and  N13_45
ROOT
HETATM    1  N7  UNL     1      37.282  90.798  -5.116  1.00  0.00    -0.292 N
HETATM    2  C7  UNL     1      37.560  92.006  -5.693  1.00  0.00     0.188 A
HETATM    3  N8  UNL     1      37.138  92.970  -4.885  1.00  0.00    -0.346 N
ATOM      4  H8  UNL     1      37.211  93.974  -5.052  1.00  0.00     0.167 HD
HETATM    5  C8  UNL     1      36.592  92.376  -3.797  1.00  0.00     0.123 A
HETATM    6  C9  UNL     1      36.013  92.872  -2.668  1.00  0.00     0.148 A
HETATM    7  N9  UNL     1      35.919  94.141  -2.515  1.00  0.00    -0.367 N
ATOM      8  H9  UNL     1      36.287  94.737  -3.257  1.00  0.00     0.161 HD
HETATM    9  N12 UNL     1      35.564  91.984  -1.760  1.00  0.00    -0.174 N
ATOM     10  H12 UNL     1      35.128  92.347  -0.912  1.00  0.00     0.186 HD
HETATM   11  C16 UNL     1      35.652  90.651  -1.901  1.00  0.00     0.683 A
HETATM   12  N15 UNL     1      36.229  90.138  -3.027  1.00  0.00    -0.174 N
ATOM     13  H15 UNL     1      36.312  89.131  -3.169  1.00  0.00     0.186 HD
HETATM   14  C21 UNL     1      36.681  91.008  -3.939  1.00  0.00     0.157 A
ENDROOT
BRANCH   1  15
HETATM   15  C6  UNL     1      37.634  89.575  -5.780  1.00  0.00     0.206 C
HETATM   16  C5  UNL     1      38.817  88.983  -4.997  1.00  0.00     0.082 C
HETATM   17  C4  UNL     1      38.880  87.546  -5.388  1.00  0.00     0.145 C
HETATM   18  N5  UNL     1      38.950  87.436  -6.828  1.00  0.00    -0.216 N
HETATM   19  C3  UNL     1      39.498  86.229  -7.328  1.00  0.00     0.690 C
HETATM   20  C23 UNL     1      38.513  88.443  -7.766  1.00  0.00     0.145 C
HETATM   21  N2  UNL     1      40.522  85.564  -6.633  1.00  0.00    -0.223 N
HETATM   22  N3  UNL     1      39.051  85.746  -8.422  1.00  0.00    -0.139 N
ATOM     23  H2  UNL     1      40.280  84.735  -6.090  1.00  0.00     0.177 HD
ATOM     24  H3  UNL     1      38.308  86.250  -8.906  1.00  0.00     0.205 HD
HETATM   25  C22 UNL     1      38.101  89.742  -7.177  1.00  0.00     0.082 C
BRANCH  21  26
HETATM   26  C2  UNL     1      41.905  85.997  -6.650  1.00  0.00     0.165 C
BRANCH  26  27
HETATM   27  C1  UNL     1      42.450  86.139  -5.246  1.00  0.00     0.249 C
BRANCH  27  28
HETATM   28  N1  UNL     1      42.435  87.511  -4.814  1.00  0.00    -0.078 N
ATOM     29  H13 UNL     1      42.520  88.152  -5.603  1.00  0.00     0.274 HD
ATOM     30  H12 UNL     1      41.511  87.789  -4.484  1.00  0.00     0.274 HD
ATOM     31  H11 UNL     1      43.151  87.688  -4.110  1.00  0.00     0.274 HD
ENDBRANCH  27  28
ENDBRANCH  26  27
ENDBRANCH  21  26
BRANCH  22  32
HETATM   32  N4  UNL     1      39.527  84.567  -8.987  1.00  0.00    -0.331 N
ATOM     33  H42 UNL     1      40.531  84.395  -8.935  1.00  0.00     0.177 HD
ATOM     34  H41 UNL     1      38.924  83.881  -9.441  1.00  0.00     0.177 HD
ENDBRANCH  22  32
BRANCH  15  35
HETATM   35  N6  UNL     1      36.498  88.690  -5.728  1.00  0.00    -0.052 N
ATOM     36  H63 UNL     1      36.367  88.190  -6.608  1.00  0.00     0.277 HD
ATOM     37  H62 UNL     1      36.668  87.889  -5.120  1.00  0.00     0.277 HD
ATOM     38  H61 UNL     1      35.657  89.200  -5.455  1.00  0.00     0.277 HD
ENDBRANCH  15  35
ENDBRANCH   1  15
BRANCH  11  39
HETATM   39  N13 UNL     1      35.147  89.797  -0.886  1.00  0.00    -0.214 N
HETATM   40  C17 UNL     1      35.861  89.671   0.369  1.00  0.00     0.168 C
HETATM   41  C18 UNL     1      35.096  88.849   1.369  1.00  0.00     0.252 C
HETATM   42  N14 UNL     1      34.700  87.573   0.812  1.00  0.00    -0.072 N
HETATM   43  C19 UNL     1      34.107  87.644  -0.482  1.00  0.00     0.252 C
ATOM     44 2H14 UNL     1      35.492  86.931   0.802  1.00  0.00     0.277 HD
ATOM     45 1H14 UNL     1      34.082  87.082   1.458  1.00  0.00     0.277 HD
HETATM   46  C20 UNL     1      33.929  89.026  -1.030  1.00  0.00     0.168 C
ENDBRANCH  11  39
BRANCH   7  47
HETATM   47  C10 UNL     1      35.333  94.781  -1.375  1.00  0.00     0.200 C
BRANCH  47  48
HETATM   48  C11 UNL     1      33.990  95.298  -1.730  1.00  0.00     0.149 C
HETATM   49  O1  UNL     1      33.765  95.656  -2.857  1.00  0.00    -0.296 OA
BRANCH  48  50
HETATM   50  C12 UNL     1      32.945  95.360  -0.665  1.00  0.00     0.138 C
BRANCH  50  51
HETATM   51  C13 UNL     1      32.701  93.976  -0.192  1.00  0.00     0.032 A
HETATM   52  C14 UNL     1      32.140  92.940  -0.892  1.00  0.00     0.114 A
HETATM   53  N10 UNL     1      32.121  91.882  -0.063  1.00  0.00    -0.360 N
HETATM   54  C15 UNL     1      32.648  92.219   1.129  1.00  0.00     0.180 A
ATOM     55  H10 UNL     1      31.760  90.959  -0.302  1.00  0.00     0.166 HD
HETATM   56  N11 UNL     1      33.005  93.513   1.044  1.00  0.00    -0.354 N
ATOM     57  H11 UNL     1      33.435  94.059   1.790  1.00  0.00     0.166 HD
ENDBRANCH  50  51
ENDBRANCH  48  50
ENDBRANCH  47  48
ENDBRANCH   7  47
TORSDOF 11
ENDMDL