MODEL 5
REMARK VINA RESULT: -6.756612764      2.208      5.233
REMARK  7 active torsions:
REMARK  status: ('A' for Active; 'I' for Inactive)
REMARK       I    between atoms: C1_2  and  N1_3
REMARK    1  A    between atoms: C1_2  and  C13_23
REMARK    2  A    between atoms: N1_3  and  C2_5
REMARK    3  A    between atoms: C2_5  and  C3_6
REMARK    4  A    between atoms: N2_9  and  C6_10
REMARK    5  A    between atoms: C6_10  and  O2_11
REMARK    6  A    between atoms: C6_10  and  C7_13
REMARK    7  A    between atoms: C10_16  and  N3_17
ROOT
HETATM    1  C3  UNL     1      31.659  42.587   9.106  1.00  0.00     0.006 C
HETATM    2  C4  UNL     1      32.040  43.123   7.780  1.00  0.00     0.026 C
HETATM    3  C5  UNL     1      33.495  43.139   7.442  1.00  0.00     0.125 C
HETATM    4  N2  UNL     1      34.285  43.500   8.682  1.00  0.00    -0.360 N
HETATM    5  C11 UNL     1      34.083  42.527   9.706  1.00  0.00     0.125 C
HETATM    6  C12 UNL     1      32.661  42.785  10.215  1.00  0.00     0.026 C
ENDROOT
BRANCH   1   7
HETATM    7  C2  UNL     1      30.364  43.251   9.559  1.00  0.00     0.127 C
BRANCH   7   8
HETATM    8  N1  UNL     1      30.071  44.418   8.767  1.00  0.00    -0.356 N
HETATM    9  C1  UNL     1      28.943  45.191   9.056  1.00  0.00     0.258 C
HETATM   10  O1  UNL     1      28.185  44.882   9.994  1.00  0.00    -0.267 OA
ATOM     11  H1  UNL     1      30.686  44.681   7.996  1.00  0.00     0.162 HD
BRANCH   9  12
HETATM   12  C13 UNL     1      28.672  46.383   8.223  1.00  0.00     0.074 A
HETATM   13  C14 UNL     1      27.530  47.133   8.170  1.00  0.00     0.027 A
HETATM   14  C15 UNL     1      27.512  48.176   7.335  1.00  0.00     0.033 A
HETATM   15  C16 UNL     1      28.640  48.413   6.597  1.00  0.00     0.075 A
HETATM   16 CL1  UNL     1      28.911  49.710   5.416  1.00  0.00    -0.076 Cl
HETATM   17  S1  UNL     1      29.692  47.169   7.094  1.00  0.00    -0.072 SA
ENDBRANCH   9  12
ENDBRANCH   7   8
ENDBRANCH   1   7
BRANCH   4  18
HETATM   18  C6  UNL     1      35.064  44.642   8.659  1.00  0.00     0.173 C
BRANCH  18  19
HETATM   19  O2  UNL     1      36.335  44.451   8.974  1.00  0.00    -0.344 OA
ATOM     20  H2  UNL     1      36.854  44.031   8.298  1.00  0.00     0.219 HD
ENDBRANCH  18  19
BRANCH  18  21
HETATM   21  C7  UNL     1      34.667  45.986   8.336  1.00  0.00     0.128 A
HETATM   22  C8  UNL     1      33.474  46.645   8.303  1.00  0.00     0.046 A
HETATM   23  C9  UNL     1      33.672  47.982   7.914  1.00  0.00     0.066 A
HETATM   24  C10 UNL     1      35.019  48.057   7.729  1.00  0.00     0.215 A
HETATM   25  O5  UNL     1      35.586  46.918   7.970  1.00  0.00    -0.284 OA
BRANCH  24  26
HETATM   26  N3  UNL     1      35.709  49.252   7.320  1.00  0.00    -0.090 N
HETATM   27  O3  UNL     1      35.359  49.859   6.302  1.00  0.00    -0.530 OA
HETATM   28  O4  UNL     1      36.751  49.735   8.036  1.00  0.00    -0.530 OA
ENDBRANCH  24  26
ENDBRANCH  18  21
ENDBRANCH   4  18
TORSDOF 7
ENDMDL