MODEL 5
REMARK VINA RESULT: -6.582236724      1.929      2.514
REMARK  6 active torsions:
REMARK  status: ('A' for Active; 'I' for Inactive)
REMARK    1  A    between atoms: C2_2  and  O1_3
REMARK    2  A    between atoms: O1_3  and  C3_4
REMARK       I    between atoms: C3_4  and  N1_6
REMARK    3  A    between atoms: N2_9  and  C6_10
REMARK    4  A    between atoms: C6_10  and  C7_11
REMARK    5  A    between atoms: C7_11  and  C8_12
REMARK       I    between atoms: C8_12  and  N3_14
REMARK    6  A    between atoms: N3_14  and  C9_16
ROOT
HETATM    1  C8  UNL     1      35.806  43.994   7.632  1.00  0.00     0.225 C
HETATM    2  O3  UNL     1      35.771  44.510   6.480  1.00  0.00    -0.273 OA
HETATM    3  N3  UNL     1      36.685  44.491   8.607  1.00  0.00    -0.307 N
ATOM      4  H3  UNL     1      36.715  44.085   9.543  1.00  0.00     0.171 HD
ENDROOT
BRANCH   1   5
HETATM    5  C7  UNL     1      34.915  42.858   7.952  1.00  0.00     0.133 C
BRANCH   5   6
HETATM    6  C6  UNL     1      33.982  43.310   9.040  1.00  0.00     0.281 C
BRANCH   6   7
HETATM    7  N2  UNL     1      32.622  42.997   8.640  1.00  0.00     0.092 N
HETATM    8  C5  UNL     1      31.773  42.878   9.822  1.00  0.00     0.292 C
HETATM    9  C4  UNL     1      30.342  42.978   9.346  1.00  0.00     0.158 C
HETATM   10  N1  UNL     1      30.173  44.426   9.107  1.00  0.00    -0.325 N
HETATM   11  C3  UNL     1      29.010  45.110   9.481  1.00  0.00     0.362 C
HETATM   12  C17 UNL     1      31.330  45.051   8.468  1.00  0.00     0.158 C
HETATM   13  O2  UNL     1      28.051  44.500  10.042  1.00  0.00    -0.238 OA
HETATM   14  C16 UNL     1      32.095  43.978   7.714  1.00  0.00     0.292 C
BRANCH  11  15
HETATM   15  O1  UNL     1      28.827  46.473   9.269  1.00  0.00    -0.304 OA
BRANCH  15  16
HETATM   16  C2  UNL     1      28.035  46.922   8.162  1.00  0.00     0.176 C
HETATM   17  C1  UNL     1      28.865  47.655   7.157  1.00  0.00     0.034 C
ENDBRANCH  15  16
ENDBRANCH  11  15
ENDBRANCH   6   7
ENDBRANCH   5   6
ENDBRANCH   1   5
BRANCH   3  18
HETATM   18  C9  UNL     1      37.546  45.598   8.244  1.00  0.00     0.158 A
HETATM   19  O4  UNL     1      37.217  46.849   8.230  1.00  0.00    -0.290 OA
HETATM   20  C10 UNL     1      38.232  47.626   7.849  1.00  0.00     0.117 A
HETATM   21  C11 UNL     1      38.446  48.952   7.662  1.00  0.00     0.075 A
HETATM   22  C13 UNL     1      39.264  46.778   7.613  1.00  0.00     0.050 A
HETATM   23 CL1  UNL     1      37.225  50.249   7.912  1.00  0.00    -0.081 Cl
HETATM   24  C12 UNL     1      39.695  49.320   7.247  1.00  0.00     0.077 A
HETATM   25  S1  UNL     1      40.520  47.829   7.132  1.00  0.00    -0.097 SA
HETATM   26  C14 UNL     1      38.840  45.458   7.863  1.00  0.00     0.009 A
HETATM   27  C15 UNL     1      39.717  44.304   7.702  1.00  0.00     0.054 C
ENDBRANCH   3  18
TORSDOF 6
ENDMDL