MODEL 4
REMARK VINA RESULT: -6.763093403      1.795      2.076
REMARK  6 active torsions:
REMARK  status: ('A' for Active; 'I' for Inactive)
REMARK    1  A    between atoms: C2_2  and  O1_3
REMARK    2  A    between atoms: O1_3  and  C3_4
REMARK       I    between atoms: C3_4  and  N1_6
REMARK    3  A    between atoms: C8_12  and  O4_13
REMARK    4  A    between atoms: O4_13  and  C9_14
REMARK    5  A    between atoms: C9_14  and  C10_15
REMARK       I    between atoms: C10_15  and  N2_17
REMARK    6  A    between atoms: N2_17  and  C11_19
ROOT
HETATM    1  C3  UNL     1      36.942  46.594   8.233  1.00  0.00     0.367 C
HETATM    2  O2  UNL     1      38.041  47.258   8.255  1.00  0.00    -0.238 OA
HETATM    3  N1  UNL     1      37.032  45.220   8.077  1.00  0.00    -0.287 N
HETATM    4  C4  UNL     1      38.292  44.645   7.556  1.00  0.00     0.161 C
HETATM    5  C5  UNL     1      37.982  43.616   6.491  1.00  0.00     0.196 C
HETATM    6  O3  UNL     1      36.592  43.399   6.294  1.00  0.00    -0.347 OA
HETATM    7  C6  UNL     1      35.697  43.376   7.355  1.00  0.00     0.100 A
HETATM    8  C7  UNL     1      34.655  42.508   7.520  1.00  0.00     0.076 A
HETATM    9  C8  UNL     1      33.843  42.604   8.636  1.00  0.00     0.073 A
HETATM   10  C17 UNL     1      34.096  43.585   9.587  1.00  0.00     0.063 A
HETATM   11  C18 UNL     1      35.150  44.457   9.413  1.00  0.00     0.066 A
HETATM   12 CL1  UNL     1      35.528  45.641  10.617  1.00  0.00    -0.082 Cl
HETATM   13  C19 UNL     1      35.949  44.368   8.315  1.00  0.00     0.094 A
ENDROOT
BRANCH   9  14
HETATM   14  O4  UNL     1      32.773  41.743   8.842  1.00  0.00    -0.342 OA
BRANCH  14  15
HETATM   15  C9  UNL     1      31.573  41.900   8.114  1.00  0.00     0.278 C
BRANCH  15  16
HETATM   16  C10 UNL     1      30.827  43.111   8.560  1.00  0.00     0.242 C
HETATM   17  O5  UNL     1      30.296  43.134   9.699  1.00  0.00    -0.271 OA
HETATM   18  N2  UNL     1      30.687  44.259   7.737  1.00  0.00    -0.355 N
ATOM     19  H2  UNL     1      31.108  44.262   6.808  1.00  0.00     0.162 HD
BRANCH  18  20
HETATM   20  C11 UNL     1      29.960  45.420   8.188  1.00  0.00     0.084 C
HETATM   21  C12 UNL     1      28.493  45.039   8.236  1.00  0.00     0.025 C
HETATM   22  C13 UNL     1      27.626  46.173   8.685  1.00  0.00     0.002 C
HETATM   23  C14 UNL     1      27.914  47.396   7.869  1.00  0.00     0.000 C
HETATM   24  C15 UNL     1      29.374  47.764   7.832  1.00  0.00     0.002 C
HETATM   25  C16 UNL     1      30.102  46.575   7.193  1.00  0.00     0.025 C
ENDBRANCH  18  20
ENDBRANCH  15  16
ENDBRANCH  14  15
ENDBRANCH   9  14
BRANCH   1  26
HETATM   26  O1  UNL     1      35.804  47.339   8.357  1.00  0.00    -0.304 OA
BRANCH  26  27
HETATM   27  C2  UNL     1      34.999  47.655   7.202  1.00  0.00     0.176 C
HETATM   28  C1  UNL     1      33.570  47.354   7.563  1.00  0.00     0.034 C
ENDBRANCH  26  27
ENDBRANCH   1  26
TORSDOF 6
ENDMDL