MODEL 3
REMARK VINA RESULT: -6.395424078      4.617      6.400
REMARK  7 active torsions:
REMARK  status: ('A' for Active; 'I' for Inactive)
REMARK    1  A    between atoms: S1_2  and  C2_3
REMARK    2  A    between atoms: C3_4  and  S2_5
REMARK    3  A    between atoms: S2_5  and  C4_6
REMARK    4  A    between atoms: C4_6  and  C5_7
REMARK       I    between atoms: C5_7  and  N1_9
REMARK    5  A    between atoms: N1_9  and  C6_11
REMARK    6  A    between atoms: C10_16  and  C11_17
REMARK    7  A    between atoms: C11_17  and  N2_18
ROOT
HETATM    1  C2  UNL     1      33.971  45.351   8.280  1.00  0.00     0.065 A
HETATM    2  C3  UNL     1      33.757  44.034   7.759  1.00  0.00     0.131 A
HETATM    3  O2  UNL     1      32.643  44.017   7.164  1.00  0.00    -0.303 OA
HETATM    4  C10 UNL     1      32.047  45.181   7.219  1.00  0.00     0.105 A
HETATM    5  C16 UNL     1      32.897  46.077   7.941  1.00  0.00     0.085 A
HETATM    6 CL1  UNL     1      32.512  47.746   8.231  1.00  0.00    -0.080 Cl
ENDROOT
BRANCH   2   7
HETATM    7  S2  UNL     1      35.107  42.891   8.128  1.00  0.00    -0.094 SA
BRANCH   7   8
HETATM    8  C4  UNL     1      36.185  42.634   6.736  1.00  0.00     0.184 C
BRANCH   8   9
HETATM    9  C5  UNL     1      37.290  43.612   6.707  1.00  0.00     0.227 C
HETATM   10  O1  UNL     1      37.157  44.774   6.279  1.00  0.00    -0.273 OA
HETATM   11  N1  UNL     1      38.575  43.179   7.201  1.00  0.00    -0.352 N
ATOM     12  H1  UNL     1      38.652  42.226   7.555  1.00  0.00     0.163 HD
BRANCH  11  13
HETATM   13  C6  UNL     1      39.768  44.012   7.228  1.00  0.00     0.022 C
HETATM   14  C7  UNL     1      39.614  45.172   8.174  1.00  0.00     0.037 C
HETATM   15  C8  UNL     1      40.132  44.527   5.835  1.00  0.00     0.037 C
HETATM   16  C9  UNL     1      40.938  43.189   7.731  1.00  0.00     0.037 C
ENDBRANCH  11  13
ENDBRANCH   8   9
ENDBRANCH   7   8
ENDBRANCH   2   7
BRANCH   1  17
HETATM   17  S1  UNL     1      35.363  45.856   9.240  1.00  0.00    -0.129 SA
HETATM   18  C1  UNL     1      35.026  45.667  11.020  1.00  0.00     0.095 C
ENDBRANCH   1  17
BRANCH   4  19
HETATM   19  C11 UNL     1      30.751  45.632   6.722  1.00  0.00     0.339 C
BRANCH  19  20
HETATM   20  N2  UNL     1      29.574  45.261   7.484  1.00  0.00     0.098 N
HETATM   21  C12 UNL     1      29.014  46.590   7.869  1.00  0.00     0.299 C
HETATM   22  C13 UNL     1      27.665  46.228   8.453  1.00  0.00     0.198 C
HETATM   23  O3  UNL     1      27.958  45.732   9.703  1.00  0.00    -0.388 OA
HETATM   24  C14 UNL     1      28.759  44.634   9.712  1.00  0.00     0.198 C
HETATM   25  C15 UNL     1      29.817  44.510   8.648  1.00  0.00     0.299 C
ENDBRANCH  19  20
ENDBRANCH   4  19
TORSDOF 7
ENDMDL