MODEL 2
REMARK VINA RESULT: -7.114197604      2.717      4.238
REMARK  6 active torsions:
REMARK  status: ('A' for Active; 'I' for Inactive)
REMARK    1  A    between atoms: N1_1  and  C1_4
REMARK    2  A    between atoms: N4_10  and  C3_11
REMARK    3  A    between atoms: N5_14  and  C6_15
REMARK    4  A    between atoms: C6_15  and  C7_16
REMARK    5  A    between atoms: C7_16  and  C8_17
REMARK    6  A    between atoms: C7_16  and  N6_24
ROOT
HETATM    1  C3  UNL     1      29.745  48.306   7.034  1.00  0.00     0.130 C
HETATM    2  C4  UNL     1      30.050  47.602   5.704  1.00  0.00     0.058 C
HETATM    3  C5  UNL     1      31.554  47.623   5.468  1.00  0.00     0.275 C
HETATM    4  N5  UNL     1      32.190  47.398   6.780  1.00  0.00     0.094 N
HETATM    5  C19 UNL     1      32.165  48.684   7.422  1.00  0.00     0.275 C
HETATM    6  C20 UNL     1      30.808  49.366   7.178  1.00  0.00     0.058 C
ENDROOT
BRANCH   4   7
HETATM    7  C6  UNL     1      33.461  46.778   6.600  1.00  0.00     0.330 C
BRANCH   7   8
HETATM    8  C7  UNL     1      33.548  45.317   6.755  1.00  0.00     0.046 C
BRANCH   8   9
HETATM    9  C8  UNL     1      32.633  44.619   7.645  1.00  0.00    -0.012 A
HETATM   10  C9  UNL     1      33.073  44.037   8.841  1.00  0.00     0.015 A
HETATM   11  C10 UNL     1      32.211  43.410   9.694  1.00  0.00     0.024 A
HETATM   12  C11 UNL     1      30.880  43.323   9.418  1.00  0.00     0.034 A
HETATM   13 CL1  UNL     1      29.735  42.518  10.500  1.00  0.00    -0.084 Cl
HETATM   14  C12 UNL     1      30.398  43.874   8.265  1.00  0.00     0.024 A
HETATM   15  C13 UNL     1      31.283  44.502   7.417  1.00  0.00     0.015 A
ENDBRANCH   8   9
BRANCH   8  16
HETATM   16  N6  UNL     1      34.863  44.780   6.883  1.00  0.00    -0.382 N
HETATM   17  C14 UNL     1      35.189  43.771   5.912  1.00  0.00     0.123 C
HETATM   18  C15 UNL     1      36.332  42.950   6.382  1.00  0.00     0.020 C
HETATM   19  C16 UNL     1      37.417  43.689   7.083  1.00  0.00     0.003 C
HETATM   20  C17 UNL     1      36.967  44.827   7.929  1.00  0.00     0.020 C
HETATM   21  C18 UNL     1      35.948  45.637   7.104  1.00  0.00     0.123 C
ENDBRANCH   8  16
ENDBRANCH   7   8
ENDBRANCH   4   7
BRANCH   1  22
HETATM   22  N4  UNL     1      28.447  48.971   6.952  1.00  0.00    -0.118 N
HETATM   23  C1  UNL     1      27.270  48.553   7.427  1.00  0.00     0.694 A
HETATM   24  N2  UNL     1      26.308  49.468   7.139  1.00  0.00    -0.185 N
HETATM   25  C2  UNL     1      26.901  50.467   6.476  1.00  0.00     0.215 A
ATOM     26  H2  UNL     1      25.319  49.405   7.382  1.00  0.00     0.185 HD
HETATM   27  N3  UNL     1      28.199  50.151   6.370  1.00  0.00    -0.279 N
ATOM     28  H3  UNL     1      28.902  50.730   5.909  1.00  0.00     0.188 HD
BRANCH  23  29
HETATM   29  N1  UNL     1      27.064  47.456   8.060  1.00  0.00    -0.233 N
ATOM     30  H12 UNL     1      26.184  46.942   8.089  1.00  0.00     0.174 HD
ATOM     31  H11 UNL     1      27.767  46.968   8.614  1.00  0.00     0.174 HD
ENDBRANCH  23  29
ENDBRANCH   1  22
TORSDOF 6
ENDMDL