MODEL 4
REMARK VINA RESULT: -7.191601118      5.329      8.140
REMARK  6 active torsions:
REMARK  status: ('A' for Active; 'I' for Inactive)
REMARK    1  A    between atoms: C2_2  and  O1_3
REMARK    2  A    between atoms: O1_3  and  C3_4
REMARK    3  A    between atoms: C4_7  and  N2_8
REMARK    4  A    between atoms: C7_11  and  N3_12
REMARK    5  A    between atoms: C15_22  and  N5_23
REMARK    6  A    between atoms: N5_23  and  C16_24
ROOT
HETATM    1  C3  UNL     1      31.911  44.335   8.668  1.00  0.00     0.201 A
HETATM    2  N1  UNL     1      32.934  45.078   8.251  1.00  0.00    -0.167 N
ATOM      3  H1  UNL     1      33.871  44.677   8.291  1.00  0.00     0.186 HD
HETATM    4  C4  UNL     1      32.794  46.328   7.781  1.00  0.00     0.684 A
HETATM    5  N4  UNL     1      31.576  46.860   7.723  1.00  0.00    -0.161 N
ATOM      6  H4  UNL     1      31.484  47.810   7.363  1.00  0.00     0.187 HD
HETATM    7  C15 UNL     1      30.432  46.203   8.122  1.00  0.00     0.231 A
HETATM    8  C21 UNL     1      30.640  44.925   8.594  1.00  0.00     0.225 A
HETATM    9  F1  UNL     1      29.593  44.199   9.008  1.00  0.00    -0.196 F
ENDROOT
BRANCH   4  10
HETATM   10  N2  UNL     1      33.969  47.035   7.364  1.00  0.00    -0.217 N
HETATM   11  C5  UNL     1      33.770  48.219   6.578  1.00  0.00     0.143 C
HETATM   12  C6  UNL     1      35.063  48.961   6.312  1.00  0.00     0.045 C
HETATM   13  C7  UNL     1      35.881  48.888   7.583  1.00  0.00     0.086 C
HETATM   14  C13 UNL     1      36.366  47.466   7.716  1.00  0.00     0.045 C
HETATM   15  C14 UNL     1      35.230  46.495   7.770  1.00  0.00     0.143 C
BRANCH  13  16
HETATM   16  N3  UNL     1      36.932  49.836   7.677  1.00  0.00    -0.389 N
HETATM   17  C8  UNL     1      38.258  49.361   7.709  1.00  0.00     0.058 C
HETATM   18  C9  UNL     1      39.124  50.218   6.814  1.00  0.00     0.044 C
HETATM   19  C10 UNL     1      39.027  51.630   7.356  1.00  0.00     0.007 C
HETATM   20  C11 UNL     1      37.630  52.116   7.057  1.00  0.00     0.020 C
HETATM   21  C12 UNL     1      36.644  50.993   6.922  1.00  0.00     0.122 C
ENDBRANCH  13  16
ENDBRANCH   4  10
BRANCH   1  22
HETATM   22  O1  UNL     1      32.033  43.039   9.159  1.00  0.00    -0.333 OA
BRANCH  22  23
HETATM   23  C2  UNL     1      32.626  42.077   8.293  1.00  0.00     0.173 C
HETATM   24  C1  UNL     1      31.546  41.196   7.751  1.00  0.00     0.034 C
ENDBRANCH  22  23
ENDBRANCH   1  22
BRANCH   7  25
HETATM   25  N5  UNL     1      29.364  46.736   8.046  1.00  0.00    -0.422 NA
BRANCH  25  26
HETATM   26  C16 UNL     1      28.362  47.620   7.970  1.00  0.00     0.165 C
HETATM   27  C17 UNL     1      26.916  47.111   7.922  1.00  0.00     0.039 C
HETATM   28  C18 UNL     1      26.102  48.359   7.550  1.00  0.00     0.003 C
HETATM   29  C19 UNL     1      27.098  49.355   7.012  1.00  0.00     0.003 C
HETATM   30  C20 UNL     1      28.347  48.540   6.747  1.00  0.00     0.039 C
ENDBRANCH  25  26
ENDBRANCH   7  25
TORSDOF 6
ENDMDL