MODEL 3
REMARK VINA RESULT: -7.154661556      0.919      1.282
REMARK  6 active torsions:
REMARK  status: ('A' for Active; 'I' for Inactive)
REMARK    1  A    between atoms: N1_5  and  C4_6
REMARK    2  A    between atoms: C4_6  and  C5_7
REMARK    3  A    between atoms: C5_7  and  N2_8
REMARK    4  A    between atoms: C6_9  and  N3_10
REMARK    5  A    between atoms: N3_10  and  N4_12
REMARK    6  A    between atoms: C7_14  and  C8_15
ROOT
HETATM    1  N2  UNL     1      29.923  46.467   7.806  1.00  0.00    -0.310 N
HETATM    2  C6  UNL     1      28.779  46.877   8.320  1.00  0.00     0.168 A
HETATM    3  S1  UNL     1      28.293  45.578   9.310  1.00  0.00    -0.049 SA
HETATM    4  C12 UNL     1      29.614  44.536   9.013  1.00  0.00     0.052 A
HETATM    5  C13 UNL     1      29.976  43.249   9.457  1.00  0.00     0.024 A
HETATM    6  C14 UNL     1      31.147  42.665   9.018  1.00  0.00     0.018 A
HETATM    7  C15 UNL     1      31.880  43.439   8.145  1.00  0.00     0.090 A
HETATM    8  N6  UNL     1      31.543  44.637   7.732  1.00  0.00    -0.351 N
ATOM      9  H6  UNL     1      32.160  45.125   7.083  1.00  0.00     0.166 HD
HETATM   10  C16 UNL     1      30.374  45.268   8.146  1.00  0.00     0.126 A
ENDROOT
BRANCH   2  11
HETATM   11  N3  UNL     1      28.160  48.028   8.112  1.00  0.00    -0.280 N
ATOM     12  H3  UNL     1      28.684  48.902   8.073  1.00  0.00     0.189 HD
BRANCH  11  13
HETATM   13  N4  UNL     1      26.769  48.019   7.946  1.00  0.00    -0.308 N
HETATM   14  C7  UNL     1      26.151  49.072   7.549  1.00  0.00     0.136 C
ATOM     15  H4  UNL     1      26.243  47.168   8.142  1.00  0.00     0.186 HD
BRANCH  14  16
HETATM   16  C8  UNL     1      24.709  49.075   7.373  1.00  0.00     0.049 A
HETATM   17  C9  UNL     1      23.869  47.954   7.350  1.00  0.00     0.032 A
HETATM   18  C10 UNL     1      22.604  48.444   7.160  1.00  0.00     0.019 A
HETATM   19  C11 UNL     1      22.660  49.810   7.071  1.00  0.00     0.088 A
HETATM   20  N5  UNL     1      23.948  50.166   7.203  1.00  0.00    -0.365 N
ATOM     21  H5  UNL     1      24.296  51.124   7.179  1.00  0.00     0.165 HD
ENDBRANCH  14  16
ENDBRANCH  11  13
ENDBRANCH   2  11
BRANCH   1  22
HETATM   22  C5  UNL     1      30.658  47.364   6.874  1.00  0.00     0.152 C
BRANCH  22  23
HETATM   23  C4  UNL     1      31.599  48.234   7.661  1.00  0.00     0.137 C
BRANCH  23  24
HETATM   24  N1  UNL     1      32.968  47.980   7.403  1.00  0.00    -0.411 N
HETATM   25  C3  UNL     1      33.638  48.868   6.522  1.00  0.00     0.118 C
HETATM   26  C2  UNL     1      34.790  48.202   5.779  1.00  0.00     0.039 C
HETATM   27  C1  UNL     1      35.400  47.132   6.659  1.00  0.00     0.085 C
HETATM   28 CL1  UNL     1      34.662  45.558   6.328  1.00  0.00    -0.125 Cl
HETATM   29  C18 UNL     1      35.206  47.522   8.105  1.00  0.00     0.039 C
HETATM   30  C17 UNL     1      33.738  47.408   8.446  1.00  0.00     0.118 C
ENDBRANCH  23  24
ENDBRANCH  22  23
ENDBRANCH   1  22
TORSDOF 6
ENDMDL