MODEL 1
REMARK VINA RESULT: -6.746821688      0.000      0.000
REMARK  7 active torsions:
REMARK  status: ('A' for Active; 'I' for Inactive)
REMARK    1  A    between atoms: C2_2  and  O1_3
REMARK    2  A    between atoms: O1_3  and  C3_4
REMARK    3  A    between atoms: C3_4  and  C4_6
REMARK    4  A    between atoms: C7_9  and  O3_10
REMARK    5  A    between atoms: C10_16  and  C11_17
REMARK    6  A    between atoms: C11_17  and  C12_19
REMARK    7  A    between atoms: C12_19  and  C13_20
ROOT
HETATM    1  C4  UNL     1      30.049  46.702   7.306  1.00  0.00     0.054 C
HETATM    2  C5  UNL     1      28.705  47.447   7.227  1.00  0.00     0.027 C
HETATM    3  C6  UNL     1      30.295  46.115   5.956  1.00  0.00     0.054 C
HETATM    4  C7  UNL     1      31.700  45.875   5.579  1.00  0.00     0.153 C
HETATM    5  C8  UNL     1      32.737  46.093   6.599  1.00  0.00     0.190 C
HETATM    6  O4  UNL     1      33.272  44.844   7.085  1.00  0.00    -0.308 OA
HETATM    7  C9  UNL     1      34.186  44.698   8.157  1.00  0.00     0.266 C
HETATM    8  O5  UNL     1      34.155  43.633   8.821  1.00  0.00    -0.265 OA
HETATM    9  C10 UNL     1      35.153  45.772   8.490  1.00  0.00     0.123 C
HETATM   10  C17 UNL     1      34.488  46.872   9.260  1.00  0.00     0.045 C
HETATM   11  C18 UNL     1      33.156  47.247   8.777  1.00  0.00    -0.020 C
HETATM   12  C19 UNL     1      32.395  46.973   7.723  1.00  0.00    -0.047 C
HETATM   13  C20 UNL     1      31.086  47.665   7.760  1.00  0.00     0.031 C
HETATM   14  C21 UNL     1      31.091  48.947   6.957  1.00  0.00     0.016 C
ENDROOT
BRANCH   9  15
HETATM   15  C11 UNL     1      36.269  45.192   9.326  1.00  0.00     0.186 C
HETATM   16  F1  UNL     1      36.139  45.583  10.660  1.00  0.00    -0.248 F
BRANCH  15  17
HETATM   17  C12 UNL     1      37.583  45.809   8.825  1.00  0.00     0.073 C
BRANCH  17  18
HETATM   18  C13 UNL     1      37.581  45.974   7.327  1.00  0.00     0.159 A
HETATM   19  O6  UNL     1      38.892  46.422   6.849  1.00  0.00    -0.370 OA
HETATM   20  C14 UNL     1      37.845  47.318   6.713  1.00  0.00     0.080 A
HETATM   21  C15 UNL     1      37.792  48.510   7.635  1.00  0.00     0.048 C
HETATM   22  C16 UNL     1      37.257  47.510   5.314  1.00  0.00     0.048 C
ENDBRANCH  17  18
ENDBRANCH  15  17
ENDBRANCH   9  15
BRANCH   4  23
HETATM   23  O3  UNL     1      32.025  46.566   4.382  1.00  0.00    -0.393 OA
ATOM     24  H3  UNL     1      32.146  45.957   3.663  1.00  0.00     0.210 HD
ENDBRANCH   4  23
BRANCH   1  25
HETATM   25  C3  UNL     1      29.873  45.647   8.320  1.00  0.00     0.268 C
HETATM   26  O2  UNL     1      29.430  45.930   9.447  1.00  0.00    -0.264 OA
BRANCH  25  27
HETATM   27  O1  UNL     1      30.200  44.340   8.027  1.00  0.00    -0.321 OA
BRANCH  27  28
HETATM   28  C2  UNL     1      30.621  43.431   9.054  1.00  0.00     0.174 C
HETATM   29  C1  UNL     1      30.992  42.136   8.345  1.00  0.00     0.034 C
ENDBRANCH  27  28
ENDBRANCH  25  27
ENDBRANCH   1  25
TORSDOF 7
ENDMDL