MODEL 3
REMARK VINA RESULT: -6.456403440      2.135      2.827
REMARK  8 active torsions:
REMARK  status: ('A' for Active; 'I' for Inactive)
REMARK    1  A    between atoms: C3_4  and  C4_5
REMARK    2  A    between atoms: C5_6  and  C6_7
REMARK    3  A    between atoms: C6_7  and  O3_9
REMARK    4  A    between atoms: O3_9  and  C7_10
REMARK    5  A    between atoms: C7_10  and  C8_11
REMARK    6  A    between atoms: C14_19  and  N1_20
REMARK       I    between atoms: N1_20  and  C15_22
REMARK    7  A    between atoms: C15_22  and  O6_24
REMARK    8  A    between atoms: O6_24  and  C16_25
ROOT
HETATM    1  C1  UNL     1      34.382  44.505   6.196  1.00  0.00     0.042 C
HETATM    2  C2  UNL     1      35.132  43.639   7.180  1.00  0.00     0.149 C
HETATM    3  O1  UNL     1      34.396  42.445   7.339  1.00  0.00    -0.344 OA
HETATM    4  C3  UNL     1      33.291  42.376   8.181  1.00  0.00     0.067 C
HETATM    5  C12 UNL     1      33.491  42.970   9.362  1.00  0.00     0.032 C
HETATM    6  C13 UNL     1      34.788  43.613   9.663  1.00  0.00     0.133 C
HETATM    7 CL1  UNL     1      34.519  44.805  10.955  1.00  0.00    -0.118 Cl
HETATM    8  C14 UNL     1      35.361  44.353   8.484  1.00  0.00     0.138 C
ENDROOT
BRANCH   4   9
HETATM    9  C4  UNL     1      32.033  41.759   7.907  1.00  0.00     0.042 C
HETATM   10  C5  UNL     1      30.843  41.966   8.381  1.00  0.00     0.085 C
BRANCH  10  11
HETATM   11  C6  UNL     1      30.370  42.901   9.361  1.00  0.00     0.283 C
HETATM   12  O2  UNL     1      29.935  42.659  10.497  1.00  0.00    -0.260 OA
BRANCH  11  13
HETATM   13  O3  UNL     1      30.381  44.283   9.034  1.00  0.00    -0.316 OA
BRANCH  13  14
HETATM   14  C7  UNL     1      29.779  44.746   7.832  1.00  0.00     0.211 C
BRANCH  14  15
HETATM   15  C8  UNL     1      30.857  45.564   7.112  1.00  0.00     0.145 C
HETATM   16  C9  UNL     1      30.290  46.858   6.600  1.00  0.00     0.036 C
HETATM   17  C10 UNL     1      30.981  47.878   7.480  1.00  0.00     0.029 C
HETATM   18  C11 UNL     1      32.263  47.153   7.830  1.00  0.00     0.168 C
HETATM   19  O4  UNL     1      31.822  45.857   8.050  1.00  0.00    -0.384 OA
ENDBRANCH  14  15
ENDBRANCH  13  14
ENDBRANCH  11  13
ENDBRANCH  10  11
ENDBRANCH   4   9
BRANCH   8  20
HETATM   20  N1  UNL     1      36.757  44.607   8.765  1.00  0.00    -0.328 N
HETATM   21  C15 UNL     1      37.383  45.854   8.515  1.00  0.00     0.361 C
HETATM   22  O5  UNL     1      36.683  46.775   8.027  1.00  0.00    -0.238 OA
ATOM     23  H1  UNL     1      37.318  43.853   9.162  1.00  0.00     0.165 HD
BRANCH  21  24
HETATM   24  O6  UNL     1      38.693  46.111   8.773  1.00  0.00    -0.294 OA
BRANCH  24  25
HETATM   25  C16 UNL     1      39.782  45.821   7.952  1.00  0.00     0.061 C
HETATM   26  C17 UNL     1      40.487  44.605   8.533  1.00  0.00     0.046 C
HETATM   27  C18 UNL     1      39.440  45.504   6.533  1.00  0.00     0.046 C
HETATM   28  C19 UNL     1      40.801  46.947   7.947  1.00  0.00     0.046 C
ENDBRANCH  24  25
ENDBRANCH  21  24
ENDBRANCH   8  20
TORSDOF 8
ENDMDL