MODEL 4
REMARK VINA RESULT: -7.401320532      6.274      8.745
REMARK  5 active torsions:
REMARK  status: ('A' for Active; 'I' for Inactive)
REMARK    1  A    between atoms: C3_7  and  S1_8
REMARK    2  A    between atoms: S1_8  and  C4_9
REMARK    3  A    between atoms: C4_9  and  C5_10
REMARK    4  A    between atoms: C5_10  and  C6_11
REMARK       I    between atoms: C6_11  and  N3_13
REMARK    5  A    between atoms: N3_13  and  C7_15
ROOT
HETATM    1  C6  UNL     1      37.650  42.649   6.442  1.00  0.00     0.218 C
HETATM    2  O1  UNL     1      37.063  41.876   5.609  1.00  0.00    -0.274 OA
HETATM    3  N3  UNL     1      36.928  43.201   7.529  1.00  0.00    -0.356 N
ATOM      4  H3  UNL     1      37.409  43.816   8.185  1.00  0.00     0.162 HD
ENDROOT
BRANCH   3   5
HETATM    5  C7  UNL     1      35.552  42.919   7.728  1.00  0.00     0.092 C
HETATM    6  C8  UNL     1      35.194  42.630   9.208  1.00  0.00     0.052 C
HETATM    7  C9  UNL     1      34.655  43.755  10.003  1.00  0.00    -0.026 C
HETATM    8  C10 UNL     1      33.277  44.225   9.941  1.00  0.00     0.003 C
HETATM    9  C11 UNL     1      32.758  45.095   8.874  1.00  0.00     0.168 C
HETATM   10  O2  UNL     1      33.444  45.968   8.161  1.00  0.00    -0.375 OA
HETATM   11  C16 UNL     1      32.118  44.163   7.826  1.00  0.00     0.069 C
HETATM   12  C12 UNL     1      33.318  45.786   6.763  1.00  0.00     0.124 C
HETATM   13  C13 UNL     1      34.426  44.817   6.232  1.00  0.00     0.038 C
HETATM   14  C17 UNL     1      31.962  45.108   6.664  1.00  0.00     0.060 C
HETATM   15  C14 UNL     1      34.597  43.949   7.386  1.00  0.00     0.013 C
HETATM   16  C15 UNL     1      33.283  43.276   7.537  1.00  0.00     0.035 C
HETATM   17 CL1  UNL     1      30.686  43.377   8.360  1.00  0.00    -0.116 Cl
ENDBRANCH   3   5
BRANCH   1  18
HETATM   18  C5  UNL     1      39.074  42.927   6.218  1.00  0.00     0.113 C
BRANCH  18  19
HETATM   19  C4  UNL     1      39.833  43.002   7.499  1.00  0.00     0.091 C
BRANCH  19  20
HETATM   20  S1  UNL     1      41.080  41.727   7.657  1.00  0.00    -0.092 SA
BRANCH  20  21
HETATM   21  C3  UNL     1      40.493  40.140   7.132  1.00  0.00     0.162 A
HETATM   22  N2  UNL     1      39.811  39.194   7.801  1.00  0.00    -0.278 N
HETATM   23  N1  UNL     1      39.575  38.146   7.007  1.00  0.00    -0.287 N
ATOM     24  H2  UNL     1      39.516  39.267   8.775  1.00  0.00     0.189 HD
HETATM   25  C2  UNL     1      40.123  38.442   5.808  1.00  0.00     0.095 A
ATOM     26  H1  UNL     1      39.078  37.291   7.257  1.00  0.00     0.188 HD
HETATM   27  C1  UNL     1      40.104  37.557   4.604  1.00  0.00     0.091 C
HETATM   28  N4  UNL     1      40.677  39.647   5.889  1.00  0.00    -0.320 N
HETATM   29  C18 UNL     1      41.378  40.326   4.794  1.00  0.00     0.159 C
ENDBRANCH  20  21
ENDBRANCH  19  20
ENDBRANCH  18  19
ENDBRANCH   1  18
TORSDOF 5
ENDMDL