MODEL 3
REMARK VINA RESULT: -6.724551758      1.205      1.545
REMARK  10 active torsions:
REMARK  status: ('A' for Active; 'I' for Inactive)
REMARK    1  A    between atoms: N1_2  and  C2_3
REMARK    2  A    between atoms: N1_2  and  C6_13
REMARK    3  A    between atoms: C2_3  and  C3_4
REMARK    4  A    between atoms: C3_4  and  N2_5
REMARK    5  A    between atoms: N2_5  and  C4_7
REMARK    6  A    between atoms: C4_7  and  C5_8
REMARK    7  A    between atoms: C5_8  and  N3_9
REMARK    8  A    between atoms: C6_13  and  C7_14
REMARK    9  A    between atoms: C7_14  and  N4_15
REMARK       I    between atoms: N4_15  and  C8_17
REMARK       I    between atoms: C8_17  and  N6_21
REMARK   10  A    between atoms: N6_21  and  C9_23
ROOT
HETATM    1  N4  UNL     1      31.577 -17.641 -22.283  1.00  0.00    -0.225 N
ATOM      2  H4  UNL     1      32.092 -16.917 -22.784  1.00  0.00     0.177 HD
HETATM    3  C8  UNL     1      31.037 -17.362 -20.980  1.00  0.00     0.669 C
HETATM    4  N5  UNL     1      30.324 -16.302 -20.899  1.00  0.00    -0.235 N
ATOM      5  H51 UNL     1      29.941 -16.104 -19.975  1.00  0.00     0.174 HD
ATOM      6  H52 UNL     1      30.149 -15.692 -21.698  1.00  0.00     0.174 HD
HETATM    7  N6  UNL     1      31.279 -18.204 -19.877  1.00  0.00    -0.201 N
ATOM      8  H6  UNL     1      31.586 -19.154 -20.084  1.00  0.00     0.180 HD
ENDROOT
BRANCH   1   9
HETATM    9  C7  UNL     1      31.389 -18.965 -22.895  1.00  0.00     0.157 C
BRANCH   9  10
HETATM   10  C6  UNL     1      32.759 -19.538 -23.092  1.00  0.00     0.141 C
BRANCH  10  11
HETATM   11  N1  UNL     1      33.258 -20.256 -21.952  1.00  0.00    -0.394 N
HETATM   12  C1  UNL     1      34.357 -19.731 -21.276  1.00  0.00     0.148 C
BRANCH  11  13
HETATM   13  C2  UNL     1      32.377 -21.174 -21.362  1.00  0.00     0.077 C
BRANCH  13  14
HETATM   14  C3  UNL     1      32.671 -21.550 -19.938  1.00  0.00     0.158 C
BRANCH  14  15
HETATM   15  N2  UNL     1      31.469 -21.892 -19.241  1.00  0.00    -0.415 N
ATOM     16  H2  UNL     1      30.571 -21.480 -19.495  1.00  0.00     0.153 HD
BRANCH  15  17
HETATM   17  C4  UNL     1      31.580 -22.824 -18.186  1.00  0.00     0.141 C
BRANCH  17  18
HETATM   18  C5  UNL     1      33.054 -23.028 -17.866  1.00  0.00     0.248 C
BRANCH  18  19
HETATM   19  N3  UNL     1      33.131 -23.169 -16.413  1.00  0.00    -0.078 N
ATOM     20  H33 UNL     1      32.342 -22.750 -15.921  1.00  0.00     0.274 HD
ATOM     21  H32 UNL     1      32.986 -24.125 -16.088  1.00  0.00     0.274 HD
ATOM     22  H31 UNL     1      34.033 -22.778 -16.143  1.00  0.00     0.274 HD
ENDBRANCH  18  19
ENDBRANCH  17  18
ENDBRANCH  15  17
ENDBRANCH  14  15
ENDBRANCH  13  14
ENDBRANCH  11  13
ENDBRANCH  10  11
ENDBRANCH   9  10
ENDBRANCH   1   9
BRANCH   7  23
HETATM   23  C9  UNL     1      31.136 -17.856 -18.478  1.00  0.00     0.240 C
HETATM   24  C10 UNL     1      32.328 -18.140 -17.655  1.00  0.00     0.110 C
HETATM   25  N7  UNL     1      32.359 -19.298 -16.855  1.00  0.00    -0.340 N
HETATM   26  C11 UNL     1      31.375 -19.891 -16.036  1.00  0.00     0.194 C
ATOM     27  H7  UNL     1      33.250 -19.794 -16.869  1.00  0.00     0.167 HD
HETATM   28  N8  UNL     1      31.828 -20.770 -14.991  1.00  0.00    -0.063 NA
HETATM   29  N9  UNL     1      30.095 -19.723 -16.156  1.00  0.00    -0.305 N
HETATM   30  C12 UNL     1      29.345 -18.945 -17.080  1.00  0.00     0.192 C
ATOM     31  H9  UNL     1      29.533 -20.233 -15.474  1.00  0.00     0.171 HD
HETATM   32  N10 UNL     1      27.936 -19.000 -16.929  1.00  0.00    -0.063 NA
HETATM   33  N11 UNL     1      29.866 -18.230 -17.978  1.00  0.00    -0.338 N
ATOM     34  H11 UNL     1      29.134 -17.771 -18.520  1.00  0.00     0.164 HD
ENDBRANCH   7  23
TORSDOF 10
ENDMDL