MODEL 1
REMARK VINA RESULT: -6.317860878      0.000      0.000
REMARK  11 active torsions:
REMARK  status: ('A' for Active; 'I' for Inactive)
REMARK       I    between atoms: C1_4  and  N3_6
REMARK    1  A    between atoms: N3_6  and  C2_8
REMARK    2  A    between atoms: C4_10  and  N4_11
REMARK    3  A    between atoms: C5_16  and  C6_17
REMARK    4  A    between atoms: C7_20  and  N6_21
REMARK    5  A    between atoms: N6_21  and  O3_23
REMARK    6  A    between atoms: O3_23  and  C8_24
REMARK    7  A    between atoms: C8_24  and  C9_25
REMARK    8  A    between atoms: C9_25  and  N7_26
REMARK    9  A    between atoms: N7_26  and  C10_28
REMARK   10  A    between atoms: C10_28  and  C11_29
REMARK   11  A    between atoms: C11_29  and  N8_30
ROOT
HETATM    1  C2  UNL     1      33.081 -22.798 -18.164  1.00  0.00     0.043 C
HETATM    2  C3  UNL     1      32.998 -23.445 -19.487  1.00  0.00     0.120 C
HETATM    3  C4  UNL     1      32.403 -22.565 -20.551  1.00  0.00     0.325 C
HETATM    4  O1  UNL     1      31.366 -21.791 -20.154  1.00  0.00    -0.338 OA
HETATM    5  C5  UNL     1      31.528 -20.996 -19.049  1.00  0.00     0.266 C
HETATM    6  C7  UNL     1      32.107 -21.698 -17.871  1.00  0.00     0.092 C
ENDROOT
BRANCH   6   7
HETATM    7  N6  UNL     1      31.215 -21.999 -16.874  1.00  0.00    -0.266 N
ATOM      8  H6  UNL     1      30.906 -22.972 -16.877  1.00  0.00     0.194 HD
BRANCH   7   9
HETATM    9  O3  UNL     1      30.686 -21.285 -15.925  1.00  0.00    -0.275 OA
BRANCH   9  10
HETATM   10  C8  UNL     1      31.828 -20.515 -15.425  1.00  0.00     0.245 C
BRANCH  10  11
HETATM   11  C9  UNL     1      31.254 -19.152 -15.118  1.00  0.00     0.084 C
BRANCH  11  12
HETATM   12  N7  UNL     1      30.312 -18.748 -16.031  1.00  0.00    -0.398 N
ATOM     13  H7  UNL     1      30.422 -19.056 -16.997  1.00  0.00     0.158 HD
BRANCH  12  14
HETATM   14  C10 UNL     1      29.193 -17.930 -15.719  1.00  0.00     0.146 C
BRANCH  14  15
HETATM   15  C11 UNL     1      28.057 -18.520 -16.618  1.00  0.00     0.249 C
BRANCH  15  16
HETATM   16  N8  UNL     1      28.765 -19.424 -17.549  1.00  0.00    -0.078 N
ATOM     17  H83 UNL     1      28.801 -20.396 -17.243  1.00  0.00     0.274 HD
ATOM     18  H82 UNL     1      28.267 -19.601 -18.421  1.00  0.00     0.274 HD
ATOM     19  H81 UNL     1      29.680 -18.990 -17.671  1.00  0.00     0.274 HD
ENDBRANCH  15  16
ENDBRANCH  14  15
ENDBRANCH  12  14
ENDBRANCH  11  12
ENDBRANCH  10  11
ENDBRANCH   9  10
ENDBRANCH   7   9
ENDBRANCH   6   7
BRANCH   1  20
HETATM   20  N3  UNL     1      34.418 -22.551 -17.649  1.00  0.00    -0.332 N
HETATM   21  C1  UNL     1      34.872 -22.789 -16.368  1.00  0.00     0.186 C
HETATM   22  N1  UNL     1      35.344 -21.774 -15.750  1.00  0.00    -0.374 N
HETATM   23  N2  UNL     1      34.835 -24.042 -15.750  1.00  0.00    -0.064 NA
ATOM     24  H12 UNL     1      35.680 -21.949 -14.803  1.00  0.00     0.158 HD
ATOM     25  H11 UNL     1      35.370 -20.859 -16.200  1.00  0.00     0.158 HD
ATOM     26  H3  UNL     1      35.093 -22.159 -18.306  1.00  0.00     0.168 HD
ENDBRANCH   1  20
BRANCH   5  27
HETATM   27  C6  UNL     1      32.131 -19.670 -19.288  1.00  0.00     0.266 C
HETATM   28  N5  UNL     1      31.308 -18.524 -19.132  1.00  0.00    -0.059 NA
HETATM   29  O2  UNL     1      33.311 -19.476 -19.618  1.00  0.00    -0.274 OA
ENDBRANCH   5  27
BRANCH   3  30
HETATM   30  N4  UNL     1      31.889 -23.422 -21.615  1.00  0.00    -0.052 N
ATOM     31  H43 UNL     1      31.229 -24.121 -21.273  1.00  0.00     0.277 HD
ATOM     32  H42 UNL     1      31.254 -22.931 -22.244  1.00  0.00     0.277 HD
ATOM     33  H41 UNL     1      32.683 -23.835 -22.102  1.00  0.00     0.277 HD
ENDBRANCH   3  30
TORSDOF 11
ENDMDL