MODEL 3
REMARK VINA RESULT: -5.972920742      2.644      3.840
REMARK  13 active torsions:
REMARK  status: ('A' for Active; 'I' for Inactive)
REMARK       I    between atoms: C1_4  and  N3_6
REMARK    1  A    between atoms: N3_6  and  C2_8
REMARK    2  A    between atoms: C2_8  and  C3_9
REMARK    3  A    between atoms: C3_9  and  C4_10
REMARK    4  A    between atoms: C4_10  and  O1_11
REMARK    5  A    between atoms: O1_11  and  C5_12
REMARK    6  A    between atoms: C6_14  and  C7_15
REMARK    7  A    between atoms: C7_15  and  N4_16
REMARK    8  A    between atoms: N4_16  and  C8_18
REMARK    9  A    between atoms: C8_18  and  C9_19
REMARK   10  A    between atoms: C9_19  and  N5_20
REMARK   11  A    between atoms: C10_24  and  O3_25
REMARK   12  A    between atoms: C11_27  and  O4_28
REMARK   13  A    between atoms: C12_30  and  O5_31
ROOT
HETATM    1  C5  UNL     1      31.403 -21.348 -18.144  1.00  0.00     0.291 C
HETATM    2  O2  UNL     1      31.085 -21.949 -16.965  1.00  0.00    -0.349 OA
HETATM    3  C6  UNL     1      31.405 -21.302 -15.797  1.00  0.00     0.173 C
HETATM    4  C10 UNL     1      30.981 -19.874 -15.761  1.00  0.00     0.180 C
HETATM    5  C11 UNL     1      31.215 -19.153 -17.080  1.00  0.00     0.183 C
HETATM    6  C12 UNL     1      30.759 -19.984 -18.246  1.00  0.00     0.204 C
ENDROOT
BRANCH   1   7
HETATM    7  O1  UNL     1      32.717 -21.356 -18.515  1.00  0.00    -0.358 OA
BRANCH   7   8
HETATM    8  C4  UNL     1      32.992 -21.554 -19.838  1.00  0.00     0.172 C
BRANCH   8   9
HETATM    9  C3  UNL     1      34.410 -21.206 -20.248  1.00  0.00     0.046 C
BRANCH   9  10
HETATM   10  C2  UNL     1      34.695 -19.735 -20.057  1.00  0.00     0.124 C
BRANCH  10  11
HETATM   11  N3  UNL     1      34.898 -19.391 -18.668  1.00  0.00    -0.365 N
HETATM   12  C1  UNL     1      36.157 -18.984 -18.161  1.00  0.00     0.181 C
HETATM   13  N1  UNL     1      36.307 -17.829 -17.593  1.00  0.00    -0.374 N
HETATM   14  N2  UNL     1      37.289 -19.824 -18.258  1.00  0.00    -0.064 NA
ATOM     15  H12 UNL     1      37.213 -17.536 -17.228  1.00  0.00     0.158 HD
ATOM     16  H11 UNL     1      35.490 -17.222 -17.523  1.00  0.00     0.158 HD
ATOM     17  H3  UNL     1      34.106 -19.443 -18.029  1.00  0.00     0.162 HD
ENDBRANCH  10  11
ENDBRANCH   9  10
ENDBRANCH   8   9
ENDBRANCH   7   8
ENDBRANCH   1   7
BRANCH   6  18
HETATM   18  O5  UNL     1      29.371 -20.080 -18.191  1.00  0.00    -0.388 OA
ATOM     19  H5  UNL     1      28.999 -19.378 -17.671  1.00  0.00     0.210 HD
ENDBRANCH   6  18
BRANCH   3  20
HETATM   20  C7  UNL     1      32.854 -21.518 -15.476  1.00  0.00     0.148 C
BRANCH  20  21
HETATM   21  N4  UNL     1      33.197 -22.910 -15.309  1.00  0.00    -0.417 N
ATOM     22  H4  UNL     1      32.666 -23.535 -14.701  1.00  0.00     0.153 HD
BRANCH  21  23
HETATM   23  C8  UNL     1      34.329 -23.353 -16.054  1.00  0.00     0.141 C
BRANCH  23  24
HETATM   24  C9  UNL     1      35.293 -22.213 -16.321  1.00  0.00     0.248 C
BRANCH  24  25
HETATM   25  N5  UNL     1      36.152 -22.668 -17.409  1.00  0.00    -0.078 N
ATOM     26  H53 UNL     1      37.147 -22.627 -17.189  1.00  0.00     0.274 HD
ATOM     27  H52 UNL     1      36.106 -23.674 -17.573  1.00  0.00     0.274 HD
ATOM     28  H51 UNL     1      35.890 -22.110 -18.221  1.00  0.00     0.274 HD
ENDBRANCH  24  25
ENDBRANCH  23  24
ENDBRANCH  21  23
ENDBRANCH  20  21
ENDBRANCH   3  20
BRANCH   5  29
HETATM   29  O4  UNL     1      32.569 -18.825 -17.151  1.00  0.00    -0.390 OA
ATOM     30  H4  UNL     1      32.997 -19.195 -16.388  1.00  0.00     0.210 HD
ENDBRANCH   5  29
BRANCH   4  31
HETATM   31  O3  UNL     1      31.556 -19.116 -14.777  1.00  0.00    -0.390 OA
ATOM     32  H3  UNL     1      32.027 -18.348 -15.078  1.00  0.00     0.210 HD
ENDBRANCH   4  31
TORSDOF 13
ENDMDL