MODEL 1
REMARK VINA RESULT: -6.176607843      0.000      0.000
REMARK  13 active torsions:
REMARK  status: ('A' for Active; 'I' for Inactive)
REMARK    1  A    between atoms: C1_4  and  C2_6
REMARK    2  A    between atoms: C2_6  and  N3_7
REMARK    3  A    between atoms: N3_7  and  C3_9
REMARK    4  A    between atoms: C3_9  and  C4_10
REMARK    5  A    between atoms: C4_10  and  C5_11
REMARK    6  A    between atoms: C5_11  and  N4_12
REMARK    7  A    between atoms: N4_12  and  C6_15
REMARK    8  A    between atoms: C6_15  and  C7_16
REMARK    9  A    between atoms: C8_18  and  C9_19
REMARK   10  A    between atoms: C9_19  and  N5_20
REMARK   11  A    between atoms: C10_24  and  O2_25
REMARK   12  A    between atoms: C11_27  and  O3_28
REMARK   13  A    between atoms: C12_30  and  N6_31
ROOT
HETATM    1  C7  UNL     1      32.479 -19.123 -17.288  1.00  0.00     0.180 C
HETATM    2  O1  UNL     1      32.494 -20.328 -18.004  1.00  0.00    -0.372 OA
HETATM    3  C8  UNL     1      32.667 -21.451 -17.246  1.00  0.00     0.178 C
HETATM    4  C10 UNL     1      32.647 -21.163 -15.784  1.00  0.00     0.179 C
HETATM    5  C11 UNL     1      31.472 -20.318 -15.344  1.00  0.00     0.182 C
HETATM    6  C12 UNL     1      31.433 -19.090 -16.247  1.00  0.00     0.244 C
ENDROOT
BRANCH   1   7
HETATM    7  C6  UNL     1      32.295 -18.073 -18.338  1.00  0.00     0.266 C
BRANCH   7   8
HETATM    8  N4  UNL     1      30.978 -17.832 -18.819  1.00  0.00    -0.072 N
ATOM      9  H42 UNL     1      30.270 -17.940 -18.093  1.00  0.00     0.277 HD
ATOM     10  H41 UNL     1      30.649 -18.566 -19.445  1.00  0.00     0.277 HD
BRANCH   8  11
HETATM   11  C5  UNL     1      30.946 -16.480 -19.454  1.00  0.00     0.237 C
BRANCH  11  12
HETATM   12  C4  UNL     1      31.886 -16.506 -20.605  1.00  0.00     0.071 C
BRANCH  12  13
HETATM   13  C3  UNL     1      31.346 -16.811 -21.927  1.00  0.00     0.057 C
BRANCH  13  14
HETATM   14  N3  UNL     1      30.573 -17.909 -22.241  1.00  0.00    -0.396 N
ATOM     15  H3  UNL     1      29.562 -17.874 -22.116  1.00  0.00     0.159 HD
BRANCH  14  16
HETATM   16  C2  UNL     1      31.191 -19.098 -22.741  1.00  0.00     0.191 C
BRANCH  16  17
HETATM   17  C1  UNL     1      31.505 -19.959 -21.530  1.00  0.00     0.104 C
HETATM   18  N1  UNL     1      32.710 -20.240 -21.254  1.00  0.00    -0.390 N
ATOM     19  H12 UNL     1      32.922 -20.818 -20.441  1.00  0.00     0.157 HD
ATOM     20  H11 UNL     1      33.495 -19.905 -21.814  1.00  0.00     0.157 HD
HETATM   21  N2  UNL     1      30.412 -20.424 -20.751  1.00  0.00    -0.086 NA
ENDBRANCH  16  17
ENDBRANCH  14  16
ENDBRANCH  13  14
ENDBRANCH  12  13
ENDBRANCH  11  12
ENDBRANCH   8  11
ENDBRANCH   7   8
ENDBRANCH   1   7
BRANCH   6  22
HETATM   22  N6  UNL     1      31.673 -17.945 -15.351  1.00  0.00    -0.070 N
ATOM     23  H63 UNL     1      30.957 -17.863 -14.628  1.00  0.00     0.274 HD
ATOM     24  H62 UNL     1      32.477 -18.092 -14.742  1.00  0.00     0.274 HD
ATOM     25  H61 UNL     1      31.759 -17.094 -15.906  1.00  0.00     0.274 HD
ENDBRANCH   6  22
BRANCH   3  26
HETATM   26  C9  UNL     1      31.681 -22.482 -17.711  1.00  0.00     0.264 C
BRANCH  26  27
HETATM   27  N5  UNL     1      30.478 -21.959 -18.290  1.00  0.00    -0.077 N
ATOM     28  H53 UNL     1      29.984 -21.381 -17.609  1.00  0.00     0.274 HD
ATOM     29  H52 UNL     1      30.704 -21.254 -18.992  1.00  0.00     0.274 HD
ATOM     30  H51 UNL     1      29.846 -22.656 -18.683  1.00  0.00     0.274 HD
ENDBRANCH  26  27
ENDBRANCH   3  26
BRANCH   5  31
HETATM   31  O3  UNL     1      30.276 -21.028 -15.354  1.00  0.00    -0.391 OA
ATOM     32  H3  UNL     1      30.269 -21.734 -14.718  1.00  0.00     0.210 HD
ENDBRANCH   5  31
BRANCH   4  33
HETATM   33  O2  UNL     1      32.833 -22.299 -15.043  1.00  0.00    -0.390 OA
ATOM     34  H2  UNL     1      32.021 -22.601 -14.653  1.00  0.00     0.210 HD
ENDBRANCH   4  33
TORSDOF 13
ENDMDL