MODEL 3
REMARK VINA RESULT: -5.932774993      2.471      5.368
REMARK  14 active torsions:
REMARK  status: ('A' for Active; 'I' for Inactive)
REMARK    1  A    between atoms: O1_2  and  N1_3
REMARK    2  A    between atoms: N1_3  and  C2_5
REMARK    3  A    between atoms: C3_8  and  N3_9
REMARK    4  A    between atoms: C4_14  and  N5_15
REMARK    5  A    between atoms: N5_15  and  C5_17
REMARK    6  A    between atoms: C5_17  and  C6_18
REMARK    7  A    between atoms: C5_17  and  C9_25
REMARK    8  A    between atoms: C6_18  and  C7_19
REMARK    9  A    between atoms: C7_19  and  C8_20
REMARK   10  A    between atoms: C8_20  and  N6_21
REMARK   11  A    between atoms: C9_25  and  N7_26
REMARK   12  A    between atoms: N7_26  and  C10_29
REMARK   13  A    between atoms: C10_29  and  C11_30
REMARK   14  A    between atoms: C11_30  and  N8_31
ROOT
HETATM    1  N5  UNL     1      31.378 -20.098 -15.582  1.00  0.00    -0.219 N
ATOM      2  H5  UNL     1      30.507 -20.272 -15.081  1.00  0.00     0.178 HD
ENDROOT
BRANCH   1   3
HETATM    3  C4  UNL     1      32.076 -21.113 -16.000  1.00  0.00     0.707 A
HETATM    4  N4  UNL     1      33.325 -21.372 -15.576  1.00  0.00    -0.022 N
HETATM    5  C3  UNL     1      34.025 -22.449 -16.039  1.00  0.00     0.705 A
ATOM      6  H4  UNL     1      33.759 -20.751 -14.893  1.00  0.00     0.203 HD
HETATM    7  N2  UNL     1      33.484 -23.288 -16.939  1.00  0.00    -0.020 N
HETATM    8  C2  UNL     1      32.238 -23.036 -17.368  1.00  0.00     0.731 A
ATOM      9  H2  UNL     1      34.006 -24.092 -17.287  1.00  0.00     0.203 HD
HETATM   10  N9  UNL     1      31.552 -21.964 -16.901  1.00  0.00    -0.020 N
ATOM     11  H9  UNL     1      30.607 -21.797 -17.244  1.00  0.00     0.203 HD
BRANCH   5  12
HETATM   12  N3  UNL     1      35.228 -22.636 -15.583  1.00  0.00    -0.234 N
ATOM     13  H32 UNL     1      35.931 -23.004 -16.225  1.00  0.00     0.174 HD
ATOM     14  H31 UNL     1      35.466 -22.422 -14.614  1.00  0.00     0.174 HD
ENDBRANCH   5  12
BRANCH   8  15
HETATM   15  N1  UNL     1      31.713 -23.831 -18.226  1.00  0.00    -0.096 N
ATOM     16  H1  UNL     1      31.263 -24.691 -17.913  1.00  0.00     0.213 HD
BRANCH  15  17
HETATM   17  O1  UNL     1      31.752 -23.530 -19.559  1.00  0.00    -0.271 OA
HETATM   18  C1  UNL     1      32.780 -23.987 -20.425  1.00  0.00     0.238 C
ENDBRANCH  15  17
ENDBRANCH   8  15
ENDBRANCH   1   3
BRANCH   1  19
HETATM   19  C5  UNL     1      31.799 -18.721 -15.807  1.00  0.00     0.125 C
BRANCH  19  20
HETATM   20  C6  UNL     1      30.693 -17.751 -15.557  1.00  0.00     0.029 C
BRANCH  20  21
HETATM   21  C7  UNL     1      29.402 -18.475 -15.355  1.00  0.00     0.029 C
BRANCH  21  22
HETATM   22  C8  UNL     1      28.419 -18.213 -16.490  1.00  0.00     0.230 C
BRANCH  22  23
HETATM   23  N6  UNL     1      28.579 -19.246 -17.479  1.00  0.00    -0.079 N
ATOM     24  H63 UNL     1      29.546 -19.345 -17.788  1.00  0.00     0.274 HD
ATOM     25  H62 UNL     1      28.460 -20.182 -17.091  1.00  0.00     0.274 HD
ATOM     26  H61 UNL     1      27.940 -19.057 -18.250  1.00  0.00     0.274 HD
ENDBRANCH  22  23
ENDBRANCH  21  22
ENDBRANCH  20  21
ENDBRANCH  19  20
BRANCH  19  27
HETATM   27  C9  UNL     1      32.124 -18.679 -17.308  1.00  0.00     0.257 C
BRANCH  27  28
HETATM   28  N7  UNL     1      33.455 -18.102 -17.459  1.00  0.00    -0.072 N
ATOM     29  H72 UNL     1      33.445 -17.141 -17.800  1.00  0.00     0.277 HD
ATOM     30  H71 UNL     1      33.919 -17.913 -16.571  1.00  0.00     0.277 HD
BRANCH  28  31
HETATM   31  C10 UNL     1      34.196 -19.018 -18.319  1.00  0.00     0.259 C
BRANCH  31  32
HETATM   32  C11 UNL     1      35.489 -18.396 -18.796  1.00  0.00     0.257 C
BRANCH  32  33
HETATM   33  N8  UNL     1      36.141 -17.840 -17.611  1.00  0.00    -0.078 N
ATOM     34  H83 UNL     1      36.238 -18.512 -16.849  1.00  0.00     0.274 HD
ATOM     35  H82 UNL     1      37.136 -17.658 -17.745  1.00  0.00     0.274 HD
ATOM     36  H81 UNL     1      35.609 -17.010 -17.353  1.00  0.00     0.274 HD
ENDBRANCH  32  33
ENDBRANCH  31  32
ENDBRANCH  28  31
ENDBRANCH  27  28
ENDBRANCH  19  27
ENDBRANCH   1  19
TORSDOF 14
ENDMDL