MODEL 4
REMARK VINA RESULT: -7.059913119      2.586      6.441
REMARK  15 active torsions:
REMARK  status: ('A' for Active; 'I' for Inactive)
REMARK    1  A    between atoms: N1_1  and  C1_4
REMARK    2  A    between atoms: C2_5  and  N2_6
REMARK    3  A    between atoms: N2_6  and  C3_7
REMARK    4  A    between atoms: N2_6  and  C5_11
REMARK    5  A    between atoms: C3_7  and  C4_8
REMARK    6  A    between atoms: C4_8  and  O1_9
REMARK    7  A    between atoms: C5_11  and  C6_12
REMARK    8  A    between atoms: C6_12  and  N3_13
REMARK    9  A    between atoms: N3_13  and  O2_14
REMARK   10  A    between atoms: N3_13  and  C7_16
REMARK   11  A    between atoms: C7_16  and  C8_17
REMARK   12  A    between atoms: C8_17  and  O3_18
REMARK   13  A    between atoms: C9_26  and  N7_27
REMARK   14  A    between atoms: C10_29  and  C11_30
REMARK   15  A    between atoms: C11_30  and  O4_31
ROOT
HETATM    1  C1  UNL     1      31.701 -19.427 -17.005  1.00  0.00     0.118 A
HETATM    2  C2  UNL     1      32.601 -20.440 -16.991  1.00  0.00     0.153 A
HETATM    3  N4  UNL     1      32.921 -20.947 -15.759  1.00  0.00    -0.269 N
ATOM      4  H4  UNL     1      33.592 -21.712 -15.682  1.00  0.00     0.190 HD
HETATM    5  N5  UNL     1      32.366 -20.450 -14.677  1.00  0.00    -0.239 N
ATOM      6  H5  UNL     1      32.632 -20.857 -13.781  1.00  0.00     0.208 HD
HETATM    7  N6  UNL     1      31.490 -19.465 -14.665  1.00  0.00    -0.269 N
ATOM      8  H6  UNL     1      31.103 -19.133 -13.781  1.00  0.00     0.190 HD
HETATM    9  C9  UNL     1      31.110 -18.901 -15.825  1.00  0.00     0.151 A
ENDROOT
BRANCH   2  10
HETATM   10  N2  UNL     1      33.224 -20.971 -18.145  1.00  0.00    -0.341 N
BRANCH  10  11
HETATM   11  C3  UNL     1      32.561 -21.810 -19.062  1.00  0.00     0.091 C
BRANCH  11  12
HETATM   12  C4  UNL     1      31.591 -22.804 -18.534  1.00  0.00     0.208 C
BRANCH  12  13
HETATM   13  O1  UNL     1      32.266 -23.626 -17.629  1.00  0.00    -0.396 OA
ATOM     14  H1  UNL     1      31.933 -24.509 -17.730  1.00  0.00     0.209 HD
ENDBRANCH  12  13
ENDBRANCH  11  12
ENDBRANCH  10  11
BRANCH  10  15
HETATM   15  C5  UNL     1      34.624 -20.643 -18.376  1.00  0.00     0.146 C
BRANCH  15  16
HETATM   16  C6  UNL     1      35.508 -21.859 -18.139  1.00  0.00     0.140 C
BRANCH  16  17
HETATM   17  N3  UNL     1      35.204 -22.494 -16.892  1.00  0.00    -0.196 NA
BRANCH  17  18
HETATM   18  O2  UNL     1      35.668 -21.794 -15.831  1.00  0.00    -0.313 OA
ATOM     19  H2  UNL     1      35.000 -21.654 -15.170  1.00  0.00     0.237 HD
ENDBRANCH  17  18
BRANCH  17  20
HETATM   20  C7  UNL     1      35.631 -23.868 -16.801  1.00  0.00     0.146 C
BRANCH  20  21
HETATM   21  C8  UNL     1      34.904 -24.458 -15.585  1.00  0.00     0.180 C
BRANCH  21  22
HETATM   22  O3  UNL     1      33.698 -23.829 -15.339  1.00  0.00    -0.400 OA
ATOM     23  H3  UNL     1      33.527 -23.729 -14.409  1.00  0.00     0.209 HD
ENDBRANCH  21  22
ENDBRANCH  20  21
ENDBRANCH  17  20
ENDBRANCH  16  17
ENDBRANCH  15  16
ENDBRANCH  10  15
ENDBRANCH   2  10
BRANCH   1  24
HETATM   24  N1  UNL     1      31.305 -18.896 -18.123  1.00  0.00    -0.393 N
ATOM     25  H12 UNL     1      31.538 -19.416 -18.969  1.00  0.00     0.156 HD
ATOM     26  H11 UNL     1      30.813 -18.003 -18.137  1.00  0.00     0.156 HD
ENDBRANCH   1  24
BRANCH   9  27
HETATM   27  N7  UNL     1      30.304 -17.968 -15.928  1.00  0.00    -0.351 N
HETATM   28  C10 UNL     1      29.056 -17.589 -16.312  1.00  0.00     0.088 C
ATOM     29  H7  UNL     1      30.771 -17.132 -15.576  1.00  0.00     0.166 HD
BRANCH  28  30
HETATM   30  C11 UNL     1      27.947 -18.601 -16.408  1.00  0.00     0.208 C
BRANCH  30  31
HETATM   31  O4  UNL     1      28.160 -19.383 -17.527  1.00  0.00    -0.396 OA
ATOM     32  H4  UNL     1      27.321 -19.567 -17.932  1.00  0.00     0.209 HD
ENDBRANCH  30  31
ENDBRANCH  28  30
ENDBRANCH   9  27
TORSDOF 15
ENDMDL