MODEL 4
REMARK VINA RESULT: -5.931896056      2.646      3.887
REMARK  13 active torsions:
REMARK  status: ('A' for Active; 'I' for Inactive)
REMARK       I    between atoms: C1_4  and  N3_6
REMARK    1  A    between atoms: N3_6  and  C2_8
REMARK    2  A    between atoms: C3_9  and  C4_10
REMARK    3  A    between atoms: C4_10  and  N4_11
REMARK    4  A    between atoms: C5_18  and  O1_19
REMARK    5  A    between atoms: O1_19  and  C6_20
REMARK    6  A    between atoms: C6_20  and  C7_21
REMARK    7  A    between atoms: C7_21  and  O2_22
REMARK    8  A    between atoms: O2_22  and  C8_23
REMARK    9  A    between atoms: C8_23  and  C9_24
REMARK   10  A    between atoms: C9_24  and  C10_25
REMARK   11  A    between atoms: C10_25  and  N6_26
REMARK   12  A    between atoms: C11_30  and  O3_31
REMARK   13  A    between atoms: C12_33  and  O4_34
ROOT
HETATM    1  C2  UNL     1      31.262 -19.907 -17.659  1.00  0.00     0.148 C
HETATM    2  C3  UNL     1      30.739 -18.542 -17.524  1.00  0.00     0.239 C
HETATM    3  N5  UNL     1      30.558 -17.920 -18.818  1.00  0.00    -0.038 N
ATOM      4  H51 UNL     1      30.468 -16.909 -18.720  1.00  0.00     0.281 HD
ATOM      5  H52 UNL     1      29.636 -18.139 -19.195  1.00  0.00     0.281 HD
HETATM    6  C5  UNL     1      31.590 -18.250 -19.774  1.00  0.00     0.353 C
HETATM    7  C11 UNL     1      31.492 -19.723 -20.165  1.00  0.00     0.205 C
HETATM    8  C12 UNL     1      31.060 -20.566 -19.005  1.00  0.00     0.176 C
ENDROOT
BRANCH   6   9
HETATM    9  O1  UNL     1      32.780 -17.892 -19.287  1.00  0.00    -0.355 OA
BRANCH   9  10
HETATM   10  C6  UNL     1      33.772 -17.358 -20.003  1.00  0.00     0.197 C
BRANCH  10  11
HETATM   11  C7  UNL     1      33.275 -16.477 -21.113  1.00  0.00     0.193 C
BRANCH  11  12
HETATM   12  O2  UNL     1      34.059 -15.374 -21.272  1.00  0.00    -0.389 OA
BRANCH  12  13
HETATM   13  C8  UNL     1      34.983 -15.447 -22.288  1.00  0.00     0.169 C
BRANCH  13  14
HETATM   14  C9  UNL     1      36.408 -15.417 -21.832  1.00  0.00     0.053 C
BRANCH  14  15
HETATM   15  C10 UNL     1      36.993 -14.040 -22.120  1.00  0.00     0.231 C
BRANCH  15  16
HETATM   16  N6  UNL     1      36.184 -12.985 -21.561  1.00  0.00    -0.079 N
ATOM     17  H63 UNL     1      35.500 -12.646 -22.237  1.00  0.00     0.274 HD
ATOM     18  H62 UNL     1      35.545 -13.344 -20.852  1.00  0.00     0.274 HD
ATOM     19  H61 UNL     1      36.753 -12.223 -21.195  1.00  0.00     0.274 HD
ENDBRANCH  15  16
ENDBRANCH  14  15
ENDBRANCH  13  14
ENDBRANCH  12  13
ENDBRANCH  11  12
ENDBRANCH  10  11
ENDBRANCH   9  10
ENDBRANCH   6   9
BRANCH   7  20
HETATM   20  O3  UNL     1      30.605 -19.883 -21.225  1.00  0.00    -0.389 OA
ATOM     21  H3  UNL     1      29.742 -20.114 -20.903  1.00  0.00     0.210 HD
ENDBRANCH   7  20
BRANCH   2  22
HETATM   22  C4  UNL     1      29.536 -18.366 -16.644  1.00  0.00     0.265 C
BRANCH  22  23
HETATM   23  N4  UNL     1      28.330 -18.932 -17.097  1.00  0.00    -0.077 N
ATOM     24  H43 UNL     1      28.314 -18.930 -18.117  1.00  0.00     0.274 HD
ATOM     25  H42 UNL     1      28.333 -19.935 -16.911  1.00  0.00     0.274 HD
ATOM     26  H41 UNL     1      27.467 -18.521 -16.741  1.00  0.00     0.274 HD
ENDBRANCH  22  23
ENDBRANCH   2  22
BRANCH   8  27
HETATM   27  O4  UNL     1      29.703 -20.849 -19.118  1.00  0.00    -0.391 OA
ATOM     28  H4  UNL     1      29.506 -20.893 -20.046  1.00  0.00     0.210 HD
ENDBRANCH   8  27
BRANCH   1  29
HETATM   29  N3  UNL     1      30.957 -20.796 -16.571  1.00  0.00    -0.356 N
HETATM   30  C1  UNL     1      31.900 -21.019 -15.550  1.00  0.00     0.182 C
HETATM   31  N1  UNL     1      32.149 -20.028 -14.770  1.00  0.00    -0.374 N
HETATM   32  N2  UNL     1      32.577 -22.237 -15.335  1.00  0.00    -0.064 NA
ATOM     33  H12 UNL     1      32.832 -20.190 -14.030  1.00  0.00     0.158 HD
ATOM     34  H11 UNL     1      31.659 -19.147 -14.925  1.00  0.00     0.158 HD
ATOM     35  H3  UNL     1      30.054 -21.269 -16.539  1.00  0.00     0.162 HD
ENDBRANCH   1  29
TORSDOF 13
ENDMDL