MODEL 4
REMARK VINA RESULT: -5.990347665      2.707      5.853
REMARK  13 active torsions:
REMARK  status: ('A' for Active; 'I' for Inactive)
REMARK    1  A    between atoms: O1_2  and  C2_3
REMARK    2  A    between atoms: C2_3  and  N1_4
REMARK    3  A    between atoms: C2_3  and  N2_8
REMARK    4  A    between atoms: C4_13  and  N4_14
REMARK    5  A    between atoms: C5_19  and  N6_20
REMARK    6  A    between atoms: N6_20  and  C6_22
REMARK    7  A    between atoms: C6_22  and  C7_23
REMARK    8  A    between atoms: C7_23  and  C8_24
REMARK    9  A    between atoms: C8_24  and  N7_25
REMARK   10  A    between atoms: N7_25  and  C9_28
REMARK   11  A    between atoms: C9_28  and  C10_29
REMARK   12  A    between atoms: C10_29  and  N8_30
REMARK   13  A    between atoms: C10_29  and  C11_34
ROOT
HETATM    1  N2  UNL     1      30.609 -19.251 -16.698  1.00  0.00    -0.078 N
HETATM    2  C3  UNL     1      31.220 -19.105 -15.519  1.00  0.00     0.358 A
HETATM    3  O2  UNL     1      31.114 -18.057 -14.819  1.00  0.00    -0.245 OA
HETATM    4  N3  UNL     1      31.995 -20.105 -15.021  1.00  0.00    -0.140 N
ATOM      5  H3  UNL     1      32.458 -19.986 -14.120  1.00  0.00     0.189 HD
HETATM    6  C4  UNL     1      32.155 -21.242 -15.701  1.00  0.00     0.694 A
HETATM    7  N5  UNL     1      31.534 -21.371 -16.883  1.00  0.00    -0.022 N
ATOM      8  H5  UNL     1      31.649 -22.235 -17.414  1.00  0.00     0.203 HD
HETATM    9  C5  UNL     1      30.767 -20.392 -17.385  1.00  0.00     0.702 A
ENDROOT
BRANCH   9  10
HETATM   10  N6  UNL     1      30.174 -20.526 -18.523  1.00  0.00    -0.225 N
ATOM     11  H6  UNL     1      29.175 -20.317 -18.548  1.00  0.00     0.177 HD
BRANCH  10  12
HETATM   12  C6  UNL     1      30.775 -20.940 -19.751  1.00  0.00     0.139 C
BRANCH  12  13
HETATM   13  C7  UNL     1      31.628 -19.902 -20.394  1.00  0.00     0.048 C
BRANCH  13  14
HETATM   14  C8  UNL     1      31.325 -19.752 -21.858  1.00  0.00     0.234 C
BRANCH  14  15
HETATM   15  N7  UNL     1      30.621 -18.538 -22.143  1.00  0.00    -0.073 N
ATOM     16  H72 UNL     1      29.792 -18.715 -22.709  1.00  0.00     0.277 HD
ATOM     17  H71 UNL     1      30.169 -18.167 -21.307  1.00  0.00     0.277 HD
BRANCH  15  18
HETATM   18  C9  UNL     1      31.483 -17.545 -22.763  1.00  0.00     0.270 C
BRANCH  18  19
HETATM   19  C10 UNL     1      31.330 -16.203 -22.069  1.00  0.00     0.246 C
BRANCH  19  20
HETATM   20  N8  UNL     1      30.139 -16.246 -21.233  1.00  0.00    -0.069 N
ATOM     21  H83 UNL     1      29.402 -16.829 -21.631  1.00  0.00     0.275 HD
ATOM     22  H82 UNL     1      30.285 -16.773 -20.372  1.00  0.00     0.275 HD
ATOM     23  H81 UNL     1      29.830 -15.291 -21.058  1.00  0.00     0.275 HD
ENDBRANCH  19  20
BRANCH  19  24
HETATM   24  C11 UNL     1      32.480 -15.883 -21.199  1.00  0.00     0.087 C
HETATM   25  N9  UNL     1      32.711 -14.679 -20.876  1.00  0.00    -0.409 N
ATOM     26  H92 UNL     1      32.094 -13.945 -21.223  1.00  0.00     0.155 HD
ATOM     27  H91 UNL     1      33.506 -14.458 -20.275  1.00  0.00     0.155 HD
ENDBRANCH  19  24
ENDBRANCH  18  19
ENDBRANCH  15  18
ENDBRANCH  14  15
ENDBRANCH  13  14
ENDBRANCH  12  13
ENDBRANCH  10  12
ENDBRANCH   9  10
BRANCH   1  28
HETATM   28  C2  UNL     1      29.792 -18.142 -17.175  1.00  0.00     0.452 C
BRANCH  28  29
HETATM   29  O1  UNL     1      28.526 -18.533 -17.519  1.00  0.00    -0.348 OA
HETATM   30  C1  UNL     1      27.692 -18.462 -16.408  1.00  0.00     0.206 C
ENDBRANCH  28  29
BRANCH  28  31
HETATM   31  N1  UNL     1      30.512 -17.575 -18.311  1.00  0.00    -0.034 N
ATOM     32  H13 UNL     1      29.986 -17.690 -19.178  1.00  0.00     0.279 HD
ATOM     33  H12 UNL     1      30.530 -16.556 -18.269  1.00  0.00     0.279 HD
ATOM     34  H11 UNL     1      31.452 -17.960 -18.394  1.00  0.00     0.279 HD
ENDBRANCH  28  31
ENDBRANCH   1  28
BRANCH   6  35
HETATM   35  N4  UNL     1      32.886 -22.229 -15.269  1.00  0.00    -0.234 N
ATOM     36  H42 UNL     1      32.581 -22.736 -14.438  1.00  0.00     0.174 HD
ATOM     37  H41 UNL     1      33.750 -22.520 -15.725  1.00  0.00     0.174 HD
ENDBRANCH   6  35
TORSDOF 13
ENDMDL