MODEL 1
REMARK VINA RESULT: -6.280460164      0.000      0.000
REMARK  16 active torsions:
REMARK  status: ('A' for Active; 'I' for Inactive)
REMARK    1  A    between atoms: N1_1  and  C1_4
REMARK    2  A    between atoms: C3_8  and  N3_9
REMARK    3  A    between atoms: N3_9  and  C4_10
REMARK    4  A    between atoms: N3_9  and  C8_20
REMARK    5  A    between atoms: C4_10  and  C5_11
REMARK    6  A    between atoms: C5_11  and  C6_12
REMARK    7  A    between atoms: C6_12  and  N4_13
REMARK    8  A    between atoms: C6_12  and  C7_17
REMARK    9  A    between atoms: C7_17  and  O1_18
REMARK   10  A    between atoms: C8_20  and  C9_21
REMARK   11  A    between atoms: C9_21  and  N5_22
REMARK   12  A    between atoms: C9_21  and  N6_26
REMARK   13  A    between atoms: C10_30  and  N7_31
REMARK   14  A    between atoms: N7_31  and  C11_33
REMARK   15  A    between atoms: C11_33  and  C12_34
REMARK   16  A    between atoms: C12_34  and  N8_35
ROOT
HETATM    1  N3  UNL     1      32.192 -19.636 -17.566  1.00  0.00    -0.373 N
ENDROOT
BRANCH   1   2
HETATM    2  C3  UNL     1      32.848 -20.789 -17.005  1.00  0.00     0.091 A
HETATM    3  C2  UNL     1      32.196 -21.763 -16.286  1.00  0.00     0.139 A
HETATM    4  N2  UNL     1      32.887 -22.841 -15.809  1.00  0.00    -0.200 N
HETATM    5  C1  UNL     1      34.199 -22.993 -16.015  1.00  0.00     0.677 A
ATOM      6  H2  UNL     1      32.386 -23.552 -15.277  1.00  0.00     0.183 HD
HETATM    7  N9  UNL     1      34.856 -22.055 -16.713  1.00  0.00    -0.175 N
HETATM    8  C10 UNL     1      34.211 -20.966 -17.207  1.00  0.00     0.145 A
ATOM      9  H9  UNL     1      35.858 -22.161 -16.876  1.00  0.00     0.186 HD
BRANCH   5  10
HETATM   10  N1  UNL     1      34.807 -24.033 -15.540  1.00  0.00    -0.234 N
ATOM     11  H12 UNL     1      34.543 -24.978 -15.819  1.00  0.00     0.174 HD
ATOM     12  H11 UNL     1      35.568 -23.912 -14.873  1.00  0.00     0.174 HD
ENDBRANCH   5  10
BRANCH   8  13
HETATM   13  N7  UNL     1      34.850 -20.076 -17.848  1.00  0.00    -0.372 N
ATOM     14  H7  UNL     1      34.353 -19.199 -18.007  1.00  0.00     0.161 HD
BRANCH  13  15
HETATM   15  C11 UNL     1      36.170 -20.146 -18.372  1.00  0.00     0.148 C
BRANCH  15  16
HETATM   16  C12 UNL     1      36.937 -18.848 -18.246  1.00  0.00     0.249 C
BRANCH  16  17
HETATM   17  N8  UNL     1      36.207 -17.812 -17.580  1.00  0.00    -0.078 N
ATOM     18  H83 UNL     1      35.330 -17.620 -18.065  1.00  0.00     0.274 HD
ATOM     19  H82 UNL     1      35.839 -18.147 -16.689  1.00  0.00     0.274 HD
ATOM     20  H81 UNL     1      36.742 -16.953 -17.449  1.00  0.00     0.274 HD
ENDBRANCH  16  17
ENDBRANCH  15  16
ENDBRANCH  13  15
ENDBRANCH   8  13
ENDBRANCH   1   2
BRANCH   1  21
HETATM   21  C4  UNL     1      31.774 -18.550 -16.742  1.00  0.00     0.125 C
BRANCH  21  22
HETATM   22  C5  UNL     1      30.525 -17.842 -17.158  1.00  0.00     0.055 C
BRANCH  22  23
HETATM   23  C6  UNL     1      29.577 -17.929 -15.949  1.00  0.00     0.208 C
BRANCH  23  24
HETATM   24  N4  UNL     1      30.002 -19.081 -15.192  1.00  0.00    -0.073 N
ATOM     25  H43 UNL     1      29.522 -19.942 -15.456  1.00  0.00     0.274 HD
ATOM     26  H42 UNL     1      30.947 -19.391 -15.418  1.00  0.00     0.274 HD
ATOM     27  H41 UNL     1      29.880 -18.833 -14.209  1.00  0.00     0.274 HD
ENDBRANCH  23  24
BRANCH  23  28
HETATM   28  C7  UNL     1      28.162 -18.127 -16.386  1.00  0.00     0.197 C
BRANCH  28  29
HETATM   29  O1  UNL     1      27.995 -19.191 -17.241  1.00  0.00    -0.399 OA
ATOM     30  H1  UNL     1      27.297 -19.065 -17.873  1.00  0.00     0.209 HD
ENDBRANCH  28  29
ENDBRANCH  23  28
ENDBRANCH  22  23
ENDBRANCH  21  22
ENDBRANCH   1  21
BRANCH   1  31
HETATM   31  C8  UNL     1      31.936 -19.656 -18.962  1.00  0.00     0.185 C
BRANCH  31  32
HETATM   32  C9  UNL     1      30.968 -20.629 -19.512  1.00  0.00     0.395 C
BRANCH  32  33
HETATM   33  N5  UNL     1      29.754 -20.822 -18.791  1.00  0.00    -0.049 N
ATOM     34  H53 UNL     1      29.916 -21.472 -18.022  1.00  0.00     0.276 HD
ATOM     35  H52 UNL     1      29.527 -19.971 -18.276  1.00  0.00     0.276 HD
ATOM     36  H51 UNL     1      28.937 -21.124 -19.322  1.00  0.00     0.276 HD
ENDBRANCH  32  33
BRANCH  32  37
HETATM   37  N6  UNL     1      30.666 -20.452 -20.932  1.00  0.00    -0.049 N
ATOM     38  H63 UNL     1      30.682 -19.462 -21.176  1.00  0.00     0.276 HD
ATOM     39  H62 UNL     1      31.442 -20.787 -21.504  1.00  0.00     0.276 HD
ATOM     40  H61 UNL     1      29.791 -20.879 -21.236  1.00  0.00     0.276 HD
ENDBRANCH  32  37
ENDBRANCH  31  32
ENDBRANCH   1  31
TORSDOF 16
ENDMDL