MODEL 3
REMARK VINA RESULT: -6.635080439      1.393      1.735
REMARK  12 active torsions:
REMARK  status: ('A' for Active; 'I' for Inactive)
REMARK    1  A    between atoms: C3_8  and  N3_9
REMARK    2  A    between atoms: N3_9  and  C4_11
REMARK    3  A    between atoms: C4_11  and  C5_12
REMARK    4  A    between atoms: C5_12  and  O1_13
REMARK    5  A    between atoms: O1_13  and  C6_14
REMARK    6  A    between atoms: C6_14  and  C7_15
REMARK    7  A    between atoms: C7_15  and  N4_16
REMARK    8  A    between atoms: N4_16  and  C8_19
REMARK    9  A    between atoms: C8_19  and  C9_20
REMARK   10  A    between atoms: C9_20  and  O2_21
REMARK   11  A    between atoms: C9_20  and  C10_23
REMARK   12  A    between atoms: C12_28  and  O3_29
ROOT
HETATM    1  C7  UNL     1      31.866 -20.669 -20.179  1.00  0.00     0.258 C
ENDROOT
BRANCH   1   2
HETATM    2  C6  UNL     1      33.336 -20.691 -19.902  1.00  0.00     0.195 C
BRANCH   2   3
HETATM    3  O1  UNL     1      33.734 -21.933 -19.484  1.00  0.00    -0.388 OA
BRANCH   3   4
HETATM    4  C5  UNL     1      35.139 -22.071 -19.568  1.00  0.00     0.186 C
BRANCH   4   5
HETATM    5  C4  UNL     1      35.579 -23.116 -18.576  1.00  0.00     0.142 C
BRANCH   5   6
HETATM    6  N3  UNL     1      36.069 -22.449 -17.415  1.00  0.00    -0.398 N
ATOM      7  H3  UNL     1      37.024 -22.093 -17.356  1.00  0.00     0.155 HD
BRANCH   6   8
HETATM    8  C3  UNL     1      35.140 -22.311 -16.342  1.00  0.00     0.197 C
HETATM    9  C2  UNL     1      34.149 -23.487 -16.299  1.00  0.00     0.169 C
HETATM   10  N2  UNL     1      33.203 -22.928 -15.320  1.00  0.00    -0.359 N
HETATM   11  C1  UNL     1      33.097 -21.526 -15.657  1.00  0.00     0.170 C
ATOM     12  H2  UNL     1      32.725 -23.422 -14.566  1.00  0.00     0.162 HD
HETATM   13  N1  UNL     1      32.143 -20.782 -15.219  1.00  0.00    -0.371 N
HETATM   14  N6  UNL     1      34.193 -21.215 -16.504  1.00  0.00    -0.340 N
ATOM     15  H12 UNL     1      31.356 -21.006 -14.610  1.00  0.00     0.159 HD
ATOM     16  H11 UNL     1      32.069 -19.793 -15.457  1.00  0.00     0.159 HD
ATOM     17  H6  UNL     1      34.296 -20.395 -17.102  1.00  0.00     0.164 HD
ENDBRANCH   6   8
ENDBRANCH   5   6
ENDBRANCH   4   5
ENDBRANCH   3   4
ENDBRANCH   2   3
ENDBRANCH   1   2
BRANCH   1  18
HETATM   18  N4  UNL     1      31.215 -19.556 -19.503  1.00  0.00    -0.071 N
ATOM     19  H42 UNL     1      30.375 -19.275 -20.009  1.00  0.00     0.277 HD
ATOM     20  H41 UNL     1      30.795 -19.868 -18.627  1.00  0.00     0.277 HD
BRANCH  18  21
HETATM   21  C8  UNL     1      32.055 -18.430 -19.276  1.00  0.00     0.268 C
BRANCH  21  22
HETATM   22  C9  UNL     1      31.935 -17.775 -17.940  1.00  0.00     0.200 C
BRANCH  22  23
HETATM   23  O2  UNL     1      32.981 -18.343 -17.149  1.00  0.00    -0.389 OA
ATOM     24  H2  UNL     1      32.650 -18.339 -16.259  1.00  0.00     0.210 HD
ENDBRANCH  22  23
BRANCH  22  25
HETATM   25  C10 UNL     1      30.680 -18.206 -17.200  1.00  0.00     0.354 C
HETATM   26  N5  UNL     1      30.565 -17.714 -15.860  1.00  0.00    -0.042 N
HETATM   27  C11 UNL     1      29.225 -18.287 -15.523  1.00  0.00     0.295 C
ATOM     28  H52 UNL     1      31.328 -17.945 -15.225  1.00  0.00     0.280 HD
ATOM     29  H51 UNL     1      30.671 -16.707 -15.736  1.00  0.00     0.280 HD
HETATM   30  C12 UNL     1      28.528 -18.039 -16.866  1.00  0.00     0.285 C
HETATM   31  O4  UNL     1      29.519 -17.828 -17.810  1.00  0.00    -0.325 OA
BRANCH  30  32
HETATM   32  O3  UNL     1      27.729 -19.133 -17.180  1.00  0.00    -0.369 OA
ATOM     33  H3  UNL     1      26.840 -18.839 -17.340  1.00  0.00     0.212 HD
ENDBRANCH  30  32
ENDBRANCH  22  25
ENDBRANCH  21  22
ENDBRANCH  18  21
ENDBRANCH   1  18
TORSDOF 12
ENDMDL