MODEL 1
REMARK VINA RESULT: -9.941152915      0.000      0.000
REMARK  7 active torsions:
REMARK  status: ('A' for Active; 'I' for Inactive)
REMARK    1  A    between atoms: C3_5  and  C4_6
REMARK       I    between atoms: C4_6  and  N2_8
REMARK    2  A    between atoms: C7_11  and  N3_12
REMARK       I    between atoms: N3_12  and  C8_14
REMARK    3  A    between atoms: C8_14  and  C9_16
REMARK    4  A    between atoms: C10_17  and  C11_18
REMARK    5  A    between atoms: C15_23  and  N4_24
REMARK       I    between atoms: N4_24  and  C16_26
REMARK       I    between atoms: C16_26  and  N5_28
REMARK    6  A    between atoms: N5_28  and  C17_30
REMARK    7  A    between atoms: C17_30  and  C18_31
ROOT
HETATM    1  C9  UNL     1      44.585  -3.312  75.837  1.00  0.00     0.093 A
HETATM    2  C10 UNL     1      44.482  -2.994  74.509  1.00  0.00     0.085 A
HETATM    3  N6  UNL     1      44.117  -4.181  73.905  1.00  0.00    -0.259 N
ATOM      4  H6  UNL     1      43.952  -4.314  72.908  1.00  0.00     0.195 HD
HETATM    5  O4  UNL     1      44.020  -5.091  74.811  1.00  0.00    -0.241 OA
HETATM    6  C22 UNL     1      44.285  -4.659  76.011  1.00  0.00     0.090 A
HETATM    7  C23 UNL     1      44.272  -5.414  77.294  1.00  0.00     0.080 C
ENDROOT
BRANCH   2   8
HETATM    8  C11 UNL     1      44.727  -1.765  73.777  1.00  0.00     0.023 A
HETATM    9  C12 UNL     1      43.639  -1.008  73.292  1.00  0.00     0.047 A
HETATM   10 CL1  UNL     1      42.056  -1.666  73.618  1.00  0.00    -0.083 Cl
HETATM   11  C13 UNL     1      43.863   0.166  72.654  1.00  0.00     0.027 A
HETATM   12  C14 UNL     1      45.148   0.690  72.446  1.00  0.00     0.032 A
HETATM   13  C15 UNL     1      46.209  -0.014  72.906  1.00  0.00     0.043 A
HETATM   14  C20 UNL     1      45.981  -1.239  73.567  1.00  0.00    -0.021 A
HETATM   15  C21 UNL     1      47.152  -1.994  74.059  1.00  0.00     0.052 C
BRANCH  13  16
HETATM   16  N4  UNL     1      47.530   0.473  72.773  1.00  0.00    -0.308 N
HETATM   17  C16 UNL     1      48.286   1.072  73.769  1.00  0.00     0.324 C
HETATM   18  O3  UNL     1      47.945   1.297  74.961  1.00  0.00    -0.247 OA
HETATM   19  N5  UNL     1      49.638   1.539  73.497  1.00  0.00    -0.317 N
ATOM     20  H5  UNL     1      49.971   1.372  72.547  1.00  0.00     0.169 HD
ATOM     21  H4  UNL     1      47.968   0.373  71.858  1.00  0.00     0.170 HD
BRANCH  19  22
HETATM   22  C17 UNL     1      50.546   2.181  74.338  1.00  0.00     0.143 C
BRANCH  22  23
HETATM   23  C18 UNL     1      51.445   1.330  75.181  1.00  0.00     0.272 C
HETATM   24  C19 UNL     1      52.699   2.081  75.631  1.00  0.00     0.096 C
HETATM   25  F1  UNL     1      51.934   0.338  74.247  1.00  0.00    -0.201 F
HETATM   26  F2  UNL     1      50.929   0.619  76.185  1.00  0.00    -0.201 F
ENDBRANCH  22  23
ENDBRANCH  19  22
ENDBRANCH  13  16
ENDBRANCH   2   8
BRANCH   1  27
HETATM   27  C8  UNL     1      44.896  -2.322  76.876  1.00  0.00     0.261 C
HETATM   28  N3  UNL     1      44.080  -1.173  77.078  1.00  0.00    -0.315 N
ATOM     29  H3  UNL     1      43.260  -1.042  76.486  1.00  0.00     0.170 HD
HETATM   30  O2  UNL     1      45.895  -2.535  77.574  1.00  0.00    -0.267 OA
BRANCH  28  31
HETATM   31  C7  UNL     1      44.377  -0.181  78.099  1.00  0.00     0.111 A
HETATM   32  C3  UNL     1      44.911   0.529  78.925  1.00  0.00     0.136 A
HETATM   33  N1  UNL     1      44.408   1.342  79.836  1.00  0.00    -0.347 N
HETATM   34  C2  UNL     1      43.106   1.421  79.868  1.00  0.00     0.049 A
ATOM     35  H1  UNL     1      45.000   1.873  80.475  1.00  0.00     0.166 HD
HETATM   36  C1  UNL     1      42.284   2.316  80.809  1.00  0.00     0.076 C
HETATM   37  S1  UNL     1      42.607   0.394  78.679  1.00  0.00    -0.057 SA
BRANCH  32  38
HETATM   38  C4  UNL     1      46.459   0.685  78.794  1.00  0.00     0.272 C
HETATM   39  O1  UNL     1      46.927   1.540  78.008  1.00  0.00    -0.266 OA
HETATM   40  N2  UNL     1      47.351  -0.082  79.504  1.00  0.00    -0.355 N
HETATM   41  C5  UNL     1      46.997  -1.136  80.404  1.00  0.00     0.152 C
HETATM   42  C6  UNL     1      48.791   0.224  79.375  1.00  0.00     0.152 C
ENDBRANCH  32  38
ENDBRANCH  28  31
ENDBRANCH   1  27
TORSDOF 7
ENDMDL