MODEL 2
REMARK VINA RESULT: -11.140446196      1.378      1.752
REMARK  8 active torsions:
REMARK  status: ('A' for Active; 'I' for Inactive)
REMARK    1  A    between atoms: C2_2  and  N1_3
REMARK    2  A    between atoms: N1_3  and  C3_5
REMARK    3  A    between atoms: C4_8  and  C5_9
REMARK    4  A    between atoms: C9_15  and  O1_16
REMARK    5  A    between atoms: O1_16  and  C10_17
REMARK    6  A    between atoms: C15_27  and  O2_28
REMARK    7  A    between atoms: O2_28  and  C16_29
REMARK    8  A    between atoms: C26_42  and  N6_43
ROOT
HETATM    1  C3  UNL     1      44.158   4.063  72.219  1.00  0.00     0.680 A
HETATM    2  N2  UNL     1      43.941   2.970  72.966  1.00  0.00    -0.189 N
ATOM      3  H2  UNL     1      43.310   3.049  73.763  1.00  0.00     0.184 HD
HETATM    4  C4  UNL     1      44.513   1.768  72.719  1.00  0.00     0.090 A
HETATM    5  C24 UNL     1      45.351   1.666  71.655  1.00  0.00     0.117 A
HETATM    6  C25 UNL     1      45.965   0.457  71.168  1.00  0.00     0.105 C
HETATM    7  N5  UNL     1      46.436  -0.524  70.746  1.00  0.00    -0.191 NA
HETATM    8  C26 UNL     1      45.575   2.815  70.879  1.00  0.00     0.138 A
HETATM    9  N7  UNL     1      44.980   3.974  71.176  1.00  0.00    -0.176 N
ATOM     10  H7  UNL     1      45.157   4.797  70.599  1.00  0.00     0.186 HD
ENDROOT
BRANCH   4  11
HETATM   11  C5  UNL     1      44.138   0.587  73.485  1.00  0.00     0.073 A
HETATM   12  C6  UNL     1      42.891   0.037  73.479  1.00  0.00     0.135 A
HETATM   13  F1  UNL     1      41.944   0.419  72.553  1.00  0.00    -0.205 F
HETATM   14  C7  UNL     1      42.594  -0.987  74.349  1.00  0.00     0.088 A
HETATM   15  C8  UNL     1      43.545  -1.505  75.262  1.00  0.00     0.156 A
HETATM   16  F2  UNL     1      43.095  -2.491  76.066  1.00  0.00    -0.203 F
HETATM   17  C9  UNL     1      44.765  -0.979  75.272  1.00  0.00     0.156 A
HETATM   18  C23 UNL     1      45.080   0.087  74.373  1.00  0.00     0.169 A
HETATM   19  F3  UNL     1      46.299   0.662  74.359  1.00  0.00    -0.202 F
BRANCH  17  20
HETATM   20  O1  UNL     1      45.868  -1.298  76.053  1.00  0.00    -0.287 OA
BRANCH  20  21
HETATM   21  C10 UNL     1      46.190  -0.876  77.309  1.00  0.00     0.162 A
HETATM   22  N3  UNL     1      45.245  -1.106  78.311  1.00  0.00    -0.332 N
HETATM   23  C11 UNL     1      45.470  -0.735  79.559  1.00  0.00     0.182 A
ATOM     24  H3  UNL     1      44.366  -1.568  78.075  1.00  0.00     0.168 HD
HETATM   25  N4  UNL     1      46.605  -0.126  79.930  1.00  0.00    -0.351 N
HETATM   26  C12 UNL     1      47.547   0.111  78.996  1.00  0.00     0.049 A
ATOM     27  H4  UNL     1      46.753   0.153  80.900  1.00  0.00     0.166 HD
HETATM   28  C13 UNL     1      48.753   0.674  79.345  1.00  0.00     0.057 A
HETATM   29  C22 UNL     1      47.354  -0.264  77.666  1.00  0.00     0.045 A
HETATM   30  C14 UNL     1      49.750   0.865  78.433  1.00  0.00     0.069 A
HETATM   31 CL1  UNL     1      51.298   1.581  78.866  1.00  0.00    -0.081 Cl
HETATM   32  C15 UNL     1      49.591   0.492  77.089  1.00  0.00     0.092 A
HETATM   33  C21 UNL     1      48.390  -0.062  76.754  1.00  0.00     0.056 A
BRANCH  32  34
HETATM   34  O2  UNL     1      50.618   0.692  76.192  1.00  0.00    -0.344 OA
BRANCH  34  35
HETATM   35  C16 UNL     1      50.633   1.432  75.030  1.00  0.00     0.133 C
HETATM   36  C17 UNL     1      51.888   1.221  74.203  1.00  0.00     0.058 C
HETATM   37  C18 UNL     1      52.926   2.256  74.547  1.00  0.00     0.170 C
HETATM   38  O3  UNL     1      52.513   3.473  74.006  1.00  0.00    -0.391 OA
HETATM   39  C19 UNL     1      51.182   3.757  74.274  1.00  0.00     0.170 C
HETATM   40  C20 UNL     1      50.619   2.918  75.382  1.00  0.00     0.058 C
ENDBRANCH  34  35
ENDBRANCH  32  34
ENDBRANCH  20  21
ENDBRANCH  17  20
ENDBRANCH   4  11
BRANCH   8  41
HETATM   41  N6  UNL     1      46.362   2.756  69.872  1.00  0.00    -0.384 N
ATOM     42  H62 UNL     1      46.101   2.187  69.067  1.00  0.00     0.157 HD
ATOM     43  H61 UNL     1      47.238   3.278  69.885  1.00  0.00     0.157 HD
ENDBRANCH   8  41
BRANCH   1  44
HETATM   44  N1  UNL     1      43.635   5.216  72.440  1.00  0.00    -0.226 N
ATOM     45  H1  UNL     1      42.621   5.308  72.363  1.00  0.00     0.177 HD
BRANCH  44  46
HETATM   46  C2  UNL     1      44.390   6.371  72.787  1.00  0.00     0.133 C
HETATM   47  C1  UNL     1      43.980   6.777  74.199  1.00  0.00     0.027 C
ENDBRANCH  44  46
ENDBRANCH   1  44
TORSDOF 8
ENDMDL