MODEL 2
REMARK VINA RESULT: -9.923306254      3.679      5.905
REMARK  9 active torsions:
REMARK  status: ('A' for Active; 'I' for Inactive)
REMARK    1  A    between atoms: O1_2  and  C2_3
REMARK    2  A    between atoms: C2_3  and  C3_4
REMARK    3  A    between atoms: N1_6  and  C5_7
REMARK    4  A    between atoms: C11_15  and  C12_16
REMARK    5  A    between atoms: C12_16  and  O3_17
REMARK    6  A    between atoms: C12_16  and  C13_19
REMARK    7  A    between atoms: C13_19  and  O4_20
REMARK    8  A    between atoms: C15_23  and  N2_24
REMARK    9  A    between atoms: C16_27  and  C17_28
ROOT
HETATM    1  C3  UNL     1      46.663  -1.121  79.849  1.00  0.00     0.017 A
HETATM    2  C4  UNL     1      45.856  -1.604  78.883  1.00  0.00     0.104 A
HETATM    3  N1  UNL     1      46.320  -1.149  77.693  1.00  0.00    -0.345 N
HETATM    4  C14 UNL     1      47.402  -0.371  77.844  1.00  0.00     0.097 A
HETATM    5  C15 UNL     1      48.264   0.373  77.022  1.00  0.00     0.069 A
HETATM    6  C16 UNL     1      49.302   1.061  77.596  1.00  0.00     0.027 A
HETATM    7  C23 UNL     1      49.482   1.022  78.988  1.00  0.00     0.157 A
HETATM    8  O5  UNL     1      48.644   0.324  79.709  1.00  0.00    -0.319 OA
HETATM    9  C24 UNL     1      47.651  -0.341  79.227  1.00  0.00     0.114 A
ENDROOT
BRANCH   3  10
HETATM   10  C5  UNL     1      45.834  -1.582  76.412  1.00  0.00     0.123 C
HETATM   11  C6  UNL     1      45.551  -3.058  76.246  1.00  0.00     0.051 C
HETATM   12  C7  UNL     1      45.503  -3.263  74.755  1.00  0.00     0.118 C
HETATM   13 CL1  UNL     1      44.705  -4.779  74.271  1.00  0.00    -0.122 Cl
HETATM   14  C8  UNL     1      45.112  -2.080  73.981  1.00  0.00     0.071 C
HETATM   15  C9  UNL     1      46.258  -1.549  73.099  1.00  0.00     0.047 C
HETATM   16  C10 UNL     1      44.061  -2.571  72.944  1.00  0.00     0.047 C
HETATM   17  O2  UNL     1      44.539  -0.991  74.551  1.00  0.00    -0.369 OA
HETATM   18  C11 UNL     1      44.533  -0.977  75.961  1.00  0.00     0.176 C
BRANCH  18  19
HETATM   19  C12 UNL     1      43.277  -1.687  76.313  1.00  0.00     0.172 C
BRANCH  19  20
HETATM   20  O3  UNL     1      42.851  -1.594  77.621  1.00  0.00    -0.391 OA
ATOM     21  H3  UNL     1      42.185  -0.943  77.812  1.00  0.00     0.210 HD
ENDBRANCH  19  20
BRANCH  19  22
HETATM   22  C13 UNL     1      42.080  -1.157  75.490  1.00  0.00     0.198 C
BRANCH  22  23
HETATM   23  O4  UNL     1      42.134   0.260  75.478  1.00  0.00    -0.398 OA
ATOM     24  H4  UNL     1      41.465   0.583  74.886  1.00  0.00     0.209 HD
ENDBRANCH  22  23
ENDBRANCH  19  22
ENDBRANCH  18  19
ENDBRANCH   3  10
BRANCH   1  25
HETATM   25  C2  UNL     1      46.610  -1.368  81.314  1.00  0.00     0.210 C
BRANCH  25  26
HETATM   26  O1  UNL     1      45.941  -2.592  81.548  1.00  0.00    -0.391 OA
HETATM   27  C1  UNL     1      45.199  -2.571  82.692  1.00  0.00     0.201 C
ENDBRANCH  25  26
ENDBRANCH   1  25
BRANCH   5  28
HETATM   28  N2  UNL     1      47.976   0.486  75.792  1.00  0.00    -0.396 N
ATOM     29  H22 UNL     1      48.231  -0.224  75.106  1.00  0.00     0.156 HD
ATOM     30  H21 UNL     1      47.569   1.364  75.469  1.00  0.00     0.156 HD
ENDBRANCH   5  28
BRANCH   6  31
HETATM   31  C17 UNL     1      50.191   1.838  76.745  1.00  0.00     0.002 A
HETATM   32  C18 UNL     1      49.737   2.605  75.721  1.00  0.00     0.016 A
HETATM   33  C19 UNL     1      50.644   3.344  74.949  1.00  0.00     0.026 A
HETATM   34  C20 UNL     1      51.986   3.333  75.177  1.00  0.00     0.057 A
HETATM   35 CL2  UNL     1      53.131   4.237  74.212  1.00  0.00    -0.082 Cl
HETATM   36  C21 UNL     1      52.435   2.542  76.234  1.00  0.00     0.078 A
HETATM   37 CL3  UNL     1      54.156   2.473  76.549  1.00  0.00    -0.081 Cl
HETATM   38  C22 UNL     1      51.564   1.811  77.002  1.00  0.00     0.068 A
HETATM   39 CL4  UNL     1      52.194   0.818  78.311  1.00  0.00    -0.082 Cl
ENDBRANCH   6  31
TORSDOF 9
ENDMDL