MODEL 5
REMARK VINA RESULT: -11.106018682      2.522      5.801
REMARK  8 active torsions:
REMARK  status: ('A' for Active; 'I' for Inactive)
REMARK    1  A    between atoms: C2_2  and  N1_3
REMARK    2  A    between atoms: C3_4  and  C4_5
REMARK    3  A    between atoms: C10_16  and  N5_17
REMARK    4  A    between atoms: N5_17  and  C11_19
REMARK    5  A    between atoms: C13_21  and  C14_22
REMARK       I    between atoms: C14_22  and  N6_24
REMARK    6  A    between atoms: N6_24  and  C15_26
REMARK    7  A    between atoms: C17_28  and  C18_29
REMARK    8  A    between atoms: C18_29  and  O2_30
ROOT
HETATM    1  N5  UNL     1      43.803  -0.167  75.899  1.00  0.00    -0.340 N
ATOM      2  H5  UNL     1      43.044   0.507  76.002  1.00  0.00     0.167 HD
ENDROOT
BRANCH   1   3
HETATM    3  C10 UNL     1      44.008  -0.906  76.897  1.00  0.00     0.137 A
HETATM    4  C9  UNL     1      45.240  -0.770  77.552  1.00  0.00     0.123 A
HETATM    5  N4  UNL     1      46.288   0.025  77.317  1.00  0.00    -0.335 N
HETATM    6  C27 UNL     1      45.536  -1.540  78.647  1.00  0.00     0.141 A
HETATM    7  C3  UNL     1      47.267  -0.233  78.264  1.00  0.00     0.123 A
ATOM      8  H4  UNL     1      46.356   0.710  76.563  1.00  0.00     0.168 HD
HETATM    9  N1  UNL     1      46.805  -1.183  79.069  1.00  0.00    -0.317 N
HETATM   10  N8  UNL     1      44.635  -2.431  79.090  1.00  0.00    -0.336 N
HETATM   11  C26 UNL     1      43.455  -2.545  78.440  1.00  0.00     0.183 A
ATOM     12  H8  UNL     1      44.838  -3.014  79.903  1.00  0.00     0.168 HD
HETATM   13  N7  UNL     1      43.142  -1.807  77.373  1.00  0.00    -0.337 N
ATOM     14  H7  UNL     1      42.237  -1.930  76.918  1.00  0.00     0.168 HD
BRANCH   7  15
HETATM   15  C4  UNL     1      48.467   0.586  78.240  1.00  0.00     0.049 A
HETATM   16  C5  UNL     1      49.663   0.158  78.872  1.00  0.00     0.127 A
HETATM   17  N2  UNL     1      50.598   1.109  78.772  1.00  0.00    -0.307 N
HETATM   18  C6  UNL     1      51.947   1.037  79.293  1.00  0.00     0.177 C
HETATM   19  N3  UNL     1      50.051   2.093  78.119  1.00  0.00    -0.303 N
HETATM   20  C7  UNL     1      48.764   1.816  77.781  1.00  0.00     0.037 A
ATOM     21  H3  UNL     1      50.528   2.965  77.889  1.00  0.00     0.186 HD
HETATM   22  C8  UNL     1      47.926   2.824  77.079  1.00  0.00     0.070 C
ENDBRANCH   7  15
BRANCH   9  23
HETATM   23  C2  UNL     1      47.408  -1.780  80.232  1.00  0.00     0.128 C
HETATM   24  C1  UNL     1      46.609  -1.464  81.493  1.00  0.00     0.027 C
ENDBRANCH   9  23
ENDBRANCH   1   3
BRANCH   1  25
HETATM   25  C11 UNL     1      44.476  -0.138  74.660  1.00  0.00     0.040 A
HETATM   26  C12 UNL     1      45.727   0.397  74.505  1.00  0.00     0.050 A
HETATM   27  C13 UNL     1      46.427   0.439  73.286  1.00  0.00     0.073 A
HETATM   28  C22 UNL     1      45.762  -0.103  72.222  1.00  0.00     0.132 A
HETATM   29  F3  UNL     1      46.306  -0.099  70.987  1.00  0.00    -0.205 F
HETATM   30  C23 UNL     1      44.479  -0.660  72.339  1.00  0.00     0.052 A
HETATM   31  C24 UNL     1      43.840  -0.678  73.551  1.00  0.00    -0.032 A
HETATM   32  C25 UNL     1      42.478  -1.259  73.731  1.00  0.00     0.050 C
BRANCH  27  33
HETATM   33  C14 UNL     1      47.775   1.001  73.262  1.00  0.00     0.259 C
HETATM   34  O1  UNL     1      48.084   1.549  72.173  1.00  0.00    -0.267 OA
HETATM   35  N6  UNL     1      48.665   0.963  74.309  1.00  0.00    -0.320 N
ATOM     36  H6  UNL     1      48.313   0.506  75.150  1.00  0.00     0.169 HD
BRANCH  35  37
HETATM   37  C15 UNL     1      49.991   1.456  74.414  1.00  0.00     0.074 A
HETATM   38  C16 UNL     1      50.320   2.751  74.139  1.00  0.00     0.045 A
HETATM   39  C17 UNL     1      51.650   3.186  74.255  1.00  0.00     0.006 A
HETATM   40  C19 UNL     1      52.644   2.320  74.647  1.00  0.00     0.127 A
HETATM   41  F1  UNL     1      53.942   2.719  74.765  1.00  0.00    -0.205 F
HETATM   42  C20 UNL     1      52.310   1.027  74.921  1.00  0.00     0.087 A
HETATM   43  C21 UNL     1      51.020   0.602  74.809  1.00  0.00     0.146 A
HETATM   44  F2  UNL     1      50.711  -0.687  75.087  1.00  0.00    -0.204 F
BRANCH  39  45
HETATM   45  C18 UNL     1      52.012   4.606  73.951  1.00  0.00     0.206 C
BRANCH  45  46
HETATM   46  O2  UNL     1      52.015   5.318  75.147  1.00  0.00    -0.396 OA
ATOM     47  H2  UNL     1      52.918   5.485  75.390  1.00  0.00     0.209 HD
ENDBRANCH  45  46
ENDBRANCH  39  45
ENDBRANCH  35  37
ENDBRANCH  27  33
ENDBRANCH   1  25
TORSDOF 8
ENDMDL