MODEL 5
REMARK VINA RESULT: -8.927417702      2.400      4.049
REMARK  8 active torsions:
REMARK  status: ('A' for Active; 'I' for Inactive)
REMARK    1  A    between atoms: C3_3  and  C4_4
REMARK    2  A    between atoms: C4_4  and  C5_7
REMARK    3  A    between atoms: C11_15  and  O1_16
REMARK    4  A    between atoms: C14_22  and  N2_23
REMARK    5  A    between atoms: N2_23  and  C15_25
REMARK    6  A    between atoms: C15_25  and  C16_26
REMARK    7  A    between atoms: C16_26  and  O3_27
REMARK    8  A    between atoms: C16_26  and  C17_29
ROOT
HETATM    1  C1  UNL     1      47.825   0.944  73.470  1.00  0.00     0.053 C
HETATM    2  C2  UNL     1      47.289   0.798  74.815  1.00  0.00    -0.004 A
HETATM    3  C3  UNL     1      45.993   0.347  74.955  1.00  0.00     0.045 A
HETATM    4  C11 UNL     1      45.427   0.219  76.242  1.00  0.00     0.146 A
HETATM    5  C12 UNL     1      46.176   0.548  77.332  1.00  0.00     0.282 A
HETATM    6  O2  UNL     1      45.690   0.443  78.465  1.00  0.00    -0.265 OA
HETATM    7  N1  UNL     1      47.451   0.993  77.209  1.00  0.00    -0.302 N
HETATM    8  C13 UNL     1      48.163   1.228  78.431  1.00  0.00     0.161 C
HETATM    9  C14 UNL     1      48.031   1.129  75.983  1.00  0.00     0.112 A
ENDROOT
BRANCH   9  10
HETATM   10  N2  UNL     1      49.384   1.506  75.796  1.00  0.00    -0.373 N
ATOM     11  H2  UNL     1      50.017   0.712  75.696  1.00  0.00     0.161 HD
BRANCH  10  12
HETATM   12  C15 UNL     1      50.036   2.757  75.721  1.00  0.00     0.160 C
BRANCH  12  13
HETATM   13  C16 UNL     1      51.478   2.705  76.224  1.00  0.00     0.192 C
BRANCH  13  14
HETATM   14  O3  UNL     1      51.588   3.245  77.506  1.00  0.00    -0.387 OA
ATOM     15  H3  UNL     1      52.130   4.025  77.507  1.00  0.00     0.210 HD
ENDBRANCH  13  14
BRANCH  13  16
HETATM   16  C17 UNL     1      52.273   3.585  75.311  1.00  0.00     0.081 A
HETATM   17  N3  UNL     1      51.906   4.771  74.846  1.00  0.00    -0.361 N
HETATM   18  C18 UNL     1      52.695   5.427  74.060  1.00  0.00     0.096 A
ATOM     19  H3  UNL     1      51.002   5.164  75.108  1.00  0.00     0.165 HD
HETATM   20  C19 UNL     1      53.899   4.854  73.737  1.00  0.00     0.068 A
HETATM   21  S1  UNL     1      53.813   3.379  74.605  1.00  0.00    -0.085 SA
ENDBRANCH  13  16
ENDBRANCH  12  13
ENDBRANCH  10  12
ENDBRANCH   9  10
BRANCH   3  22
HETATM   22  C4  UNL     1      45.183  -0.067  73.832  1.00  0.00     0.219 C
HETATM   23  F1  UNL     1      45.998  -0.114  72.656  1.00  0.00    -0.219 F
HETATM   24 BR1  UNL     1      43.876   1.304  73.331  1.00  0.00    -0.037 Br
BRANCH  22  25
HETATM   25  C5  UNL     1      44.542  -1.397  73.802  1.00  0.00     0.015 A
HETATM   26  C6  UNL     1      43.172  -1.510  73.497  1.00  0.00     0.016 A
HETATM   27  C7  UNL     1      42.558  -2.705  73.376  1.00  0.00     0.043 A
HETATM   28  C8  UNL     1      43.283  -3.865  73.556  1.00  0.00     0.117 A
HETATM   29  F2  UNL     1      42.681  -5.069  73.437  1.00  0.00    -0.206 F
HETATM   30  C9  UNL     1      44.625  -3.828  73.857  1.00  0.00     0.062 A
HETATM   31  C10 UNL     1      45.217  -2.570  73.972  1.00  0.00     0.024 A
HETATM   32 BR2  UNL     1      47.085  -2.631  74.436  1.00  0.00    -0.050 Br
ENDBRANCH  22  25
ENDBRANCH   3  22
BRANCH   4  33
HETATM   33  O1  UNL     1      44.125  -0.249  76.341  1.00  0.00    -0.355 OA
ATOM     34  H1  UNL     1      43.716  -0.605  75.561  1.00  0.00     0.218 HD
ENDBRANCH   4  33
TORSDOF 8
ENDMDL