MODEL 3
REMARK VINA RESULT: -9.241704555      1.580      1.835
REMARK  8 active torsions:
REMARK  status: ('A' for Active; 'I' for Inactive)
REMARK    1  A    between atoms: C2_2  and  C3_3
REMARK    2  A    between atoms: C3_3  and  N1_5
REMARK    3  A    between atoms: C3_3  and  C5_9
REMARK       I    between atoms: C5_9  and  N2_11
REMARK    4  A    between atoms: N2_11  and  C6_13
REMARK    5  A    between atoms: C9_16  and  C10_17
REMARK    6  A    between atoms: C12_20  and  N3_21
REMARK    7  A    between atoms: N3_21  and  C13_23
REMARK    8  A    between atoms: C18_32  and  S2_33
ROOT
HETATM    1  C10 UNL     1      48.630   0.564  78.218  1.00  0.00     0.068 A
HETATM    2  C11 UNL     1      48.415  -0.162  79.352  1.00  0.00     0.085 A
HETATM    3  S1  UNL     1      46.770  -0.655  79.164  1.00  0.00    -0.063 SA
HETATM    4  C12 UNL     1      46.477   0.093  77.670  1.00  0.00     0.149 A
HETATM    5  N4  UNL     1      47.623   0.677  77.380  1.00  0.00    -0.334 N
ATOM      6  H4  UNL     1      47.728   1.210  76.516  1.00  0.00     0.168 HD
ENDROOT
BRANCH   1   7
HETATM    7  C9  UNL     1      49.921   1.276  77.983  1.00  0.00     0.063 A
HETATM    8  C8  UNL     1      50.953   1.335  78.893  1.00  0.00     0.036 A
HETATM    9  C7  UNL     1      51.944   2.066  78.354  1.00  0.00     0.051 A
HETATM   10  C6  UNL     1      51.550   2.497  77.055  1.00  0.00     0.110 A
HETATM   11  N5  UNL     1      50.310   1.980  76.913  1.00  0.00    -0.336 N
HETATM   12  C20 UNL     1      49.450   2.323  75.765  1.00  0.00     0.158 C
BRANCH  10  13
HETATM   13  N2  UNL     1      52.397   3.295  76.274  1.00  0.00    -0.311 N
HETATM   14  C5  UNL     1      53.597   3.090  75.638  1.00  0.00     0.259 C
HETATM   15  O1  UNL     1      54.299   2.068  75.714  1.00  0.00    -0.270 OA
ATOM     16  H2  UNL     1      52.041   4.243  76.150  1.00  0.00     0.170 HD
BRANCH  14  17
HETATM   17  C3  UNL     1      54.174   4.163  74.749  1.00  0.00     0.199 C
HETATM   18  C4  UNL     1      53.057   5.001  74.236  1.00  0.00     0.056 C
BRANCH  17  19
HETATM   19  C2  UNL     1      55.248   4.953  75.434  1.00  0.00     0.044 C
HETATM   20  C1  UNL     1      56.063   5.831  74.539  1.00  0.00     0.008 C
ENDBRANCH  17  19
BRANCH  17  21
HETATM   21  N1  UNL     1      54.830   3.531  73.590  1.00  0.00    -0.062 N
ATOM     22  H13 UNL     1      55.841   3.440  73.690  1.00  0.00     0.275 HD
ATOM     23  H12 UNL     1      54.628   2.536  73.497  1.00  0.00     0.275 HD
ATOM     24  H11 UNL     1      54.545   4.084  72.782  1.00  0.00     0.275 HD
ENDBRANCH  17  21
ENDBRANCH  14  17
ENDBRANCH  10  13
ENDBRANCH   1   7
BRANCH   4  25
HETATM   25  N3  UNL     1      45.367   0.094  76.960  1.00  0.00    -0.334 N
ATOM     26  H3  UNL     1      44.670   0.831  77.075  1.00  0.00     0.168 HD
BRANCH  25  27
HETATM   27  C13 UNL     1      45.168  -0.962  76.026  1.00  0.00     0.081 A
HETATM   28  C14 UNL     1      44.682  -2.152  76.530  1.00  0.00     0.087 A
HETATM   29 CL1  UNL     1      44.343  -2.312  78.244  1.00  0.00    -0.080 Cl
HETATM   30  C15 UNL     1      44.461  -3.222  75.681  1.00  0.00     0.098 A
HETATM   31 CL2  UNL     1      43.847  -4.730  76.317  1.00  0.00    -0.079 Cl
HETATM   32  C16 UNL     1      44.745  -3.050  74.336  1.00  0.00     0.163 A
HETATM   33  F1  UNL     1      44.535  -4.093  73.484  1.00  0.00    -0.202 F
HETATM   34  C17 UNL     1      45.230  -1.855  73.848  1.00  0.00     0.098 A
HETATM   35 CL3  UNL     1      45.588  -1.641  72.140  1.00  0.00    -0.079 Cl
HETATM   36  C18 UNL     1      45.455  -0.771  74.691  1.00  0.00     0.112 A
BRANCH  36  37
HETATM   37  S2  UNL     1      46.071   0.740  74.077  1.00  0.00     0.175 S
HETATM   38  C19 UNL     1      44.940   1.325  72.830  1.00  0.00     0.167 C
HETATM   39  O2  UNL     1      46.053   1.731  75.202  1.00  0.00    -0.223 OA
HETATM   40  O3  UNL     1      47.416   0.551  73.491  1.00  0.00    -0.223 OA
ENDBRANCH  36  37
ENDBRANCH  25  27
ENDBRANCH   4  25
TORSDOF 8
ENDMDL