MODEL 5
REMARK VINA RESULT: -9.294650718      1.101      1.204
REMARK  9 active torsions:
REMARK  status: ('A' for Active; 'I' for Inactive)
REMARK    1  A    between atoms: O1_2  and  C2_3
REMARK    2  A    between atoms: C6_9  and  O3_10
REMARK    3  A    between atoms: C8_14  and  O4_15
REMARK    4  A    between atoms: C12_20  and  O5_21
REMARK    5  A    between atoms: C12_20  and  O6_23
REMARK    6  A    between atoms: O6_23  and  C13_24
REMARK    7  A    between atoms: C13_24  and  C14_25
REMARK    8  A    between atoms: C14_25  and  C16_27
REMARK    9  A    between atoms: C19_30  and  O7_31
ROOT
HETATM    1  C2  UNL     1      45.239  -0.191  77.065  1.00  0.00     0.139 C
HETATM    2  C3  UNL     1      45.661  -0.292  78.327  1.00  0.00     0.120 C
HETATM    3 CL1  UNL     1      44.433  -0.330  79.607  1.00  0.00    -0.077 Cl
HETATM    4  C4  UNL     1      47.052  -0.119  78.694  1.00  0.00     0.210 C
HETATM    5  O2  UNL     1      47.393  -0.243  79.895  1.00  0.00    -0.285 OA
HETATM    6  C5  UNL     1      47.985   0.194  77.626  1.00  0.00     0.064 A
HETATM    7  C6  UNL     1      49.306   0.532  77.984  1.00  0.00     0.101 A
HETATM    8  C7  UNL     1      50.181   1.010  76.981  1.00  0.00     0.080 A
HETATM    9 BR1  UNL     1      51.978   1.486  77.394  1.00  0.00    -0.045 Br
HETATM   10  C8  UNL     1      49.703   1.121  75.707  1.00  0.00     0.110 A
HETATM   11  C10 UNL     1      48.407   0.776  75.403  1.00  0.00     0.082 A
HETATM   12 CL2  UNL     1      47.903   0.976  73.768  1.00  0.00    -0.081 Cl
HETATM   13  C11 UNL     1      47.522   0.305  76.340  1.00  0.00     0.052 A
HETATM   14  C12 UNL     1      46.171  -0.215  75.971  1.00  0.00     0.247 C
ENDROOT
BRANCH  14  15
HETATM   15  O5  UNL     1      46.590  -1.709  75.973  1.00  0.00    -0.356 OA
ATOM     16  H5  UNL     1      46.637  -1.884  75.041  1.00  0.00     0.214 HD
ENDBRANCH  14  15
BRANCH  14  17
HETATM   17  O6  UNL     1      45.868  -0.108  74.701  1.00  0.00    -0.345 OA
BRANCH  17  18
HETATM   18  C13 UNL     1      45.051   0.607  73.998  1.00  0.00     0.181 C
BRANCH  18  19
HETATM   19  C14 UNL     1      44.177   0.254  72.875  1.00  0.00     0.038 C
HETATM   20  C15 UNL     1      42.691   0.257  73.185  1.00  0.00     0.017 C
BRANCH  19  21
HETATM   21  C16 UNL     1      44.299   1.428  71.893  1.00  0.00    -0.052 A
HETATM   22  C17 UNL     1      45.440   1.663  71.194  1.00  0.00     0.010 A
HETATM   23  C18 UNL     1      45.515   2.718  70.321  1.00  0.00     0.037 A
HETATM   24  C19 UNL     1      44.457   3.574  70.114  1.00  0.00     0.065 A
HETATM   25  C20 UNL     1      43.294   3.344  70.816  1.00  0.00     0.037 A
HETATM   26  C21 UNL     1      43.225   2.273  71.699  1.00  0.00     0.010 A
BRANCH  24  27
HETATM   27  O7  UNL     1      44.589   4.628  69.216  1.00  0.00    -0.361 OA
ATOM     28  H7  UNL     1      43.939   5.322  69.205  1.00  0.00     0.217 HD
ENDBRANCH  24  27
ENDBRANCH  19  21
ENDBRANCH  18  19
ENDBRANCH  17  18
ENDBRANCH  14  17
BRANCH   1  29
HETATM   29  O1  UNL     1      43.813  -0.087  76.920  1.00  0.00    -0.353 OA
HETATM   30  C1  UNL     1      43.073  -1.241  76.547  1.00  0.00     0.209 C
ENDBRANCH   1  29
BRANCH   7  31
HETATM   31  O3  UNL     1      49.835   0.445  79.215  1.00  0.00    -0.358 OA
ATOM     32  H3  UNL     1      49.911  -0.347  79.734  1.00  0.00     0.217 HD
ENDBRANCH   7  31
BRANCH  10  33
HETATM   33  O4  UNL     1      50.547   1.589  74.717  1.00  0.00    -0.353 OA
HETATM   34  C9  UNL     1      50.769   2.959  74.455  1.00  0.00     0.210 C
ENDBRANCH  10  33
TORSDOF 9
ENDMDL