MODEL 4
REMARK VINA RESULT: -10.642750631      2.169      4.668
REMARK  8 active torsions:
REMARK  status: ('A' for Active; 'I' for Inactive)
REMARK    1  A    between atoms: C5_5  and  O1_6
REMARK    2  A    between atoms: O1_6  and  C6_7
REMARK    3  A    between atoms: C6_7  and  C7_9
REMARK    4  A    between atoms: C11_13  and  N1_14
REMARK    5  A    between atoms: N1_14  and  C12_16
REMARK    6  A    between atoms: C12_16  and  C13_17
REMARK    7  A    between atoms: C19_27  and  O4_28
REMARK    8  A    between atoms: C25_36  and  C26_37
ROOT
HETATM    1  C1  UNL     1      44.108  -1.165  78.111  1.00  0.00     0.046 C
HETATM    2  C2  UNL     1      44.894  -1.434  77.099  1.00  0.00     0.039 C
HETATM    3  C3  UNL     1      46.223  -0.772  76.894  1.00  0.00     0.074 C
HETATM    4  C4  UNL     1      46.459  -0.895  75.404  1.00  0.00     0.063 C
HETATM    5  C5  UNL     1      46.694   0.421  74.772  1.00  0.00     0.169 C
HETATM    6  C15 UNL     1      46.328   0.524  73.328  1.00  0.00     0.158 C
HETATM    7  O3  UNL     1      47.188   1.363  72.656  1.00  0.00    -0.370 OA
HETATM    8  C16 UNL     1      46.812   1.615  71.347  1.00  0.00     0.080 C
HETATM    9  C17 UNL     1      46.850   0.447  70.429  1.00  0.00     0.048 C
HETATM   10  C18 UNL     1      47.830   2.635  70.811  1.00  0.00     0.048 C
HETATM   11  C19 UNL     1      45.457   2.296  71.250  1.00  0.00     0.152 C
HETATM   12  C20 UNL     1      44.452   1.299  71.848  1.00  0.00     0.043 C
HETATM   13  C21 UNL     1      44.919   1.059  73.244  1.00  0.00     0.037 C
HETATM   14  C22 UNL     1      44.002   0.204  74.043  1.00  0.00     0.102 C
HETATM   15  C23 UNL     1      42.658   0.335  73.421  1.00  0.00     0.064 C
HETATM   16  N2  UNL     1      41.609   0.427  72.939  1.00  0.00    -0.197 NA
HETATM   17  C24 UNL     1      44.363  -1.229  73.986  1.00  0.00     0.063 C
HETATM   18  C25 UNL     1      45.394  -1.754  74.890  1.00  0.00     0.119 C
HETATM   19  O5  UNL     1      44.773  -2.288  76.046  1.00  0.00    -0.341 OA
ENDROOT
BRANCH  18  20
HETATM   20  C26 UNL     1      45.956  -3.033  74.218  1.00  0.00     0.301 C
HETATM   21  F3  UNL     1      47.326  -2.858  74.178  1.00  0.00    -0.230 F
HETATM   22 CL2  UNL     1      45.591  -4.389  75.298  1.00  0.00    -0.086 Cl
ENDBRANCH  18  20
BRANCH   5  23
HETATM   23  O1  UNL     1      48.063   0.855  74.872  1.00  0.00    -0.309 OA
BRANCH  23  24
HETATM   24  C6  UNL     1      48.472   1.648  75.934  1.00  0.00     0.295 C
HETATM   25  O2  UNL     1      47.640   2.494  76.335  1.00  0.00    -0.259 OA
BRANCH  24  26
HETATM   26  C7  UNL     1      49.748   1.585  76.612  1.00  0.00     0.063 A
HETATM   27  C8  UNL     1      49.898   0.628  77.610  1.00  0.00     0.019 A
HETATM   28  C9  UNL     1      51.074   0.480  78.306  1.00  0.00     0.003 A
HETATM   29  C10 UNL     1      52.161   1.302  78.018  1.00  0.00     0.031 A
HETATM   30  C11 UNL     1      52.041   2.255  77.039  1.00  0.00     0.051 A
HETATM   31  C14 UNL     1      50.832   2.375  76.356  1.00  0.00     0.076 A
HETATM   32 CL1  UNL     1      50.678   3.596  75.103  1.00  0.00    -0.081 Cl
BRANCH  30  33
HETATM   33  N1  UNL     1      53.144   3.085  76.718  1.00  0.00    -0.383 N
ATOM     34  H1  UNL     1      53.091   4.056  77.023  1.00  0.00     0.159 HD
BRANCH  33  35
HETATM   35  C12 UNL     1      54.320   2.699  76.011  1.00  0.00     0.191 C
BRANCH  35  36
HETATM   36  C13 UNL     1      54.825   3.800  75.147  1.00  0.00     0.370 C
HETATM   37  F1  UNL     1      53.752   4.567  74.715  1.00  0.00    -0.213 F
HETATM   38  F2  UNL     1      55.607   4.638  75.948  1.00  0.00    -0.213 F
ENDBRANCH  35  36
ENDBRANCH  33  35
ENDBRANCH  30  33
ENDBRANCH  24  26
ENDBRANCH  23  24
ENDBRANCH   5  23
BRANCH  11  39
HETATM   39  O4  UNL     1      45.174   2.611  69.947  1.00  0.00    -0.393 OA
ATOM     40  H4  UNL     1      45.298   3.541  69.796  1.00  0.00     0.210 HD
ENDBRANCH  11  39
TORSDOF 8
ENDMDL