MODEL 5
REMARK VINA RESULT: -9.730482838      2.012      2.493
REMARK  7 active torsions:
REMARK  status: ('A' for Active; 'I' for Inactive)
REMARK    1  A    between atoms: O1_2  and  C2_3
REMARK    2  A    between atoms: C5_7  and  O2_8
REMARK    3  A    between atoms: O2_8  and  C6_9
REMARK    4  A    between atoms: C7_12  and  N2_13
REMARK    5  A    between atoms: C12_23  and  S1_24
REMARK    6  A    between atoms: S1_24  and  N5_27
REMARK    7  A    between atoms: N5_27  and  C13_29
ROOT
HETATM    1  C6  UNL     1      45.233   1.893  72.076  1.00  0.00     0.185 A
HETATM    2  N1  UNL     1      44.488   2.877  72.607  1.00  0.00    -0.169 N
ATOM      3  H1  UNL     1      44.048   2.725  73.514  1.00  0.00     0.186 HD
HETATM    4  C7  UNL     1      44.301   4.059  71.981  1.00  0.00     0.677 A
HETATM    5  N3  UNL     1      44.882   4.257  70.785  1.00  0.00    -0.201 N
ATOM      6  H3  UNL     1      44.739   5.152  70.317  1.00  0.00     0.183 HD
HETATM    7  C8  UNL     1      45.645   3.329  70.176  1.00  0.00     0.133 A
HETATM    8  C9  UNL     1      45.809   2.133  70.852  1.00  0.00     0.112 A
HETATM    9  C10 UNL     1      46.610   1.107  70.257  1.00  0.00     0.105 C
HETATM   10  N4  UNL     1      47.264   0.289  69.761  1.00  0.00    -0.191 NA
ENDROOT
BRANCH   1  11
HETATM   11  O2  UNL     1      45.457   0.667  72.671  1.00  0.00    -0.290 OA
BRANCH  11  12
HETATM   12  C5  UNL     1      45.393   0.469  74.044  1.00  0.00     0.101 A
HETATM   13  C4  UNL     1      44.261   0.047  74.689  1.00  0.00     0.070 A
HETATM   14  C3  UNL     1      44.288  -0.124  76.055  1.00  0.00     0.065 A
HETATM   15 CL1  UNL     1      42.822  -0.257  73.734  1.00  0.00    -0.081 Cl
HETATM   16  C2  UNL     1      45.445   0.126  76.775  1.00  0.00     0.093 A
HETATM   17  C12 UNL     1      46.617   0.558  76.160  1.00  0.00     0.115 A
HETATM   18  C11 UNL     1      46.529   0.712  74.779  1.00  0.00     0.067 A
BRANCH  16  19
HETATM   19  O1  UNL     1      45.438  -0.062  78.161  1.00  0.00    -0.354 OA
HETATM   20  C1  UNL     1      44.512   0.639  78.968  1.00  0.00     0.210 C
ENDBRANCH  16  19
BRANCH  17  21
HETATM   21  S1  UNL     1      48.079   0.917  77.038  1.00  0.00     0.266 S
HETATM   22  O3  UNL     1      48.010   0.080  78.314  1.00  0.00    -0.200 OA
HETATM   23  O4  UNL     1      47.925   2.389  77.417  1.00  0.00    -0.200 OA
BRANCH  21  24
HETATM   24  N5  UNL     1      49.500   0.611  76.205  1.00  0.00    -0.276 N
ATOM     25  H5  UNL     1      49.577  -0.347  75.863  1.00  0.00     0.179 HD
BRANCH  24  26
HETATM   26  C13 UNL     1      50.594   1.405  75.889  1.00  0.00     0.103 A
HETATM   27  C14 UNL     1      50.671   2.006  74.647  1.00  0.00     0.146 A
HETATM   28  F1  UNL     1      49.642   1.800  73.804  1.00  0.00    -0.204 F
HETATM   29  C15 UNL     1      51.741   2.795  74.247  1.00  0.00     0.064 A
HETATM   30  C16 UNL     1      52.788   2.999  75.119  1.00  0.00     0.015 A
HETATM   31 BR1  UNL     1      54.254   4.092  74.544  1.00  0.00    -0.051 Br
HETATM   32  C17 UNL     1      52.754   2.418  76.370  1.00  0.00     0.045 A
HETATM   33  C18 UNL     1      51.661   1.629  76.742  1.00  0.00     0.065 A
HETATM   34 CL2  UNL     1      51.658   0.940  78.357  1.00  0.00    -0.082 Cl
ENDBRANCH  24  26
ENDBRANCH  21  24
ENDBRANCH  17  21
ENDBRANCH  11  12
ENDBRANCH   1  11
BRANCH   4  35
HETATM   35  N2  UNL     1      43.569   5.004  72.518  1.00  0.00    -0.234 N
ATOM     36  H22 UNL     1      43.956   5.590  73.258  1.00  0.00     0.174 HD
ATOM     37  H21 UNL     1      42.611   5.169  72.212  1.00  0.00     0.174 HD
ENDBRANCH   4  35
TORSDOF 7
ENDMDL