MODEL 2
REMARK VINA RESULT: -10.069158879      1.707      2.399
REMARK  8 active torsions:
REMARK  status: ('A' for Active; 'I' for Inactive)
REMARK    1  A    between atoms: C2_2  and  C3_3
REMARK    2  A    between atoms: N1_5  and  N2_7
REMARK    3  A    between atoms: C7_13  and  C8_14
REMARK    4  A    between atoms: C8_14  and  O3_15
REMARK    5  A    between atoms: C8_14  and  N3_17
REMARK    6  A    between atoms: N3_17  and  C9_19
REMARK    7  A    between atoms: C10_20  and  C11_21
REMARK       I    between atoms: C11_21  and  N4_23
REMARK    8  A    between atoms: N4_23  and  C12_25
ROOT
HETATM    1  C12 UNL     1      51.777   3.045  76.265  1.00  0.00     0.058 A
HETATM    2  C13 UNL     1      51.547   3.910  75.238  1.00  0.00     0.041 A
HETATM    3  C14 UNL     1      52.586   4.524  74.527  1.00  0.00    -0.019 A
HETATM    4  C15 UNL     1      52.269   5.455  73.421  1.00  0.00     0.051 C
HETATM    5  C16 UNL     1      53.875   4.234  74.893  1.00  0.00     0.148 A
HETATM    6  F1  UNL     1      54.929   4.798  74.243  1.00  0.00    -0.203 F
HETATM    7  C17 UNL     1      54.132   3.354  75.940  1.00  0.00     0.108 A
HETATM    8  N5  UNL     1      55.441   3.032  76.344  1.00  0.00    -0.097 NA
HETATM    9  C18 UNL     1      53.102   2.763  76.623  1.00  0.00     0.098 A
HETATM   10  C19 UNL     1      53.367   1.839  77.719  1.00  0.00     0.104 C
HETATM   11  N6  UNL     1      53.590   1.110  78.588  1.00  0.00    -0.191 NA
ENDROOT
BRANCH   1  12
HETATM   12  N4  UNL     1      50.718   2.431  76.987  1.00  0.00    -0.321 N
HETATM   13  C11 UNL     1      50.156   1.165  76.783  1.00  0.00     0.258 C
HETATM   14  O4  UNL     1      50.506   0.355  75.913  1.00  0.00    -0.267 OA
ATOM     15  H4  UNL     1      50.320   2.980  77.749  1.00  0.00     0.169 HD
BRANCH  13  16
HETATM   16  C10 UNL     1      49.045   0.714  77.658  1.00  0.00     0.060 A
HETATM   17  C9  UNL     1      47.765   0.798  77.178  1.00  0.00     0.073 A
HETATM   18  C23 UNL     1      46.715   0.367  77.950  1.00  0.00     0.083 A
HETATM   19  C22 UNL     1      46.923  -0.160  79.226  1.00  0.00     0.058 A
HETATM   20 CL3  UNL     1      45.081   0.470  77.346  1.00  0.00    -0.080 Cl
HETATM   21  C21 UNL     1      48.211  -0.241  79.702  1.00  0.00     0.027 A
HETATM   22 CL2  UNL     1      45.552  -0.699  80.175  1.00  0.00    -0.082 Cl
HETATM   23  C20 UNL     1      49.292   0.194  78.927  1.00  0.00     0.021 A
BRANCH  17  24
HETATM   24  N3  UNL     1      47.416   1.354  75.875  1.00  0.00    -0.333 N
ATOM     25  H3  UNL     1      47.154   2.335  75.778  1.00  0.00     0.168 HD
BRANCH  24  26
HETATM   26  C8  UNL     1      47.452   0.509  74.764  1.00  0.00     0.172 C
BRANCH  26  27
HETATM   27  C7  UNL     1      46.530  -0.562  74.442  1.00  0.00     0.132 C
HETATM   28  N2  UNL     1      45.191  -0.401  74.000  1.00  0.00    -0.216 N
HETATM   29  C4  UNL     1      44.350  -1.549  73.676  1.00  0.00     0.267 C
HETATM   30  O1  UNL     1      43.325  -1.404  72.960  1.00  0.00    -0.269 OA
HETATM   31  C5  UNL     1      44.766  -2.861  74.228  1.00  0.00     0.279 C
HETATM   32  O2  UNL     1      46.195  -2.918  74.252  1.00  0.00    -0.351 OA
HETATM   33  C6  UNL     1      46.972  -1.838  74.547  1.00  0.00     0.171 C
BRANCH  28  34
HETATM   34  N1  UNL     1      44.586   0.818  73.844  1.00  0.00    -0.298 N
HETATM   35  C2  UNL     1      44.699   1.578  72.829  1.00  0.00     0.014 C
HETATM   36  C1  UNL     1      43.961   2.898  72.826  1.00  0.00     0.066 C
ATOM     37  H1  UNL     1      43.993   1.145  74.607  1.00  0.00     0.187 HD
BRANCH  35  38
HETATM   38  C3  UNL     1      45.507   1.215  71.656  1.00  0.00     0.168 C
HETATM   39 CL1  UNL     1      45.482   2.592  70.485  1.00  0.00    -0.124 Cl
ENDBRANCH  35  38
ENDBRANCH  28  34
ENDBRANCH  26  27
BRANCH  26  40
HETATM   40  O3  UNL     1      48.414   0.685  73.902  1.00  0.00    -0.344 OA
ATOM     41  H3  UNL     1      49.288   0.530  74.240  1.00  0.00     0.219 HD
ENDBRANCH  26  40
ENDBRANCH  24  26
ENDBRANCH  17  24
ENDBRANCH  13  16
ENDBRANCH   1  12
TORSDOF 8
ENDMDL