MODEL 2
REMARK VINA RESULT: -6.580828990      3.969      6.625
REMARK  2 active torsions:
REMARK  status: ('A' for Active; 'I' for Inactive)
REMARK    1  A    between atoms: C5_6  and  N2_7
REMARK    2  A    between atoms: N3_13  and  C10_14
ROOT
HETATM    1  N1  UNL     1     121.908  15.856  25.609  1.00  0.00    -0.191 NA
HETATM    2  C1  UNL     1     122.207  14.745  25.736  1.00  0.00     0.107 C
HETATM    3  C2  UNL     1     122.566  13.340  25.879  1.00  0.00     0.087 A
HETATM    4  C3  UNL     1     123.503  12.796  26.718  1.00  0.00     0.033 A
HETATM    5  C4  UNL     1     123.669  11.472  26.682  1.00  0.00     0.039 A
HETATM    6  C5  UNL     1     122.890  10.758  25.806  1.00  0.00     0.076 A
HETATM    7  S1  UNL     1     121.951  11.974  25.066  1.00  0.00    -0.061 SA
ENDROOT
BRANCH   6   8
HETATM    8  N2  UNL     1     122.894   9.328  25.595  1.00  0.00    -0.340 N
HETATM    9  C6  UNL     1     121.914   8.596  26.003  1.00  0.00     0.080 C
HETATM   10  C7  UNL     1     120.715   9.174  26.719  1.00  0.00     0.078 C
HETATM   11  N3  UNL     1     121.759   7.199  25.876  1.00  0.00    -0.366 N
HETATM   12  C8  UNL     1     119.686   8.114  26.304  1.00  0.00     0.027 C
HETATM   13  C9  UNL     1     120.519   6.873  26.552  1.00  0.00     0.125 C
ATOM     14  H2  UNL     1     123.683   8.892  25.117  1.00  0.00     0.167 HD
BRANCH  11  15
HETATM   15  C10 UNL     1     122.669   6.269  25.202  1.00  0.00     0.085 C
HETATM   16  C11 UNL     1     121.943   4.994  24.833  1.00  0.00     0.025 C
HETATM   17  C12 UNL     1     121.681   4.078  25.975  1.00  0.00     0.002 C
HETATM   18  C13 UNL     1     122.969   3.708  26.657  1.00  0.00     0.000 C
HETATM   19  C14 UNL     1     123.667   4.967  27.112  1.00  0.00     0.002 C
HETATM   20  C15 UNL     1     123.890   5.948  26.000  1.00  0.00     0.025 C
ENDBRANCH  11  15
ENDBRANCH   6   8
TORSDOF 2
ENDMDL