MODEL 5
REMARK VINA RESULT: -6.670318659      1.081      3.196
REMARK  2 active torsions:
REMARK  status: ('A' for Active; 'I' for Inactive)
REMARK    1  A    between atoms: C5_6  and  C6_7
REMARK    2  A    between atoms: C6_7  and  N1_8
ROOT
HETATM    1  C1  UNL     1     123.666  12.199  26.822  1.00  0.00     0.002 A
HETATM    2  C2  UNL     1     122.775  12.774  25.944  1.00  0.00     0.002 A
HETATM    3  C3  UNL     1     121.863  11.912  25.362  1.00  0.00     0.021 A
HETATM    4  C4  UNL     1     121.877  10.542  25.674  1.00  0.00     0.033 A
HETATM    5  S1  UNL     1     120.965   9.144  25.214  1.00  0.00    -0.072 SA
HETATM    6  C5  UNL     1     121.775   7.991  26.152  1.00  0.00     0.091 A
HETATM    7  N2  UNL     1     122.681   8.709  26.759  1.00  0.00    -0.351 N
ATOM      8  H2  UNL     1     123.328   8.261  27.407  1.00  0.00     0.166 HD
HETATM    9  C15 UNL     1     122.766   9.990  26.546  1.00  0.00     0.050 A
HETATM   10  C16 UNL     1     123.700  10.872  27.142  1.00  0.00     0.031 A
ENDROOT
BRANCH   6  11
HETATM   11  C6  UNL     1     121.538   6.511  26.288  1.00  0.00     0.208 C
HETATM   12  C11 UNL     1     121.029   6.348  27.729  1.00  0.00     0.049 C
HETATM   13  C12 UNL     1     119.632   6.935  27.588  1.00  0.00     0.003 C
HETATM   14  C13 UNL     1     119.169   6.595  26.196  1.00  0.00     0.003 C
HETATM   15  C14 UNL     1     120.399   6.185  25.398  1.00  0.00     0.049 C
BRANCH  11  16
HETATM   16  N1  UNL     1     122.742   5.865  26.093  1.00  0.00     0.104 N
HETATM   17  C7  UNL     1     123.368   5.190  27.189  1.00  0.00     0.274 C
HETATM   18  C8  UNL     1     124.441   4.283  26.573  1.00  0.00     0.032 C
HETATM   19  C9  UNL     1     124.323   4.589  25.106  1.00  0.00     0.032 C
HETATM   20  C10 UNL     1     122.844   4.953  24.982  1.00  0.00     0.274 C
ENDBRANCH  11  16
ENDBRANCH   6  11
TORSDOF 2
ENDMDL