MODEL 4
REMARK VINA RESULT: -5.753026879      2.684      3.936
REMARK  2 active torsions:
REMARK  status: ('A' for Active; 'I' for Inactive)
REMARK    1  A    between atoms: C3_4  and  C4_5
REMARK    2  A    between atoms: N2_10  and  C7_11
ROOT
HETATM    1  C4  UNL     1     120.396   5.846  24.280  1.00  0.00     0.069 A
HETATM    2  C5  UNL     1     120.613   5.763  22.873  1.00  0.00     0.119 A
HETATM    3  N1  UNL     1     119.716   4.906  22.437  1.00  0.00    -0.360 N
ATOM      4  H1  UNL     1     119.598   4.617  21.466  1.00  0.00     0.166 HD
HETATM    5  C6  UNL     1     118.989   4.476  23.458  1.00  0.00     0.184 A
HETATM    6  N2  UNL     1     119.411   5.071  24.638  1.00  0.00    -0.330 N
ENDROOT
BRANCH   6   7
HETATM    7  C7  UNL     1     118.752   4.821  25.855  1.00  0.00     0.043 C
HETATM    8  C8  UNL     1     119.549   4.016  26.885  1.00  0.00     0.036 C
HETATM    9  C9  UNL     1     118.642   4.141  28.088  1.00  0.00    -0.011 C
HETATM   10  C10 UNL     1     117.296   3.468  27.886  1.00  0.00     0.009 C
HETATM   11  C14 UNL     1     118.381   5.636  28.082  1.00  0.00     0.012 C
HETATM   12  C11 UNL     1     116.657   3.977  26.627  1.00  0.00    -0.011 C
HETATM   13  C12 UNL     1     116.517   5.481  26.594  1.00  0.00     0.012 C
HETATM   14  C15 UNL     1     117.620   3.797  25.501  1.00  0.00     0.036 C
HETATM   15  C13 UNL     1     118.027   5.832  26.592  1.00  0.00     0.015 C
ENDBRANCH   6   7
BRANCH   1  16
HETATM   16  C3  UNL     1     121.229   6.763  25.051  1.00  0.00     0.033 A
HETATM   17  S1  UNL     1     120.821   8.421  25.447  1.00  0.00    -0.100 SA
HETATM   18  C2  UNL     1     122.255   8.895  26.218  1.00  0.00     0.050 A
HETATM   19  C1  UNL     1     123.014   7.767  26.150  1.00  0.00     0.008 A
HETATM   20  C16 UNL     1     122.485   6.693  25.556  1.00  0.00     0.021 A
ENDBRANCH   1  16
TORSDOF 2
ENDMDL