MODEL 3
REMARK VINA RESULT: -7.044164665      1.344      5.104
REMARK  1 active torsions:
REMARK  status: ('A' for Active; 'I' for Inactive)
REMARK    1  A    between atoms: N3_17  and  C13_18
ROOT
HETATM    1  C1  UNL     1     117.424   4.416  27.709  1.00  0.00     0.002 A
HETATM    2  C2  UNL     1     118.520   3.581  27.695  1.00  0.00     0.002 A
HETATM    3  C3  UNL     1     119.755   4.135  27.395  1.00  0.00     0.032 A
HETATM    4  C4  UNL     1     119.920   5.473  27.116  1.00  0.00     0.067 A
HETATM    5  C5  UNL     1     118.822   6.287  27.135  1.00  0.00     0.061 A
HETATM    6  C6  UNL     1     117.590   5.754  27.429  1.00  0.00     0.032 A
HETATM    7  N1  UNL     1     119.269   7.497  26.842  1.00  0.00    -0.340 N
ATOM      8  H1  UNL     1     118.687   8.333  26.776  1.00  0.00     0.167 HD
HETATM    9  C7  UNL     1     120.647   7.468  26.636  1.00  0.00     0.123 A
HETATM   10  C8  UNL     1     121.335   8.667  26.260  1.00  0.00     0.011 A
HETATM   11  C9  UNL     1     120.577   9.642  25.573  1.00  0.00     0.032 A
HETATM   12  C10 UNL     1     121.136  10.851  25.247  1.00  0.00     0.088 A
HETATM   13  N2  UNL     1     122.406  11.178  25.553  1.00  0.00    -0.375 N
ATOM     14  H2  UNL     1     122.787  12.088  25.293  1.00  0.00     0.164 HD
HETATM   15  C11 UNL     1     123.148  10.294  26.197  1.00  0.00     0.088 A
HETATM   16  C12 UNL     1     122.609   9.058  26.541  1.00  0.00     0.032 A
HETATM   17  N3  UNL     1     121.058   6.221  26.800  1.00  0.00    -0.302 N
ENDROOT
BRANCH  17  18
HETATM   18  C13 UNL     1     122.310   5.569  26.656  1.00  0.00    -0.004 C
HETATM   19  C14 UNL     1     123.066   5.720  25.375  1.00  0.00     0.053 C
HETATM   20  C15 UNL     1     123.822   4.393  25.190  1.00  0.00     0.006 C
HETATM   21  C16 UNL     1     124.716   4.123  26.369  1.00  0.00     0.001 C
HETATM   22  C17 UNL     1     124.145   4.382  27.707  1.00  0.00     0.006 C
HETATM   23  C18 UNL     1     123.276   5.645  27.792  1.00  0.00     0.053 C
ENDBRANCH  17  18
TORSDOF 1
ENDMDL