MODEL 1
REMARK VINA RESULT: -7.824637378      0.000      0.000
REMARK  2 active torsions:
REMARK  status: ('A' for Active; 'I' for Inactive)
REMARK    1  A    between atoms: C3_3  and  C4_4
REMARK    2  A    between atoms: N1_7  and  C7_8
ROOT
HETATM    1  C4  UNL     1     122.843  13.554  26.221  1.00  0.00     0.061 A
HETATM    2  C5  UNL     1     123.998  13.491  26.971  1.00  0.00     0.050 A
HETATM    3  C6  UNL     1     124.056  14.672  27.678  1.00  0.00     0.113 A
HETATM    4  N1  UNL     1     122.975  15.436  27.375  1.00  0.00    -0.297 N
HETATM    5  N2  UNL     1     122.284  14.719  26.500  1.00  0.00    -0.298 N
ATOM      6  H2  UNL     1     121.409  15.036  26.083  1.00  0.00     0.187 HD
ENDROOT
BRANCH   4   7
HETATM    7  C7  UNL     1     122.614  16.726  27.859  1.00  0.00     0.115 C
HETATM    8  C8  UNL     1     123.781  17.548  28.357  1.00  0.00     0.011 C
HETATM    9  C9  UNL     1     123.157  18.623  29.262  1.00  0.00     0.011 C
HETATM   10  C13 UNL     1     124.515  18.278  27.280  1.00  0.00     0.011 C
HETATM   11  C10 UNL     1     122.174  19.424  28.465  1.00  0.00    -0.013 C
HETATM   12  C11 UNL     1     122.936  20.185  27.411  1.00  0.00     0.009 C
HETATM   13  C16 UNL     1     121.088  18.602  27.830  1.00  0.00     0.011 C
HETATM   14  C12 UNL     1     123.612  19.179  26.510  1.00  0.00    -0.013 C
HETATM   15  C14 UNL     1     122.502  18.325  25.898  1.00  0.00     0.011 C
HETATM   16  C15 UNL     1     121.764  17.544  26.936  1.00  0.00     0.011 C
ENDBRANCH   4   7
BRANCH   1  17
HETATM   17  C3  UNL     1     122.327  12.549  25.302  1.00  0.00     0.016 A
HETATM   18  C2  UNL     1     121.121  11.901  25.416  1.00  0.00     0.040 A
HETATM   19  C1  UNL     1     121.044  11.043  24.336  1.00  0.00     0.142 A
HETATM   20  O1  UNL     1     122.147  11.178  23.620  1.00  0.00    -0.334 OA
HETATM   21  C17 UNL     1     122.932  12.075  24.180  1.00  0.00     0.155 A
ENDBRANCH   1  17
TORSDOF 2
ENDMDL