MODEL 5
REMARK VINA RESULT: -7.228983314      3.221      5.768
REMARK  2 active torsions:
REMARK  status: ('A' for Active; 'I' for Inactive)
REMARK    1  A    between atoms: N1_2  and  C2_3
REMARK    2  A    between atoms: N1_2  and  C11_13
ROOT
HETATM    1  C2  UNL     1     122.175  10.402  26.459  1.00  0.00     0.246 C
HETATM    2  C3  UNL     1     123.490   9.702  26.390  1.00  0.00     0.010 C
HETATM    3  C4  UNL     1     123.823   8.433  26.197  1.00  0.00     0.017 C
HETATM    4  C5  UNL     1     122.870   7.327  25.991  1.00  0.00     0.011 A
HETATM    5  S1  UNL     1     123.184   5.659  26.265  1.00  0.00    -0.102 SA
HETATM    6  C6  UNL     1     121.669   5.008  25.822  1.00  0.00     0.051 A
HETATM    7  C7  UNL     1     120.959   6.125  25.473  1.00  0.00     0.015 A
HETATM    8  C8  UNL     1     121.569   7.312  25.558  1.00  0.00    -0.041 A
HETATM    9  C9  UNL     1     120.871   8.620  25.194  1.00  0.00     0.042 C
HETATM   10  C10 UNL     1     120.992   9.523  26.363  1.00  0.00     0.044 C
ENDROOT
BRANCH   1  11
HETATM   11  N1  UNL     1     122.210  11.531  25.612  1.00  0.00     0.097 N
HETATM   12  C1  UNL     1     123.190  11.324  24.571  1.00  0.00     0.311 C
BRANCH  11  13
HETATM   13  C11 UNL     1     122.350  12.801  26.242  1.00  0.00     0.223 C
HETATM   14  C12 UNL     1     123.761  13.233  26.496  1.00  0.00     0.036 C
HETATM   15  C13 UNL     1     123.695  14.409  27.467  1.00  0.00     0.002 C
HETATM   16  C14 UNL     1     122.960  15.540  26.777  1.00  0.00     0.000 C
HETATM   17  C15 UNL     1     121.641  15.134  26.211  1.00  0.00     0.002 C
HETATM   18  C16 UNL     1     121.723  13.863  25.368  1.00  0.00     0.036 C
ENDBRANCH  11  13
ENDBRANCH   1  11
TORSDOF 2
ENDMDL