MODEL 2
REMARK VINA RESULT: -7.042992826      0.594      1.035
REMARK  2 active torsions:
REMARK  status: ('A' for Active; 'I' for Inactive)
REMARK    1  A    between atoms: C4_6  and  C5_7
REMARK    2  A    between atoms: N3_16  and  C12_17
ROOT
HETATM    1  C5  UNL     1     122.853   7.413  26.586  1.00  0.00     0.124 A
HETATM    2  N2  UNL     1     123.591   8.598  26.737  1.00  0.00    -0.339 N
ATOM      3  H2  UNL     1     124.536   8.657  27.118  1.00  0.00     0.167 HD
HETATM    4  C6  UNL     1     122.875   9.627  26.311  1.00  0.00     0.061 A
HETATM    5  C7  UNL     1     123.162  11.000  26.244  1.00  0.00     0.032 A
HETATM    6  C8  UNL     1     122.179  11.812  25.731  1.00  0.00     0.002 A
HETATM    7  C9  UNL     1     120.971  11.319  25.300  1.00  0.00     0.002 A
HETATM    8  C10 UNL     1     120.713   9.955  25.377  1.00  0.00     0.032 A
HETATM    9  C11 UNL     1     121.677   9.113  25.887  1.00  0.00     0.067 A
HETATM   10  N3  UNL     1     121.672   7.722  26.067  1.00  0.00    -0.302 N
ENDROOT
BRANCH   1  11
HETATM   11  C4  UNL     1     123.425   6.161  27.027  1.00  0.00     0.024 A
HETATM   12  C3  UNL     1     124.027   5.188  26.324  1.00  0.00     0.102 A
HETATM   13  N1  UNL     1     124.461   4.007  26.860  1.00  0.00    -0.374 N
HETATM   14  C2  UNL     1     124.322   3.714  28.158  1.00  0.00     0.087 A
ATOM     15  H1  UNL     1     124.907   3.324  26.247  1.00  0.00     0.164 HD
HETATM   16  C1  UNL     1     123.715   4.668  28.936  1.00  0.00     0.018 A
HETATM   17  C18 UNL     1     123.281   5.849  28.405  1.00  0.00     0.018 A
ENDBRANCH   1  11
BRANCH  10  18
HETATM   18  C12 UNL     1     120.518   6.958  25.767  1.00  0.00    -0.004 C
HETATM   19  C13 UNL     1     119.941   6.056  26.808  1.00  0.00     0.053 C
HETATM   20  C14 UNL     1     118.397   6.096  26.597  1.00  0.00     0.006 C
HETATM   21  C15 UNL     1     118.110   5.771  25.150  1.00  0.00     0.001 C
HETATM   22  C16 UNL     1     119.319   5.295  24.382  1.00  0.00     0.006 C
HETATM   23  C17 UNL     1     120.482   6.258  24.433  1.00  0.00     0.053 C
ENDBRANCH  10  18
TORSDOF 2
ENDMDL