MODEL 5
REMARK VINA RESULT: -7.141206576      1.842      4.535
REMARK  2 active torsions:
REMARK  status: ('A' for Active; 'I' for Inactive)
REMARK    1  A    between atoms: C4_4  and  C5_5
REMARK    2  A    between atoms: N2_14  and  C12_15
ROOT
HETATM    1  C5  UNL     1     119.781   7.197  26.642  1.00  0.00     0.136 A
HETATM    2  N1  UNL     1     119.643   8.541  26.495  1.00  0.00    -0.339 N
ATOM      3  H1  UNL     1     118.759   9.049  26.540  1.00  0.00     0.167 HD
HETATM    4  C6  UNL     1     120.836   9.094  26.283  1.00  0.00     0.060 A
HETATM    5  C7  UNL     1     121.226  10.428  26.074  1.00  0.00     0.032 A
HETATM    6  C8  UNL     1     122.550  10.734  25.875  1.00  0.00     0.002 A
HETATM    7  C9  UNL     1     123.478   9.720  25.887  1.00  0.00     0.002 A
HETATM    8  C10 UNL     1     123.059   8.403  26.098  1.00  0.00     0.032 A
HETATM    9  C11 UNL     1     121.739   8.060  26.300  1.00  0.00     0.063 A
HETATM   10  N2  UNL     1     121.075   6.870  26.526  1.00  0.00    -0.325 N
ENDROOT
BRANCH   1  11
HETATM   11  C4  UNL     1     118.636   6.336  26.885  1.00  0.00     0.076 A
HETATM   12  C3  UNL     1     118.598   5.561  28.057  1.00  0.00     0.033 A
HETATM   13  C2  UNL     1     117.516   4.758  28.268  1.00  0.00     0.004 A
HETATM   14  C1  UNL     1     116.501   4.731  27.337  1.00  0.00     0.017 A
HETATM   15  C18 UNL     1     116.546   5.496  26.185  1.00  0.00     0.088 A
HETATM   16  N3  UNL     1     117.627   6.267  26.023  1.00  0.00    -0.363 N
ATOM     17  H3  UNL     1     117.681   6.839  25.181  1.00  0.00     0.165 HD
ENDBRANCH   1  11
BRANCH  10  18
HETATM   18  C12 UNL     1     121.763   5.611  26.597  1.00  0.00     0.092 C
HETATM   19  C13 UNL     1     122.299   5.302  25.224  1.00  0.00     0.026 C
HETATM   20  C14 UNL     1     123.378   4.282  25.175  1.00  0.00     0.002 C
HETATM   21  C15 UNL     1     124.488   4.551  26.159  1.00  0.00     0.000 C
HETATM   22  C16 UNL     1     123.887   4.606  27.521  1.00  0.00     0.002 C
HETATM   23  C17 UNL     1     122.783   5.580  27.707  1.00  0.00     0.026 C
ENDBRANCH  10  18
TORSDOF 2
ENDMDL