MODEL 3
REMARK VINA RESULT: -8.269164645      1.541      2.085
REMARK  2 active torsions:
REMARK  status: ('A' for Active; 'I' for Inactive)
REMARK    1  A    between atoms: C3_5  and  C4_6
REMARK    2  A    between atoms: C7_9  and  N2_10
ROOT
HETATM    1  C4  UNL     1     122.153  16.773  27.665  1.00  0.00     0.036 C
HETATM    2  C5  UNL     1     123.601  16.374  27.735  1.00  0.00     0.013 C
HETATM    3  C6  UNL     1     123.631  14.866  27.551  1.00  0.00     0.026 C
HETATM    4  C7  UNL     1     122.988  14.424  26.283  1.00  0.00     0.079 C
HETATM    5  C13 UNL     1     121.633  15.051  26.041  1.00  0.00     0.026 C
HETATM    6  C14 UNL     1     121.727  16.569  26.210  1.00  0.00     0.013 C
ENDROOT
BRANCH   1   7
HETATM    7  C3  UNL     1     122.010  18.240  28.044  1.00  0.00     0.020 A
HETATM    8  N1  UNL     1     121.108  18.992  27.481  1.00  0.00    -0.357 N
HETATM    9  C2  UNL     1     120.996  20.253  27.815  1.00  0.00     0.047 A
ATOM     10  H1  UNL     1     120.486  18.597  26.775  1.00  0.00     0.166 HD
HETATM   11  C1  UNL     1     120.035  21.306  27.303  1.00  0.00     0.076 C
HETATM   12  S1  UNL     1     122.219  20.434  28.995  1.00  0.00    -0.087 SA
HETATM   13  C15 UNL     1     122.817  18.836  28.987  1.00  0.00     0.076 A
ENDBRANCH   1   7
BRANCH   4  14
HETATM   14  N2  UNL     1     122.928  13.017  26.232  1.00  0.00    -0.408 N
HETATM   15  C8  UNL     1     123.892  12.313  26.991  1.00  0.00     0.117 C
HETATM   16  C9  UNL     1     123.632  10.827  27.050  1.00  0.00     0.019 C
HETATM   17  C10 UNL     1     122.369  10.506  26.251  1.00  0.00     0.003 C
HETATM   18  C11 UNL     1     122.637  11.018  24.842  1.00  0.00     0.019 C
HETATM   19  C12 UNL     1     122.661  12.529  24.934  1.00  0.00     0.117 C
ENDBRANCH   4  14
TORSDOF 2
ENDMDL