MODEL 1
REMARK VINA RESULT: -7.485882116      0.000      0.000
REMARK  2 active torsions:
REMARK  status: ('A' for Active; 'I' for Inactive)
REMARK    1  A    between atoms: C4_4  and  C5_5
REMARK    2  A    between atoms: N3_15  and  C11_16
ROOT
HETATM    1  C5  UNL     1     122.793   8.133  26.177  1.00  0.00     0.120 A
HETATM    2  N1  UNL     1     123.593   9.259  26.338  1.00  0.00    -0.339 N
ATOM      3  H1  UNL     1     124.572   9.241  26.626  1.00  0.00     0.167 HD
HETATM    4  C6  UNL     1     122.906  10.359  26.064  1.00  0.00     0.078 A
HETATM    5  C7  UNL     1     123.261  11.705  26.067  1.00  0.00     0.035 A
HETATM    6  C8  UNL     1     122.316  12.639  25.716  1.00  0.00     0.019 A
HETATM    7  C9  UNL     1     121.052  12.168  25.377  1.00  0.00     0.090 A
HETATM    8  N2  UNL     1     120.762  10.860  25.390  1.00  0.00    -0.350 N
ATOM      9  H2  UNL     1     119.820  10.568  25.133  1.00  0.00     0.166 HD
HETATM   10  C10 UNL     1     121.648   9.926  25.724  1.00  0.00     0.136 A
HETATM   11  N3  UNL     1     121.587   8.540  25.801  1.00  0.00    -0.312 N
ENDROOT
BRANCH   1  12
HETATM   12  C4  UNL     1     123.290   6.793  26.449  1.00  0.00     0.008 A
HETATM   13  C3  UNL     1     123.112   6.108  27.592  1.00  0.00     0.015 A
HETATM   14  C2  UNL     1     123.670   4.860  27.820  1.00  0.00     0.001 A
HETATM   15  C1  UNL     1     124.437   4.302  26.829  1.00  0.00     0.000 A
HETATM   16  C17 UNL     1     124.637   4.978  25.643  1.00  0.00     0.001 A
HETATM   17  C16 UNL     1     124.079   6.201  25.444  1.00  0.00     0.015 A
ENDBRANCH   1  12
BRANCH  11  18
HETATM   18  C11 UNL     1     120.377   7.810  25.558  1.00  0.00     0.093 C
HETATM   19  C12 UNL     1     120.559   6.573  24.673  1.00  0.00     0.026 C
HETATM   20  C13 UNL     1     119.181   5.933  24.823  1.00  0.00     0.002 C
HETATM   21  C14 UNL     1     118.742   6.246  26.233  1.00  0.00     0.002 C
HETATM   22  C15 UNL     1     119.669   7.310  26.779  1.00  0.00     0.026 C
ENDBRANCH  11  18
TORSDOF 2
ENDMDL