MODEL 5
REMARK VINA RESULT: -4.171159448      0.949      6.605
REMARK  2 active torsions:
REMARK  status: ('A' for Active; 'I' for Inactive)
REMARK    1  A    between atoms: O1_1  and  N1_3
REMARK    2  A    between atoms: N4_22  and  O2_23
ROOT
HETATM    1  N1  UNL     1      22.964  21.868  21.908  1.00  0.00    -0.120 N
HETATM    2  C1  UNL     1      23.037  22.802  20.948  1.00  0.00     0.099 A
HETATM    3  C2  UNL     1      23.561  22.594  19.615  1.00  0.00    -0.005 A
HETATM    4  C3  UNL     1      24.489  21.649  19.298  1.00  0.00     0.014 A
HETATM    5  C4  UNL     1      24.933  21.488  17.980  1.00  0.00     0.001 A
HETATM    6  C5  UNL     1      24.455  22.272  16.963  1.00  0.00     0.000 A
HETATM    7  C6  UNL     1      23.516  23.235  17.261  1.00  0.00     0.001 A
HETATM    8  C7  UNL     1      23.093  23.374  18.565  1.00  0.00     0.014 A
HETATM    9  C8  UNL     1      22.528  24.057  21.300  1.00  0.00     0.085 A
HETATM   10  C9  UNL     1      21.996  24.302  22.541  1.00  0.00     0.134 A
HETATM   11  N2  UNL     1      21.457  25.444  23.068  1.00  0.00    -0.339 N
ATOM     12  H2  UNL     1      21.363  26.341  22.590  1.00  0.00     0.167 HD
HETATM   13  C10 UNL     1      21.077  25.174  24.324  1.00  0.00     0.062 A
HETATM   14  C11 UNL     1      20.477  25.918  25.340  1.00  0.00     0.032 A
HETATM   15  C12 UNL     1      20.206  25.343  26.549  1.00  0.00     0.002 A
HETATM   16  C13 UNL     1      20.518  24.020  26.785  1.00  0.00     0.002 A
HETATM   17  C14 UNL     1      21.105  23.299  25.782  1.00  0.00     0.034 A
HETATM   18  C15 UNL     1      21.395  23.852  24.544  1.00  0.00     0.089 A
HETATM   19  N3  UNL     1      21.959  23.325  23.443  1.00  0.00    -0.194 N
HETATM   20  N4  UNL     1      22.438  22.145  23.107  1.00  0.00    -0.058 N
ENDROOT
BRANCH   1  21
HETATM   21  O1  UNL     1      23.404  20.577  21.705  1.00  0.00    -0.265 OA
ATOM     22  H1  UNL     1      23.148  19.864  22.277  1.00  0.00     0.247 HD
ENDBRANCH   1  21
BRANCH  20  23
HETATM   23  O2  UNL     1      22.404  21.115  24.046  1.00  0.00    -0.251 OA
ATOM     24  H2  UNL     1      21.958  20.314  23.799  1.00  0.00     0.248 HD
ENDBRANCH  20  23
TORSDOF 2
ENDMDL