MODEL 3
REMARK VINA RESULT: -6.973478940      2.317      3.256
REMARK  2 active torsions:
REMARK  status: ('A' for Active; 'I' for Inactive)
REMARK    1  A    between atoms: C7_7  and  O1_8
REMARK    2  A    between atoms: C10_12  and  C11_13
ROOT
HETATM    1  C1  UNL     1      25.446  19.133  19.450  1.00  0.00     0.026 C
HETATM    2  C2  UNL     1      24.705  20.201  19.644  1.00  0.00    -0.012 A
HETATM    3  C3  UNL     1      24.259  20.947  18.588  1.00  0.00     0.015 A
HETATM    4  C4  UNL     1      23.489  22.058  18.819  1.00  0.00     0.031 A
HETATM    5  C5  UNL     1      23.169  22.408  20.137  1.00  0.00     0.043 A
HETATM    6  C6  UNL     1      23.610  21.662  21.211  1.00  0.00     0.006 A
HETATM    7  C7  UNL     1      24.401  20.528  20.962  1.00  0.00     0.084 A
HETATM    8  C8  UNL     1      23.469  21.671  22.665  1.00  0.00     0.072 C
HETATM    9  C9  UNL     1      22.482  22.548  23.299  1.00  0.00    -0.007 C
HETATM   10  C10 UNL     1      21.696  23.589  23.200  1.00  0.00     0.003 C
HETATM   11  C16 UNL     1      21.454  24.523  22.093  1.00  0.00     0.089 A
HETATM   12  C17 UNL     1      21.795  24.448  20.760  1.00  0.00     0.134 A
HETATM   13  N2  UNL     1      22.477  23.481  19.996  1.00  0.00    -0.340 N
ATOM     14  H2  UNL     1      22.395  23.709  19.005  1.00  0.00     0.167 HD
HETATM   15  N3  UNL     1      21.102  25.583  21.188  1.00  0.00    -0.337 N
ATOM     16  H3  UNL     1      20.669  26.488  21.000  1.00  0.00     0.167 HD
ENDROOT
BRANCH  10  17
HETATM   17  C11 UNL     1      20.902  23.928  24.355  1.00  0.00    -0.008 A
HETATM   18  C12 UNL     1      21.498  24.745  25.344  1.00  0.00     0.015 A
HETATM   19  C13 UNL     1      20.851  25.137  26.489  1.00  0.00     0.018 A
HETATM   20  C14 UNL     1      19.559  24.706  26.664  1.00  0.00     0.087 A
HETATM   21  N1  UNL     1      18.964  23.937  25.756  1.00  0.00    -0.374 N
HETATM   22  C15 UNL     1      19.613  23.549  24.618  1.00  0.00     0.100 A
ATOM     23  H1  UNL     1      18.003  23.629  25.912  1.00  0.00     0.164 HD
ENDBRANCH  10  17
BRANCH   7  24
HETATM   24  O1  UNL     1      24.872  19.756  21.985  1.00  0.00    -0.359 OA
ATOM     25  H1  UNL     1      25.602  20.057  22.512  1.00  0.00     0.217 HD
ENDBRANCH   7  24
TORSDOF 2
ENDMDL