MODEL 3
REMARK VINA RESULT: -4.977878630      4.889      6.961
REMARK  2 active torsions:
REMARK  status: ('A' for Active; 'I' for Inactive)
REMARK    1  A    between atoms: N2_12  and  C9_14
REMARK    2  A    between atoms: N3_22  and  O2_23
ROOT
HETATM    1  C9  UNL     1      23.115  23.355  17.213  1.00  0.00     0.123 A
HETATM    2  C10 UNL     1      22.052  23.190  16.346  1.00  0.00     0.063 A
HETATM    3  C11 UNL     1      21.365  24.261  15.806  1.00  0.00    -0.002 A
HETATM    4  C12 UNL     1      20.304  24.117  14.940  1.00  0.00     0.014 A
HETATM    5  C13 UNL     1      19.653  25.217  14.430  1.00  0.00     0.001 A
HETATM    6  C14 UNL     1      20.071  26.487  14.794  1.00  0.00     0.002 A
HETATM    7  C15 UNL     1      21.133  26.654  15.661  1.00  0.00     0.035 A
HETATM    8  C16 UNL     1      21.774  25.537  16.160  1.00  0.00     0.091 A
HETATM    9  N3  UNL     1      22.810  25.676  17.006  1.00  0.00    -0.161 N
HETATM   10  N4  UNL     1      23.457  24.622  17.513  1.00  0.00    -0.259 N
ATOM     11  H4  UNL     1      24.236  24.784  18.150  1.00  0.00     0.191 HD
ENDROOT
BRANCH   1  12
HETATM   12  N2  UNL     1      23.829  22.258  17.773  1.00  0.00    -0.336 N
HETATM   13  C8  UNL     1      23.687  21.926  19.010  1.00  0.00     0.115 A
HETATM   14  C1  UNL     1      22.843  22.540  20.015  1.00  0.00     0.273 A
HETATM   15  C7  UNL     1      24.385  20.817  19.648  1.00  0.00     0.023 A
HETATM   16  O1  UNL     1      22.077  23.534  19.860  1.00  0.00    -0.266 OA
HETATM   17  N1  UNL     1      23.060  21.787  21.214  1.00  0.00    -0.321 N
HETATM   18  C2  UNL     1      23.998  20.746  20.975  1.00  0.00     0.047 A
ATOM     19  H1  UNL     1      22.606  21.970  22.109  1.00  0.00     0.169 HD
HETATM   20  C3  UNL     1      24.505  19.780  21.826  1.00  0.00     0.030 A
HETATM   21  C4  UNL     1      25.417  18.888  21.302  1.00  0.00     0.002 A
HETATM   22  C5  UNL     1      25.814  18.941  19.994  1.00  0.00     0.001 A
HETATM   23  C6  UNL     1      25.298  19.912  19.149  1.00  0.00     0.016 A
ATOM     24  H2  UNL     1      24.467  21.724  17.184  1.00  0.00     0.168 HD
ENDBRANCH   1  12
BRANCH   9  25
HETATM   25  O2  UNL     1      23.182  26.966  17.331  1.00  0.00    -0.267 OA
ATOM     26  H2  UNL     1      22.787  27.344  18.108  1.00  0.00     0.247 HD
ENDBRANCH   9  25
TORSDOF 2
ENDMDL