MODEL 5
REMARK VINA RESULT: -5.765074636      3.304      5.508
REMARK  7 active torsions:
REMARK  status: ('A' for Active; 'I' for Inactive)
REMARK    1  A    between atoms: N3_9  and  O1_10
REMARK    2  A    between atoms: C4_12  and  C5_13
REMARK    3  A    between atoms: C5_13  and  C6_14
REMARK    4  A    between atoms: C6_14  and  C7_15
REMARK    5  A    between atoms: C7_15  and  O2_16
REMARK    6  A    between atoms: O2_16  and  C8_17
REMARK    7  A    between atoms: C9_18  and  C10_19
ROOT
HETATM    1  C1  UNL     1      25.506  21.946  18.938  1.00  0.00     0.071 C
HETATM    2  C2  UNL     1      25.073  20.564  19.184  1.00  0.00     0.047 A
HETATM    3  N1  UNL     1      25.603  19.507  18.508  1.00  0.00    -0.333 N
ATOM      4  H1  UNL     1      26.324  19.678  17.806  1.00  0.00     0.168 HD
HETATM    5  C3  UNL     1      25.202  18.242  18.739  1.00  0.00     0.193 A
HETATM    6  S1  UNL     1      25.829  16.964  17.935  1.00  0.00    -0.039 SA
HETATM    7  N2  UNL     1      24.253  18.006  19.659  1.00  0.00    -0.248 N
ATOM      8  H2  UNL     1      23.948  17.049  19.836  1.00  0.00     0.192 HD
HETATM    9  N3  UNL     1      23.712  19.000  20.337  1.00  0.00    -0.151 N
HETATM   10  C4  UNL     1      24.108  20.286  20.115  1.00  0.00     0.156 A
ENDROOT
BRANCH  10  11
HETATM   11  C5  UNL     1      23.512  21.364  20.861  1.00  0.00    -0.040 C
BRANCH  11  12
HETATM   12  C6  UNL     1      23.015  22.279  21.469  1.00  0.00    -0.072 C
BRANCH  12  13
HETATM   13  C7  UNL     1      22.434  23.402  22.207  1.00  0.00     0.282 C
BRANCH  13  14
HETATM   14  O2  UNL     1      21.669  24.143  21.275  1.00  0.00    -0.292 OA
BRANCH  14  15
HETATM   15  C8  UNL     1      22.315  24.465  20.093  1.00  0.00     0.056 C
HETATM   16  C9  UNL     1      22.860  24.749  19.055  1.00  0.00    -0.067 C
BRANCH  16  17
HETATM   17  C10 UNL     1      23.496  25.092  17.788  1.00  0.00     0.015 C
HETATM   18  C11 UNL     1      22.609  24.550  16.686  1.00  0.00     0.028 C
HETATM   19  C12 UNL     1      23.596  26.585  17.584  1.00  0.00     0.028 C
HETATM   20  C13 UNL     1      24.849  24.437  17.658  1.00  0.00     0.028 C
ENDBRANCH  16  17
ENDBRANCH  14  15
ENDBRANCH  13  14
ENDBRANCH  12  13
ENDBRANCH  11  12
ENDBRANCH  10  11
BRANCH   9  21
HETATM   21  O1  UNL     1      22.751  18.726  21.265  1.00  0.00    -0.267 OA
ATOM     22  H1  UNL     1      22.472  19.413  21.859  1.00  0.00     0.247 HD
ENDBRANCH   9  21
TORSDOF 7
ENDMDL