MODEL 4
REMARK VINA RESULT: -5.914776773      1.526      2.942
REMARK  3 active torsions:
REMARK  status: ('A' for Active; 'I' for Inactive)
REMARK    1  A    between atoms: N3_6  and  O1_7
REMARK    2  A    between atoms: C6_11  and  C7_12
REMARK    3  A    between atoms: N4_21  and  O2_22
ROOT
HETATM    1  N1  UNL     1      25.197  22.308  16.987  1.00  0.00    -0.190 NA
HETATM    2  C1  UNL     1      24.612  22.641  17.930  1.00  0.00     0.123 C
HETATM    3  C2  UNL     1      23.871  23.049  19.079  1.00  0.00     0.186 A
HETATM    4  C3  UNL     1      23.182  24.244  19.030  1.00  0.00     0.184 A
HETATM    5  N2  UNL     1      23.168  25.089  17.897  1.00  0.00    -0.077 NA
HETATM    6  N3  UNL     1      22.500  24.611  20.103  1.00  0.00    -0.206 N
HETATM    7  C4  UNL     1      22.475  23.840  21.227  1.00  0.00     0.094 A
HETATM    8  C5  UNL     1      21.763  24.246  22.323  1.00  0.00     0.046 A
HETATM    9  C6  UNL     1      21.723  23.483  23.473  1.00  0.00    -0.024 A
HETATM   10  C13 UNL     1      22.400  22.291  23.548  1.00  0.00     0.014 A
HETATM   11  C14 UNL     1      23.118  21.879  22.448  1.00  0.00     0.035 A
HETATM   12  C15 UNL     1      23.160  22.646  21.286  1.00  0.00     0.093 A
HETATM   13  N4  UNL     1      23.850  22.275  20.195  1.00  0.00    -0.209 N
ENDROOT
BRANCH  13  14
HETATM   14  O2  UNL     1      24.542  21.079  20.247  1.00  0.00    -0.281 OA
ATOM     15  H2  UNL     1      25.144  20.890  20.957  1.00  0.00     0.245 HD
ENDBRANCH  13  14
BRANCH   6  16
HETATM   16  O1  UNL     1      21.795  25.790  20.113  1.00  0.00    -0.281 OA
ATOM     17  H1  UNL     1      21.605  26.233  20.932  1.00  0.00     0.245 HD
ENDBRANCH   6  16
BRANCH   9  18
HETATM   18  C7  UNL     1      20.931  24.003  24.601  1.00  0.00    -0.026 A
HETATM   19  C8  UNL     1      21.421  24.956  25.470  1.00  0.00     0.012 A
HETATM   20  C9  UNL     1      20.640  25.419  26.524  1.00  0.00     0.001 A
HETATM   21  C10 UNL     1      19.360  24.955  26.746  1.00  0.00     0.000 A
HETATM   22  C11 UNL     1      18.875  24.004  25.877  1.00  0.00     0.001 A
HETATM   23  C12 UNL     1      19.651  23.541  24.829  1.00  0.00     0.012 A
ENDBRANCH   9  18
TORSDOF 3
ENDMDL