MODEL 2
REMARK VINA RESULT: -6.252264572      1.816      2.488
REMARK  5 active torsions:
REMARK  status: ('A' for Active; 'I' for Inactive)
REMARK    1  A    between atoms: N1_2  and  C2_4
REMARK    2  A    between atoms: C2_4  and  N4_10
REMARK    3  A    between atoms: C3_5  and  N2_6
REMARK    4  A    between atoms: N2_6  and  N3_7
REMARK    5  A    between atoms: N4_10  and  C4_12
ROOT
HETATM    1  C4  UNL     1      21.310  24.404  23.870  1.00  0.00     0.153 A
HETATM    2  N5  UNL     1      21.905  23.232  24.004  1.00  0.00    -0.320 N
ATOM      3  H5  UNL     1      21.910  22.746  24.901  1.00  0.00     0.169 HD
HETATM    4  C5  UNL     1      22.493  22.705  22.943  1.00  0.00     0.142 A
HETATM    5  N6  UNL     1      23.161  21.497  22.885  1.00  0.00    -0.338 N
ATOM      6  H6  UNL     1      23.229  20.922  23.724  1.00  0.00     0.167 HD
HETATM    7  C6  UNL     1      23.717  21.070  21.749  1.00  0.00     0.060 A
HETATM    8  C7  UNL     1      24.383  19.831  21.756  1.00  0.00     0.032 A
HETATM    9  C8  UNL     1      24.945  19.422  20.568  1.00  0.00     0.002 A
HETATM   10  C9  UNL     1      24.887  20.149  19.397  1.00  0.00     0.002 A
HETATM   11  C10 UNL     1      24.233  21.352  19.416  1.00  0.00     0.032 A
HETATM   12  C11 UNL     1      23.669  21.784  20.572  1.00  0.00     0.060 A
HETATM   13  N7  UNL     1      23.022  22.965  20.609  1.00  0.00    -0.346 N
ATOM     14  H7  UNL     1      22.958  23.534  19.765  1.00  0.00     0.167 HD
HETATM   15  C12 UNL     1      22.447  23.411  21.777  1.00  0.00     0.122 A
HETATM   16  S1  UNL     1      21.564  24.802  22.239  1.00  0.00    -0.032 SA
ENDROOT
BRANCH   1  17
HETATM   17  N4  UNL     1      20.671  25.114  24.764  1.00  0.00    -0.321 N
ATOM     18  H4  UNL     1      20.487  26.102  24.590  1.00  0.00     0.169 HD
BRANCH  17  19
HETATM   19  C2  UNL     1      20.236  24.517  25.969  1.00  0.00     0.134 C
HETATM   20  C3  UNL     1      18.990  23.782  26.001  1.00  0.00     0.256 C
BRANCH  19  21
HETATM   21  N1  UNL     1      20.961  24.642  27.016  1.00  0.00    -0.379 N
HETATM   22  C1  UNL     1      20.468  24.647  28.357  1.00  0.00     0.147 C
ATOM     23  H1  UNL     1      21.966  24.747  26.882  1.00  0.00     0.160 HD
ENDBRANCH  19  21
BRANCH  20  24
HETATM   24  N2  UNL     1      17.893  24.346  25.744  1.00  0.00    -0.342 NA
BRANCH  24  25
HETATM   25  N3  UNL     1      16.763  24.828  25.678  1.00  0.00    -0.281 N
ATOM     26  H32 UNL     1      17.124  25.651  26.161  1.00  0.00     0.191 HD
ATOM     27  H31 UNL     1      15.784  25.083  25.545  1.00  0.00     0.191 HD
ENDBRANCH  24  25
ENDBRANCH  20  24
ENDBRANCH  17  19
ENDBRANCH   1  17
TORSDOF 5
ENDMDL