MODEL 2
REMARK VINA RESULT: -7.797083715      2.813      5.132
REMARK  2 active torsions:
REMARK  status: ('A' for Active; 'I' for Inactive)
REMARK    1  A    between atoms: C2_3  and  C3_4
REMARK    2  A    between atoms: C8_11  and  N3_12
ROOT
HETATM    1  N1  UNL     1      24.560  26.729  17.751  1.00  0.00    -0.197 NA
HETATM    2  C1  UNL     1      23.969  25.763  17.497  1.00  0.00     0.063 C
HETATM    3  C2  UNL     1      23.235  24.511  17.160  1.00  0.00     0.164 C
ENDROOT
BRANCH   3   4
HETATM    4  C3  UNL     1      23.686  23.328  17.843  1.00  0.00    -0.016 A
HETATM    5  C4  UNL     1      24.416  22.374  17.123  1.00  0.00     0.096 A
HETATM    6  N2  UNL     1      24.856  21.213  17.608  1.00  0.00    -0.373 N
HETATM    7  C5  UNL     1      24.623  20.866  18.855  1.00  0.00     0.112 A
ATOM      8  H2  UNL     1      25.382  20.582  17.002  1.00  0.00     0.164 HD
HETATM    9  C6  UNL     1      23.908  21.733  19.667  1.00  0.00     0.092 A
HETATM   10  C7  UNL     1      23.447  22.946  19.170  1.00  0.00     0.023 A
HETATM   11  S1  UNL     1      23.615  21.251  21.318  1.00  0.00     0.209 S
HETATM   12  C8  UNL     1      22.723  23.875  19.999  1.00  0.00     0.050 A
HETATM   13  C9  UNL     1      22.394  23.658  21.416  1.00  0.00     0.013 A
HETATM   14  C10 UNL     1      21.695  24.640  22.104  1.00  0.00     0.015 A
HETATM   15  C14 UNL     1      22.743  22.539  22.106  1.00  0.00     0.076 A
HETATM   16  C11 UNL     1      21.343  24.535  23.439  1.00  0.00     0.001 A
HETATM   17  C12 UNL     1      21.709  23.393  24.112  1.00  0.00     0.002 A
HETATM   18  C13 UNL     1      22.398  22.417  23.443  1.00  0.00     0.025 A
HETATM   19  O1  UNL     1      22.711  20.027  21.246  1.00  0.00    -0.217 OA
HETATM   20  O2  UNL     1      24.889  20.915  22.043  1.00  0.00    -0.217 OA
BRANCH  12  21
HETATM   21  N3  UNL     1      22.344  24.978  19.520  1.00  0.00    -0.398 N
ATOM     22  H32 UNL     1      21.464  25.336  19.893  1.00  0.00     0.156 HD
ATOM     23  H31 UNL     1      22.918  25.452  18.823  1.00  0.00     0.156 HD
ENDBRANCH  12  21
ENDBRANCH   3   4
TORSDOF 2
ENDMDL