MODEL 5
REMARK VINA RESULT: -6.245190719      3.691      5.669
REMARK  1 active torsions:
REMARK  status: ('A' for Active; 'I' for Inactive)
REMARK    1  A    between atoms: C2_5  and  C3_6
ROOT
HETATM    1  O1  UNL     1      19.550  21.242  19.388  1.00  0.00    -0.265 OA
HETATM    2  C1  UNL     1      20.783  20.972  19.530  1.00  0.00     0.278 A
HETATM    3  N1  UNL     1      21.665  21.773  18.953  1.00  0.00    -0.306 N
ATOM      4  H1  UNL     1      21.334  22.575  18.417  1.00  0.00     0.170 HD
HETATM    5  C2  UNL     1      22.968  21.557  19.055  1.00  0.00     0.135 A
HETATM    6  N2  UNL     1      23.365  20.478  19.779  1.00  0.00    -0.262 N
ATOM      7  H2  UNL     1      24.363  20.292  19.873  1.00  0.00     0.191 HD
HETATM    8  N3  UNL     1      22.489  19.637  20.381  1.00  0.00    -0.183 N
HETATM    9  N4  UNL     1      22.880  18.589  21.082  1.00  0.00    -0.248 N
ATOM     10  H4  UNL     1      23.835  18.280  21.260  1.00  0.00     0.197 HD
HETATM   11  S1  UNL     1      21.456  17.880  21.613  1.00  0.00    -0.006 SA
HETATM   12  C13 UNL     1      20.364  18.979  20.901  1.00  0.00     0.108 A
HETATM   13  C14 UNL     1      21.211  19.858  20.275  1.00  0.00     0.151 A
ENDROOT
BRANCH   5  14
HETATM   14  C3  UNL     1      23.926  22.387  18.334  1.00  0.00     0.021 A
HETATM   15  C4  UNL     1      25.032  21.727  17.793  1.00  0.00     0.016 A
HETATM   16  C5  UNL     1      26.009  22.409  17.125  1.00  0.00     0.002 A
HETATM   17  C6  UNL     1      25.957  23.756  16.953  1.00  0.00     0.012 A
HETATM   18  C7  UNL     1      24.863  24.407  17.491  1.00  0.00    -0.025 A
HETATM   19  C8  UNL     1      24.791  25.772  17.349  1.00  0.00     0.012 A
HETATM   20  C12 UNL     1      23.843  23.736  18.183  1.00  0.00    -0.012 A
HETATM   21  C9  UNL     1      23.744  26.497  17.872  1.00  0.00     0.001 A
HETATM   22  C10 UNL     1      22.760  25.819  18.546  1.00  0.00     0.001 A
HETATM   23  C11 UNL     1      22.803  24.450  18.705  1.00  0.00     0.013 A
ENDBRANCH   5  14
TORSDOF 1
ENDMDL