MODEL 2
REMARK VINA RESULT: -7.644165213      0.589      1.039
REMARK  2 active torsions:
REMARK  status: ('A' for Active; 'I' for Inactive)
REMARK    1  A    between atoms: C9_16  and  C10_17
REMARK    2  A    between atoms: C11_18  and  C12_19
ROOT
HETATM    1  O1  UNL     1      20.948  25.681  21.300  1.00  0.00    -0.267 OA
HETATM    2  C1  UNL     1      21.650  24.656  21.105  1.00  0.00     0.264 A
HETATM    3  N1  UNL     1      22.148  24.465  19.879  1.00  0.00    -0.332 N
ATOM      4  H1  UNL     1      21.962  25.130  19.129  1.00  0.00     0.168 HD
HETATM    5  C2  UNL     1      22.900  23.373  19.660  1.00  0.00     0.106 A
HETATM    6  C3  UNL     1      23.175  22.450  20.641  1.00  0.00     0.025 A
HETATM    7  C4  UNL     1      23.983  21.302  20.353  1.00  0.00     0.116 A
HETATM    8  N2  UNL     1      24.488  21.106  19.119  1.00  0.00    -0.352 N
ATOM      9  H2  UNL     1      24.282  21.793  18.394  1.00  0.00     0.166 HD
HETATM   10  C5  UNL     1      25.248  20.049  18.801  1.00  0.00     0.091 A
HETATM   11  C6  UNL     1      25.525  19.121  19.784  1.00  0.00     0.034 A
HETATM   12  C7  UNL     1      25.027  19.295  21.046  1.00  0.00     0.091 A
HETATM   13  N3  UNL     1      24.263  20.388  21.304  1.00  0.00    -0.352 N
ATOM     14  H3  UNL     1      23.890  20.521  22.244  1.00  0.00     0.166 HD
HETATM   15  C8  UNL     1      22.655  22.658  21.904  1.00  0.00     0.043 A
HETATM   16  C9  UNL     1      21.885  23.766  22.149  1.00  0.00     0.087 A
ENDROOT
BRANCH  16  17
HETATM   17  C10 UNL     1      21.355  23.963  23.466  1.00  0.00    -0.054 C
HETATM   18  C11 UNL     1      20.890  24.136  24.568  1.00  0.00    -0.043 C
BRANCH  18  19
HETATM   19  C12 UNL     1      20.320  24.364  25.882  1.00  0.00     0.086 A
HETATM   20  C13 UNL     1      18.952  24.283  26.077  1.00  0.00     0.039 A
HETATM   21  C14 UNL     1      18.388  24.492  27.301  1.00  0.00     0.004 A
HETATM   22  C15 UNL     1      19.249  24.793  28.357  1.00  0.00     0.017 A
HETATM   23  C16 UNL     1      20.615  24.875  28.171  1.00  0.00     0.089 A
HETATM   24  N4  UNL     1      21.090  24.658  26.942  1.00  0.00    -0.359 N
ATOM     25  H4  UNL     1      22.098  24.719  26.800  1.00  0.00     0.166 HD
ENDBRANCH  18  19
ENDBRANCH  16  17
TORSDOF 2
ENDMDL