MODEL 4
REMARK VINA RESULT: -8.504958289      1.239      3.801
REMARK  3 active torsions:
REMARK  status: ('A' for Active; 'I' for Inactive)
REMARK    1  A    between atoms: C4_6  and  C5_7
REMARK    2  A    between atoms: N3_17  and  O1_18
REMARK    3  A    between atoms: N4_21  and  O2_22
ROOT
HETATM    1  N1  UNL     1      20.952  23.843  24.423  1.00  0.00    -0.190 NA
HETATM    2  C1  UNL     1      21.522  23.452  23.495  1.00  0.00     0.122 C
HETATM    3  C2  UNL     1      22.209  22.975  22.319  1.00  0.00     0.169 A
HETATM    4  C3  UNL     1      22.166  23.685  21.136  1.00  0.00     0.098 A
HETATM    5  N2  UNL     1      21.446  24.901  21.073  1.00  0.00    -0.098 NA
HETATM    6  C4  UNL     1      22.820  23.249  19.992  1.00  0.00     0.015 A
HETATM    7  C11 UNL     1      23.522  22.066  20.090  1.00  0.00     0.026 A
HETATM    8  C12 UNL     1      24.202  21.570  18.994  1.00  0.00     0.018 A
HETATM    9  C13 UNL     1      24.888  20.385  19.132  1.00  0.00     0.021 A
HETATM   10  C14 UNL     1      24.876  19.741  20.350  1.00  0.00     0.125 A
HETATM   11  N3  UNL     1      24.226  20.209  21.414  1.00  0.00    -0.216 N
HETATM   12  C15 UNL     1      23.547  21.371  21.290  1.00  0.00     0.171 A
HETATM   13  N4  UNL     1      22.901  21.825  22.377  1.00  0.00    -0.193 N
ENDROOT
BRANCH  13  14
HETATM   14  O2  UNL     1      22.944  21.097  23.560  1.00  0.00    -0.280 OA
ATOM     15  H2  UNL     1      22.414  20.314  23.658  1.00  0.00     0.245 HD
ENDBRANCH  13  14
BRANCH   6  16
HETATM   16  C5  UNL     1      22.737  23.999  18.746  1.00  0.00    -0.023 A
HETATM   17  C6  UNL     1      21.982  23.551  17.690  1.00  0.00     0.012 A
HETATM   18  C7  UNL     1      21.931  24.257  16.517  1.00  0.00     0.001 A
HETATM   19  C8  UNL     1      22.627  25.444  16.328  1.00  0.00     0.000 A
HETATM   20  C9  UNL     1      23.386  25.902  17.378  1.00  0.00     0.001 A
HETATM   21  C10 UNL     1      23.438  25.197  18.554  1.00  0.00     0.012 A
ENDBRANCH   6  16
BRANCH  11  22
HETATM   22  O1  UNL     1      24.226  19.534  22.633  1.00  0.00    -0.281 OA
ATOM     23  H1  UNL     1      24.696  18.717  22.755  1.00  0.00     0.245 HD
ENDBRANCH  11  22
TORSDOF 3
ENDMDL