MODEL 1
REMARK VINA RESULT: -7.364100869      0.000      0.000
REMARK  12 active torsions:
REMARK  status: ('A' for Active; 'I' for Inactive)
REMARK    1  A    between atoms: C2_2  and  C4_4
REMARK    2  A    between atoms: C4_4  and  N1_5
REMARK    3  A    between atoms: C4_4  and  C20_33
REMARK       I    between atoms: N1_5  and  C5_7
REMARK    4  A    between atoms: C5_7  and  C6_9
REMARK    5  A    between atoms: C7_11  and  C8_12
REMARK    6  A    between atoms: N2_15  and  C9_16
REMARK    7  A    between atoms: C9_16  and  O5_17
REMARK    8  A    between atoms: C9_16  and  C10_19
REMARK    9  A    between atoms: C10_19  and  N3_20
REMARK   10  A    between atoms: C10_19  and  C16_29
REMARK       I    between atoms: N3_20  and  C11_22
REMARK   11  A    between atoms: C11_22  and  O7_24
REMARK   12  A    between atoms: O7_24  and  C12_25
ROOT
HETATM    1  C6  UNL     1      21.305  38.209  -5.018  1.00  0.00     0.324 C
HETATM    2  O2  UNL     1      21.004  38.725  -3.777  1.00  0.00    -0.322 OA
HETATM    3  C7  UNL     1      21.820  39.857  -4.142  1.00  0.00     0.333 C
HETATM    4  N2  UNL     1      21.661  39.564  -5.514  1.00  0.00    -0.289 N
ENDROOT
BRANCH   4   5
HETATM    5  C9  UNL     1      21.723  40.056  -6.805  1.00  0.00     0.167 C
BRANCH   5   6
HETATM    6  O5  UNL     1      22.989  40.206  -7.231  1.00  0.00    -0.345 OA
ATOM      7  H5  UNL     1      23.072  40.902  -7.873  1.00  0.00     0.219 HD
ENDBRANCH   5   6
BRANCH   5   8
HETATM    8  C10 UNL     1      20.773  40.449  -7.840  1.00  0.00     0.072 C
BRANCH   8   9
HETATM    9  N3  UNL     1      21.083  39.840  -9.106  1.00  0.00    -0.301 N
HETATM   10  C11 UNL     1      20.612  38.650  -9.623  1.00  0.00     0.365 C
HETATM   11  O6  UNL     1      19.806  37.888  -9.072  1.00  0.00    -0.238 OA
ATOM     12  H3  UNL     1      21.736  40.354  -9.698  1.00  0.00     0.171 HD
BRANCH  10  13
HETATM   13  O7  UNL     1      21.036  38.176 -10.900  1.00  0.00    -0.294 OA
BRANCH  13  14
HETATM   14  C12 UNL     1      20.397  38.550 -12.084  1.00  0.00     0.061 C
HETATM   15  C13 UNL     1      19.818  37.364 -12.832  1.00  0.00     0.046 C
HETATM   16  C14 UNL     1      19.295  39.556 -11.874  1.00  0.00     0.046 C
HETATM   17  C15 UNL     1      21.435  39.171 -12.991  1.00  0.00     0.046 C
ENDBRANCH  13  14
ENDBRANCH  10  13
ENDBRANCH   8   9
BRANCH   8  18
HETATM   18  C16 UNL     1      20.068  41.719  -7.821  1.00  0.00    -0.004 C
HETATM   19  C17 UNL     1      19.819  42.247  -9.241  1.00  0.00     0.021 C
HETATM   20  C18 UNL     1      20.580  42.868  -7.041  1.00  0.00     0.021 C
HETATM   21  C19 UNL     1      18.616  41.488  -7.278  1.00  0.00     0.021 C
ENDBRANCH   8  18
ENDBRANCH   5   8
ENDBRANCH   4   5
BRANCH   1  22
HETATM   22  C5  UNL     1      22.137  37.087  -5.235  1.00  0.00     0.267 C
HETATM   23  N1  UNL     1      23.524  37.068  -5.517  1.00  0.00    -0.349 N
ATOM     24  H1  UNL     1      24.003  37.967  -5.580  1.00  0.00     0.163 HD
HETATM   25  O1  UNL     1      21.621  35.912  -5.175  1.00  0.00    -0.269 OA
BRANCH  23  26
HETATM   26  C4  UNL     1      24.315  35.872  -5.722  1.00  0.00     0.126 C
BRANCH  26  27
HETATM   27  C2  UNL     1      24.765  35.761  -7.132  1.00  0.00     0.003 C
HETATM   28  C1  UNL     1      25.124  34.407  -7.625  1.00  0.00     0.011 C
HETATM   29  C3  UNL     1      23.813  36.414  -8.114  1.00  0.00     0.011 C
ENDBRANCH  26  27
BRANCH  26  30
HETATM   30  C20 UNL     1      25.345  35.673  -4.664  1.00  0.00     0.130 C
HETATM   31  C21 UNL     1      24.919  36.071  -3.276  1.00  0.00     0.052 C
HETATM   32 CL1  UNL     1      26.899  36.444  -5.021  1.00  0.00    -0.100 Cl
HETATM   33 CL2  UNL     1      25.701  33.906  -4.558  1.00  0.00    -0.100 Cl
ENDBRANCH  26  30
ENDBRANCH  23  26
ENDBRANCH   1  22
BRANCH   3  34
HETATM   34  C8  UNL     1      23.062  39.739  -3.406  1.00  0.00     0.224 C
HETATM   35  O3  UNL     1      23.135  40.263  -2.228  1.00  0.00    -0.645 OA
HETATM   36  O4  UNL     1      24.245  39.124  -3.770  1.00  0.00    -0.645 OA
ENDBRANCH   3  34
TORSDOF 12
ENDMDL