MODEL 1
REMARK VINA RESULT: -7.043073138      0.000      0.000
REMARK  10 active torsions:
REMARK  status: ('A' for Active; 'I' for Inactive)
REMARK    1  A    between atoms: S1_2  and  O3_4
REMARK    2  A    between atoms: S1_2  and  N1_24
REMARK    3  A    between atoms: O3_4  and  C1_5
REMARK    4  A    between atoms: C1_5  and  C2_6
REMARK    5  A    between atoms: C5_9  and  C6_10
REMARK    6  A    between atoms: C6_10  and  O4_11
REMARK    7  A    between atoms: C11_18  and  O5_19
REMARK    8  A    between atoms: C11_18  and  C12_21
REMARK    9  A    between atoms: C12_21  and  O6_22
REMARK   10  A    between atoms: C15_27  and  C16_28
ROOT
HETATM    1  C2  UNL     1      21.733  38.154  -6.569  1.00  0.00     0.021 C
HETATM    2  C3  UNL     1      21.102  37.464  -5.381  1.00  0.00     0.042 C
HETATM    3  C4  UNL     1      22.111  36.745  -4.592  1.00  0.00    -0.020 C
HETATM    4  C5  UNL     1      23.415  36.848  -4.761  1.00  0.00    -0.053 C
HETATM    5  C7  UNL     1      24.021  37.714  -5.782  1.00  0.00     0.055 C
HETATM    6  C8  UNL     1      24.371  36.953  -7.042  1.00  0.00     0.032 C
HETATM    7  C9  UNL     1      23.105  36.208  -7.435  1.00  0.00     0.084 C
HETATM    8 CL1  UNL     1      23.476  35.425  -9.014  1.00  0.00    -0.125 Cl
HETATM    9  C10 UNL     1      21.966  37.129  -7.661  1.00  0.00     0.035 C
HETATM   10  C11 UNL     1      23.017  38.785  -6.195  1.00  0.00     0.096 C
ENDROOT
BRANCH   1  11
HETATM   11  C1  UNL     1      20.809  39.180  -7.176  1.00  0.00     0.205 C
BRANCH  11  12
HETATM   12  O3  UNL     1      19.712  39.501  -6.425  1.00  0.00    -0.258 OA
BRANCH  12  13
HETATM   13  S1  UNL     1      19.522  41.126  -6.190  1.00  0.00     0.366 S
HETATM   14  O1  UNL     1      20.741  41.832  -6.726  1.00  0.00    -0.175 OA
HETATM   15  O2  UNL     1      18.331  41.590  -7.019  1.00  0.00    -0.175 OA
BRANCH  13  16
HETATM   16  N1  UNL     1      19.257  41.591  -4.589  1.00  0.00    -0.247 N
HETATM   17  C13 UNL     1      19.687  40.741  -3.573  1.00  0.00     0.084 C
HETATM   18  C14 UNL     1      20.440  41.385  -2.444  1.00  0.00     0.055 C
HETATM   19  C15 UNL     1      19.514  42.523  -1.931  1.00  0.00     0.018 C
HETATM   20  C18 UNL     1      19.490  43.506  -3.022  1.00  0.00     0.055 C
HETATM   21  C19 UNL     1      18.967  42.925  -4.330  1.00  0.00     0.084 C
BRANCH  19  22
HETATM   22  C16 UNL     1      19.939  42.985  -0.626  1.00  0.00    -0.014 C
HETATM   23  C17 UNL     1      19.339  43.678   0.279  1.00  0.00     0.052 C
HETATM   24 BR1  UNL     1      17.588  44.371   0.212  1.00  0.00    -0.064 Br
ENDBRANCH  19  22
ENDBRANCH  13  16
ENDBRANCH  12  13
ENDBRANCH  11  12
ENDBRANCH   1  11
BRANCH  10  25
HETATM   25  O5  UNL     1      23.602  39.409  -7.316  1.00  0.00    -0.386 OA
ATOM     26  H5  UNL     1      23.850  40.302  -7.106  1.00  0.00     0.210 HD
ENDBRANCH  10  25
BRANCH  10  27
HETATM   27  C12 UNL     1      22.987  39.790  -5.097  1.00  0.00     0.203 C
BRANCH  27  28
HETATM   28  O6  UNL     1      23.267  41.042  -5.713  1.00  0.00    -0.398 OA
ATOM     29  H6  UNL     1      23.266  41.680  -5.009  1.00  0.00     0.209 HD
ENDBRANCH  27  28
ENDBRANCH  10  27
BRANCH   4  30
HETATM   30  C6  UNL     1      24.350  36.056  -3.886  1.00  0.00     0.198 C
BRANCH  30  31
HETATM   31  O4  UNL     1      24.760  36.786  -2.788  1.00  0.00    -0.397 OA
ATOM     32  H4  UNL     1      25.703  36.758  -2.681  1.00  0.00     0.209 HD
ENDBRANCH  30  31
ENDBRANCH   4  30
TORSDOF 10
ENDMDL