MODEL 4
REMARK VINA RESULT: -8.048200664      1.289      1.533
REMARK  12 active torsions:
REMARK  status: ('A' for Active; 'I' for Inactive)
REMARK       I    between atoms: C2_2  and  N1_4
REMARK    1  A    between atoms: N2_7  and  S1_8
REMARK    2  A    between atoms: S1_8  and  C5_11
REMARK    3  A    between atoms: C5_11  and  C6_12
REMARK    4  A    between atoms: C6_12  and  C7_13
REMARK    5  A    between atoms: C7_13  and  C8_14
REMARK    6  A    between atoms: C9_15  and  C10_16
REMARK    7  A    between atoms: C10_16  and  O4_17
REMARK    8  A    between atoms: N3_19  and  O5_21
REMARK    9  A    between atoms: C13_25  and  C14_26
REMARK   10  A    between atoms: C15_29  and  C17_31
REMARK   11  A    between atoms: C18_32  and  C19_33
REMARK   12  A    between atoms: C19_33  and  C20_34
ROOT
HETATM    1  C8  UNL     1      21.036  38.847  -6.776  1.00  0.00     0.018 C
HETATM    2  C9  UNL     1      19.926  39.670  -6.287  1.00  0.00     0.068 C
HETATM    3  C11 UNL     1      19.732  39.450  -4.798  1.00  0.00     0.014 C
HETATM    4  C12 UNL     1      20.611  38.391  -4.239  1.00  0.00     0.018 C
HETATM    5  C13 UNL     1      22.085  38.618  -4.500  1.00  0.00     0.107 C
HETATM    6  C15 UNL     1      22.304  38.824  -5.981  1.00  0.00     0.037 C
HETATM    7  C16 UNL     1      23.217  39.977  -6.190  1.00  0.00     0.030 C
ENDROOT
BRANCH   1   8
HETATM    8  C7  UNL     1      21.359  38.954  -8.252  1.00  0.00     0.008 C
BRANCH   8   9
HETATM    9  C6  UNL     1      20.585  38.011  -9.084  1.00  0.00     0.017 C
BRANCH   9  10
HETATM   10  C5  UNL     1      20.244  38.461 -10.460  1.00  0.00     0.157 C
BRANCH  10  11
HETATM   11  S1  UNL     1      20.552  37.303 -11.727  1.00  0.00     0.211 S
HETATM   12  O2  UNL     1      19.526  37.450 -12.826  1.00  0.00    -0.211 OA
HETATM   13  O3  UNL     1      20.481  35.891 -11.233  1.00  0.00    -0.211 OA
BRANCH  11  14
HETATM   14  N2  UNL     1      22.142  37.523 -12.414  1.00  0.00    -0.208 NA
HETATM   15  C4  UNL     1      22.068  38.532 -13.425  1.00  0.00     0.127 C
HETATM   16  C3  UNL     1      23.230  38.570 -14.358  1.00  0.00     0.141 C
HETATM   17  N1  UNL     1      23.876  37.314 -14.566  1.00  0.00    -0.350 N
HETATM   18  C2  UNL     1      24.466  36.965 -15.819  1.00  0.00     0.215 C
HETATM   19  C22 UNL     1      23.937  36.361 -13.473  1.00  0.00     0.141 C
HETATM   20  C1  UNL     1      24.403  37.941 -16.938  1.00  0.00     0.117 C
HETATM   21  O1  UNL     1      25.031  35.855 -15.981  1.00  0.00    -0.274 OA
HETATM   22  C21 UNL     1      22.545  36.225 -12.918  1.00  0.00     0.127 C
ENDBRANCH  11  14
ENDBRANCH  10  11
ENDBRANCH   9  10
ENDBRANCH   8   9
ENDBRANCH   1   8
BRANCH   2  23
HETATM   23  C10 UNL     1      19.874  41.087  -6.577  1.00  0.00     0.140 C
HETATM   24  N3  UNL     1      19.286  41.686  -7.531  1.00  0.00    -0.251 N
ATOM     25  H3  UNL     1      18.769  41.120  -8.204  1.00  0.00     0.196 HD
BRANCH  23  26
HETATM   26  O4  UNL     1      20.570  41.928  -5.683  1.00  0.00    -0.348 OA
ATOM     27  H4  UNL     1      20.038  42.392  -5.047  1.00  0.00     0.219 HD
ENDBRANCH  23  26
BRANCH  24  28
HETATM   28  O5  UNL     1      19.303  43.044  -7.711  1.00  0.00    -0.288 OA
ATOM     29  H5  UNL     1      20.075  43.538  -7.960  1.00  0.00     0.244 HD
ENDBRANCH  24  28
ENDBRANCH   2  23
BRANCH   6  30
HETATM   30  C17 UNL     1      23.051  37.628  -6.501  1.00  0.00    -0.095 C
HETATM   31  C18 UNL     1      23.629  36.652  -6.912  1.00  0.00    -0.100 C
BRANCH  31  32
HETATM   32  C19 UNL     1      24.309  35.463  -7.419  1.00  0.00     0.165 C
BRANCH  32  33
HETATM   33  C20 UNL     1      25.041  34.726  -6.315  1.00  0.00     0.364 C
HETATM   34  F1  UNL     1      25.449  33.475  -6.766  1.00  0.00    -0.213 F
HETATM   35  F2  UNL     1      26.187  35.409  -5.977  1.00  0.00    -0.213 F
ENDBRANCH  32  33
ENDBRANCH  31  32
ENDBRANCH   6  30
BRANCH   5  36
HETATM   36  C14 UNL     1      22.652  39.637  -3.627  1.00  0.00     0.178 C
HETATM   37  O6  UNL     1      23.768  39.414  -3.068  1.00  0.00    -0.648 OA
HETATM   38  O7  UNL     1      22.070  40.858  -3.342  1.00  0.00    -0.648 OA
ENDBRANCH   5  36
TORSDOF 12
ENDMDL