MODEL 2
REMARK VINA RESULT: -7.849563489      1.755      2.297
REMARK  10 active torsions:
REMARK  status: ('A' for Active; 'I' for Inactive)
REMARK    1  A    between atoms: O1_2  and  C2_3
REMARK    2  A    between atoms: C2_3  and  C3_5
REMARK    3  A    between atoms: C5_8  and  O4_9
REMARK    4  A    between atoms: C8_15  and  C9_16
REMARK    5  A    between atoms: C10_17  and  C11_18
REMARK    6  A    between atoms: C11_18  and  O5_19
REMARK    7  A    between atoms: C11_18  and  C13_23
REMARK    8  A    between atoms: O5_19  and  C12_20
REMARK    9  A    between atoms: C15_25  and  C16_26
REMARK   10  A    between atoms: C18_28  and  C19_29
ROOT
HETATM    1  C9  UNL     1      22.620  36.616  -6.998  1.00  0.00    -0.021 C
HETATM    2  C10 UNL     1      23.257  36.431  -8.140  1.00  0.00     0.006 C
ENDROOT
BRANCH   1   3
HETATM    3  C8  UNL     1      22.575  37.871  -6.196  1.00  0.00     0.045 C
HETATM    4  C3  UNL     1      22.842  37.610  -4.749  1.00  0.00     0.166 C
HETATM    5  C4  UNL     1      22.932  38.898  -4.014  1.00  0.00     0.171 C
HETATM    6  O3  UNL     1      23.565  39.004  -2.994  1.00  0.00    -0.294 OA
HETATM    7  C5  UNL     1      22.218  40.070  -4.563  1.00  0.00     0.208 C
HETATM    8  C6  UNL     1      21.007  39.634  -5.357  1.00  0.00     0.133 C
HETATM    9 CL1  UNL     1      19.798  39.064  -4.153  1.00  0.00    -0.121 Cl
HETATM   10  C7  UNL     1      21.298  38.608  -6.382  1.00  0.00     0.088 C
HETATM   11 BR1  UNL     1      21.190  39.501  -8.110  1.00  0.00    -0.089 Br
BRANCH   4  12
HETATM   12  C2  UNL     1      24.035  36.774  -4.466  1.00  0.00     0.270 C
HETATM   13  O2  UNL     1      23.942  35.772  -3.731  1.00  0.00    -0.264 OA
BRANCH  12  14
HETATM   14  O1  UNL     1      25.285  37.054  -4.992  1.00  0.00    -0.326 OA
HETATM   15  C1  UNL     1      26.474  36.796  -4.281  1.00  0.00     0.213 C
ENDBRANCH  12  14
ENDBRANCH   4  12
BRANCH   7  16
HETATM   16  O4  UNL     1      23.051  40.919  -5.277  1.00  0.00    -0.386 OA
ATOM     17  H4  UNL     1      23.623  40.454  -5.877  1.00  0.00     0.210 HD
ENDBRANCH   7  16
ENDBRANCH   1   3
BRANCH   2  18
HETATM   18  C11 UNL     1      23.246  35.141  -8.877  1.00  0.00     0.184 C
BRANCH  18  19
HETATM   19  O5  UNL     1      24.589  34.810  -9.148  1.00  0.00    -0.292 OA
BRANCH  19  20
HETATM   20  C12 UNL     1      25.265  33.783  -8.519  1.00  0.00     0.373 C
HETATM   21  N1  UNL     1      25.587  33.833  -7.127  1.00  0.00    -0.032 NA
HETATM   22  O6  UNL     1      25.618  32.774  -9.145  1.00  0.00    -0.242 OA
ENDBRANCH  19  20
ENDBRANCH  18  19
BRANCH  18  23
HETATM   23  C13 UNL     1      22.546  35.219 -10.216  1.00  0.00    -0.050 C
HETATM   24  C14 UNL     1      22.167  33.900 -10.751  1.00  0.00     0.046 C
HETATM   25  C15 UNL     1      22.319  36.336 -10.769  1.00  0.00     0.012 C
BRANCH  25  26
HETATM   26  C16 UNL     1      21.678  36.696 -12.028  1.00  0.00    -0.055 C
HETATM   27  C17 UNL     1      22.430  36.988 -13.269  1.00  0.00     0.048 C
HETATM   28  C18 UNL     1      20.347  36.794 -12.069  1.00  0.00     0.091 C
BRANCH  28  29
HETATM   29  C19 UNL     1      19.454  37.113 -13.112  1.00  0.00     0.199 C
HETATM   30  O7  UNL     1      18.979  36.415 -14.038  1.00  0.00    -0.644 OA
HETATM   31  O8  UNL     1      18.970  38.452 -13.175  1.00  0.00    -0.644 OA
ENDBRANCH  28  29
ENDBRANCH  25  26
ENDBRANCH  18  23
ENDBRANCH   2  18
TORSDOF 10
ENDMDL