MODEL 2
REMARK VINA RESULT: -7.960804201      1.082      1.482
REMARK  8 active torsions:
REMARK  status: ('A' for Active; 'I' for Inactive)
REMARK    1  A    between atoms: C6_6  and  C7_7
REMARK       I    between atoms: C7_7  and  N1_9
REMARK    2  A    between atoms: N1_9  and  C8_11
REMARK    3  A    between atoms: C8_11  and  C9_12
REMARK    4  A    between atoms: C9_12  and  N2_13
REMARK       I    between atoms: N3_16  and  C12_17
REMARK    5  A    between atoms: C12_17  and  C13_19
REMARK    6  A    between atoms: C16_22  and  N4_23
REMARK    7  A    between atoms: C17_27  and  N5_28
REMARK       I    between atoms: N5_28  and  C18_30
REMARK    8  A    between atoms: C18_30  and  C19_32
ROOT
HETATM    1  C13 UNL     1      22.888  35.875  -7.114  1.00  0.00     0.080 C
HETATM    2  C14 UNL     1      24.328  35.844  -6.756  1.00  0.00     0.016 C
HETATM    3  C15 UNL     1      25.128  35.389  -7.952  1.00  0.00     0.036 C
HETATM    4  C16 UNL     1      24.345  34.605  -8.962  1.00  0.00     0.206 C
HETATM    5  C17 UNL     1      23.149  35.371  -9.481  1.00  0.00     0.116 C
HETATM    6  C23 UNL     1      22.781  36.502  -8.513  1.00  0.00     0.041 C
ENDROOT
BRANCH   1   7
HETATM    7  C12 UNL     1      21.987  36.533  -6.166  1.00  0.00     0.225 C
HETATM    8  N3  UNL     1      22.242  37.811  -5.608  1.00  0.00    -0.334 N
HETATM    9  C2  UNL     1      23.406  38.583  -5.925  1.00  0.00     0.084 C
HETATM   10  C6  UNL     1      21.290  38.354  -4.646  1.00  0.00     0.179 C
HETATM   11  C1  UNL     1      23.130  39.845  -6.717  1.00  0.00     0.032 C
HETATM   12  C3  UNL     1      24.103  39.054  -4.645  1.00  0.00     0.025 C
HETATM   13  C4  UNL     1      23.166  39.848  -3.794  1.00  0.00     0.004 C
HETATM   14  C5  UNL     1      21.892  39.130  -3.544  1.00  0.00     0.035 C
HETATM   15  O2  UNL     1      20.906  35.930  -5.811  1.00  0.00    -0.273 OA
BRANCH  10  16
HETATM   16  C7  UNL     1      20.133  39.013  -5.330  1.00  0.00     0.240 C
HETATM   17  O1  UNL     1      19.156  39.274  -4.621  1.00  0.00    -0.271 OA
HETATM   18  N1  UNL     1      20.192  39.303  -6.690  1.00  0.00    -0.358 N
ATOM     19  H1  UNL     1      21.066  39.029  -7.141  1.00  0.00     0.162 HD
BRANCH  18  20
HETATM   20  C8  UNL     1      19.248  39.914  -7.561  1.00  0.00     0.152 C
BRANCH  20  21
HETATM   21  C9  UNL     1      19.038  41.366  -7.498  1.00  0.00     0.290 C
BRANCH  21  22
HETATM   22  N2  UNL     1      20.060  42.224  -7.045  1.00  0.00     0.081 N
HETATM   23  C10 UNL     1      19.788  42.814  -5.739  1.00  0.00     0.309 C
HETATM   24  C11 UNL     1      20.323  43.311  -7.965  1.00  0.00     0.309 C
ENDBRANCH  21  22
ENDBRANCH  20  21
ENDBRANCH  18  20
ENDBRANCH  10  16
ENDBRANCH   1   7
BRANCH   5  25
HETATM   25  N5  UNL     1      23.325  35.844 -10.835  1.00  0.00    -0.350 N
HETATM   26  C18 UNL     1      22.227  36.079 -11.706  1.00  0.00     0.252 C
HETATM   27  O3  UNL     1      21.082  35.871 -11.288  1.00  0.00    -0.268 OA
ATOM     28  H5  UNL     1      24.271  36.015 -11.178  1.00  0.00     0.163 HD
BRANCH  26  29
HETATM   29  C19 UNL     1      22.405  36.564 -13.101  1.00  0.00     0.040 A
HETATM   30  C20 UNL     1      21.349  37.102 -13.797  1.00  0.00     0.068 A
HETATM   31  S1  UNL     1      22.023  37.503 -15.310  1.00  0.00    -0.089 SA
HETATM   32  C21 UNL     1      23.620  36.988 -15.041  1.00  0.00     0.075 A
HETATM   33 CL1  UNL     1      25.021  37.042 -16.136  1.00  0.00    -0.076 Cl
HETATM   34  C22 UNL     1      23.586  36.513 -13.769  1.00  0.00     0.048 A
ENDBRANCH  26  29
ENDBRANCH   5  25
BRANCH   4  35
HETATM   35  N4  UNL     1      25.227  34.408 -10.112  1.00  0.00    -0.073 N
ATOM     36  H43 UNL     1      26.031  35.035 -10.116  1.00  0.00     0.274 HD
ATOM     37  H42 UNL     1      25.749  33.532 -10.075  1.00  0.00     0.274 HD
ATOM     38  H41 UNL     1      24.644  34.495 -10.945  1.00  0.00     0.274 HD
ENDBRANCH   4  35
TORSDOF 8
ENDMDL