MODEL 2
REMARK VINA RESULT: -7.720587622      1.495      1.761
REMARK  8 active torsions:
REMARK  status: ('A' for Active; 'I' for Inactive)
REMARK    1  A    between atoms: C1_2  and  C2_4
REMARK       I    between atoms: N2_8  and  C6_9
REMARK       I    between atoms: C6_9  and  N3_11
REMARK    2  A    between atoms: N3_11  and  C7_12
REMARK    3  A    between atoms: N3_11  and  C15_28
REMARK    4  A    between atoms: C7_12  and  C8_13
REMARK    5  A    between atoms: C10_15  and  C11_16
REMARK    6  A    between atoms: C11_16  and  O3_17
REMARK    7  A    between atoms: C12_19  and  S1_20
REMARK    8  A    between atoms: C15_28  and  C16_29
ROOT
HETATM    1  C2  UNL     1      23.702  36.358  -4.509  1.00  0.00     0.178 C
HETATM    2  C3  UNL     1      24.652  35.547  -5.353  1.00  0.00     0.036 C
HETATM    3  C4  UNL     1      25.078  36.551  -6.414  1.00  0.00     0.022 C
HETATM    4  C5  UNL     1      23.817  37.311  -6.643  1.00  0.00     0.129 C
HETATM    5  N2  UNL     1      23.014  37.253  -5.465  1.00  0.00    -0.321 N
HETATM    6  C6  UNL     1      21.784  37.876  -5.208  1.00  0.00     0.321 C
HETATM    7  O2  UNL     1      21.272  37.577  -4.056  1.00  0.00    -0.247 OA
HETATM    8  N3  UNL     1      20.996  38.765  -5.968  1.00  0.00    -0.327 N
ENDROOT
BRANCH   8   9
HETATM    9  C7  UNL     1      19.698  39.184  -5.412  1.00  0.00     0.168 C
BRANCH   9  10
HETATM   10  C8  UNL     1      19.636  40.419  -4.699  1.00  0.00    -0.016 A
HETATM   11  C9  UNL     1      19.956  40.594  -3.385  1.00  0.00     0.021 A
HETATM   12  C10 UNL     1      19.814  41.779  -2.684  1.00  0.00    -0.008 A
HETATM   13  C12 UNL     1      19.314  42.880  -3.341  1.00  0.00     0.112 A
HETATM   14  C13 UNL     1      18.981  42.725  -4.684  1.00  0.00     0.081 A
HETATM   15 CL1  UNL     1      18.339  44.109  -5.565  1.00  0.00    -0.081 Cl
HETATM   16  C14 UNL     1      19.131  41.537  -5.358  1.00  0.00     0.065 A
HETATM   17 CL2  UNL     1      18.675  41.452  -7.066  1.00  0.00    -0.082 Cl
BRANCH  12  18
HETATM   18  C11 UNL     1      20.188  41.879  -1.240  1.00  0.00     0.204 C
BRANCH  18  19
HETATM   19  O3  UNL     1      19.122  41.400  -0.447  1.00  0.00    -0.396 OA
ATOM     20  H3  UNL     1      18.798  40.585  -0.814  1.00  0.00     0.209 HD
ENDBRANCH  18  19
ENDBRANCH  12  18
BRANCH  13  21
HETATM   21  S1  UNL     1      19.089  44.433  -2.578  1.00  0.00     0.140 S
HETATM   22  O4  UNL     1      19.620  44.322  -1.169  1.00  0.00    -0.591 OA
HETATM   23  O5  UNL     1      19.828  45.537  -3.233  1.00  0.00    -0.591 OA
HETATM   24  O6  UNL     1      17.429  44.756  -2.433  1.00  0.00    -0.591 OA
ENDBRANCH  13  21
ENDBRANCH   9  10
ENDBRANCH   8   9
BRANCH   8  25
HETATM   25  C15 UNL     1      21.294  39.233  -7.285  1.00  0.00     0.159 C
BRANCH  25  26
HETATM   26  C16 UNL     1      20.542  38.743  -8.457  1.00  0.00     0.139 C
HETATM   27  C17 UNL     1      20.641  39.705  -9.639  1.00  0.00     0.035 C
HETATM   28  C18 UNL     1      20.216  38.779 -10.769  1.00  0.00     0.029 C
HETATM   29  C19 UNL     1      20.815  37.468 -10.285  1.00  0.00     0.168 C
HETATM   30  O7  UNL     1      20.833  37.507  -8.921  1.00  0.00    -0.384 OA
ENDBRANCH  25  26
ENDBRANCH   8  25
BRANCH   1  31
HETATM   31  C1  UNL     1      24.466  37.119  -3.522  1.00  0.00     0.254 C
HETATM   32  N1  UNL     1      25.397  36.465  -2.695  1.00  0.00    -0.060 NA
HETATM   33  O1  UNL     1      24.300  38.350  -3.404  1.00  0.00    -0.275 OA
ENDBRANCH   1  31
TORSDOF 8
ENDMDL