MODEL 5
REMARK VINA RESULT: -7.212489515      1.479      2.614
REMARK  9 active torsions:
REMARK  status: ('A' for Active; 'I' for Inactive)
REMARK    1  A    between atoms: C1_2  and  C2_4
REMARK    2  A    between atoms: C2_4  and  C3_5
REMARK    3  A    between atoms: C3_5  and  C4_6
REMARK    4  A    between atoms: C4_6  and  O3_7
REMARK    5  A    between atoms: O3_7  and  C5_8
REMARK    6  A    between atoms: N1_18  and  C12_19
REMARK    7  A    between atoms: C12_19  and  C13_20
REMARK    8  A    between atoms: C15_22  and  O5_23
REMARK    9  A    between atoms: C17_27  and  O7_28
ROOT
HETATM    1  C5  UNL     1      23.230  35.800  -7.642  1.00  0.00     0.104 A
HETATM    2  C6  UNL     1      22.257  36.599  -7.123  1.00  0.00     0.046 A
HETATM    3 BR1  UNL     1      22.260  36.910  -5.232  1.00  0.00    -0.048 Br
HETATM    4  C7  UNL     1      21.269  37.189  -7.881  1.00  0.00     0.034 A
HETATM    5  C8  UNL     1      21.274  36.946  -9.254  1.00  0.00     0.009 A
HETATM    6  C9  UNL     1      22.228  36.150  -9.833  1.00  0.00     0.063 A
HETATM    7  C10 UNL     1      23.196  35.585  -9.022  1.00  0.00     0.062 A
HETATM    8 BR2  UNL     1      24.512  34.484  -9.841  1.00  0.00    -0.047 Br
HETATM    9  C11 UNL     1      21.955  36.100 -11.266  1.00  0.00     0.258 A
HETATM   10  O4  UNL     1      22.653  35.449 -12.088  1.00  0.00    -0.267 OA
HETATM   11  N1  UNL     1      20.811  36.889 -11.524  1.00  0.00    -0.315 N
HETATM   12  C17 UNL     1      20.353  37.439 -10.297  1.00  0.00     0.258 A
ENDROOT
BRANCH  11  13
HETATM   13  C12 UNL     1      20.185  37.117 -12.837  1.00  0.00     0.161 C
BRANCH  13  14
HETATM   14  C13 UNL     1      20.777  38.372 -13.437  1.00  0.00     0.142 C
HETATM   15  C14 UNL     1      20.946  38.255 -14.932  1.00  0.00     0.067 C
HETATM   16  C15 UNL     1      22.241  39.066 -15.097  1.00  0.00     0.144 C
HETATM   17  C16 UNL     1      22.979  38.598 -13.855  1.00  0.00     0.200 C
HETATM   18  O6  UNL     1      22.004  38.629 -12.893  1.00  0.00    -0.382 OA
BRANCH  16  19
HETATM   19  O5  UNL     1      22.897  38.778 -16.262  1.00  0.00    -0.393 OA
ATOM     20  H5  UNL     1      23.836  38.702 -16.144  1.00  0.00     0.210 HD
ENDBRANCH  16  19
ENDBRANCH  13  14
ENDBRANCH  11  13
BRANCH  12  21
HETATM   21  O7  UNL     1      20.496  38.830 -10.347  1.00  0.00    -0.372 OA
ATOM     22  H7  UNL     1      20.190  39.111 -11.202  1.00  0.00     0.212 HD
ENDBRANCH  12  21
BRANCH   1  23
HETATM   23  O3  UNL     1      24.243  35.187  -6.928  1.00  0.00    -0.348 OA
BRANCH  23  24
HETATM   24  C4  UNL     1      25.485  35.880  -6.726  1.00  0.00     0.176 C
BRANCH  24  25
HETATM   25  C3  UNL     1      26.174  35.377  -5.501  1.00  0.00     0.037 C
BRANCH  25  26
HETATM   26  C2  UNL     1      26.229  36.397  -4.427  1.00  0.00     0.115 C
BRANCH  26  27
HETATM   27  C1  UNL     1      25.416  36.118  -3.234  1.00  0.00     0.172 C
HETATM   28  O1  UNL     1      24.791  37.081  -2.721  1.00  0.00    -0.648 OA
HETATM   29  O2  UNL     1      25.355  34.842  -2.719  1.00  0.00    -0.648 OA
ENDBRANCH  26  27
ENDBRANCH  25  26
ENDBRANCH  24  25
ENDBRANCH  23  24
ENDBRANCH   1  23
TORSDOF 9
ENDMDL