MODEL 5
REMARK VINA RESULT: -7.992647971      2.341      2.738
REMARK  8 active torsions:
REMARK  status: ('A' for Active; 'I' for Inactive)
REMARK    1  A    between atoms: N1_1  and  N2_4
REMARK       I    between atoms: C1_6  and  N4_8
REMARK       I    between atoms: N4_8  and  C2_10
REMARK    2  A    between atoms: C2_10  and  C3_12
REMARK    3  A    between atoms: C3_12  and  C4_13
REMARK    4  A    between atoms: C4_13  and  S1_14
REMARK    5  A    between atoms: S1_14  and  C5_15
REMARK    6  A    between atoms: C5_15  and  C6_16
REMARK    7  A    between atoms: N5_22  and  S2_24
REMARK    8  A    between atoms: S2_24  and  C10_27
ROOT
HETATM    1  C3  UNL     1      21.804  39.991  -6.308  1.00  0.00     0.097 C
HETATM    2  N5  UNL     1      22.597  39.038  -6.133  1.00  0.00    -0.278 N
ATOM      3  H5  UNL     1      23.130  38.776  -6.963  1.00  0.00     0.179 HD
ENDROOT
BRANCH   1   4
HETATM    4  C2  UNL     1      20.936  40.549  -5.292  1.00  0.00     0.271 C
HETATM    5  N4  UNL     1      21.354  40.641  -3.937  1.00  0.00    -0.295 N
HETATM    6  C1  UNL     1      20.517  41.185  -2.939  1.00  0.00     0.209 C
ATOM      7  H4  UNL     1      22.282  40.305  -3.679  1.00  0.00     0.171 HD
HETATM    8  N2  UNL     1      20.873  41.277  -1.700  1.00  0.00    -0.280 N
HETATM    9  N3  UNL     1      19.225  41.661  -3.279  1.00  0.00    -0.062 NA
ATOM     10  H2  UNL     1      21.797  40.940  -1.429  1.00  0.00     0.189 HD
HETATM   11  O1  UNL     1      19.773  40.972  -5.594  1.00  0.00    -0.266 OA
BRANCH   8  12
HETATM   12  N1  UNL     1      20.049  41.816  -0.725  1.00  0.00    -0.343 N
ATOM     13  H12 UNL     1      20.490  42.337   0.033  1.00  0.00     0.176 HD
ATOM     14  H11 UNL     1      19.035  41.710  -0.743  1.00  0.00     0.176 HD
ENDBRANCH   8  12
ENDBRANCH   1   4
BRANCH   1  15
HETATM   15  C4  UNL     1      21.753  40.602  -7.687  1.00  0.00     0.137 C
BRANCH  15  16
HETATM   16  S1  UNL     1      20.614  39.703  -8.764  1.00  0.00    -0.156 SA
BRANCH  16  17
HETATM   17  C5  UNL     1      20.941  37.924  -8.745  1.00  0.00     0.139 C
BRANCH  17  18
HETATM   18  C6  UNL     1      20.845  37.296 -10.066  1.00  0.00     0.063 A
HETATM   19  C7  UNL     1      21.582  36.165 -10.432  1.00  0.00     0.037 A
HETATM   20  C8  UNL     1      21.254  35.844 -11.728  1.00  0.00     0.048 A
HETATM   21  C9  UNL     1      20.328  36.790 -12.109  1.00  0.00     0.121 A
HETATM   22 BR1  UNL     1      19.451  36.937 -13.795  1.00  0.00    -0.023 Br
HETATM   23  O2  UNL     1      20.126  37.608 -11.113  1.00  0.00    -0.307 OA
ENDBRANCH  17  18
ENDBRANCH  16  17
ENDBRANCH  15  16
ENDBRANCH   1  15
BRANCH   2  24
HETATM   24  S2  UNL     1      22.938  38.110  -4.762  1.00  0.00     0.263 S
HETATM   25  O3  UNL     1      21.708  37.509  -4.105  1.00  0.00    -0.200 OA
HETATM   26  O4  UNL     1      23.698  38.843  -3.693  1.00  0.00    -0.200 OA
BRANCH  24  27
HETATM   27  C10 UNL     1      23.881  36.695  -5.272  1.00  0.00     0.080 A
HETATM   28  C11 UNL     1      23.673  36.098  -6.482  1.00  0.00     0.027 A
HETATM   29  C12 UNL     1      24.367  34.999  -6.948  1.00  0.00     0.025 A
HETATM   30  C13 UNL     1      25.340  34.483  -6.104  1.00  0.00     0.034 A
HETATM   31 CL1  UNL     1      26.249  33.086  -6.651  1.00  0.00    -0.084 Cl
HETATM   32  C14 UNL     1      25.584  35.059  -4.867  1.00  0.00     0.025 A
HETATM   33  C15 UNL     1      24.856  36.161  -4.454  1.00  0.00     0.027 A
ENDBRANCH  24  27
ENDBRANCH   2  24
TORSDOF 8
ENDMDL