MODEL 2
REMARK VINA RESULT: -7.475945676      2.763      6.185
REMARK  8 active torsions:
REMARK  status: ('A' for Active; 'I' for Inactive)
REMARK    1  A    between atoms: C1_2  and  C2_4
REMARK    2  A    between atoms: C8_13  and  C9_14
REMARK    3  A    between atoms: C9_14  and  O3_15
REMARK    4  A    between atoms: C9_14  and  N2_17
REMARK    5  A    between atoms: N2_17  and  C10_19
REMARK    6  A    between atoms: C10_19  and  C11_20
REMARK    7  A    between atoms: N3_25  and  S1_26
REMARK    8  A    between atoms: S1_26  and  C15_29
ROOT
HETATM    1  C2  UNL     1      24.706  35.107  -8.522  1.00  0.00     0.292 C
HETATM    2  N1  UNL     1      25.661  36.075  -8.072  1.00  0.00    -0.056 N
ATOM      3  H11 UNL     1      25.433  37.066  -8.147  1.00  0.00     0.278 HD
ATOM      4  H12 UNL     1      26.518  36.209  -8.609  1.00  0.00     0.278 HD
HETATM    5  C3  UNL     1      25.742  35.487  -6.790  1.00  0.00     0.196 C
HETATM    6  C4  UNL     1      25.525  36.486  -5.654  1.00  0.00     0.060 C
HETATM    7  C5  UNL     1      24.101  36.472  -5.281  1.00  0.00     0.106 C
HETATM    8  C6  UNL     1      23.397  35.525  -6.320  1.00  0.00     0.049 C
HETATM    9  C7  UNL     1      24.438  34.812  -7.043  1.00  0.00     0.066 C
HETATM   10  C8  UNL     1      22.756  36.717  -6.889  1.00  0.00     0.177 C
HETATM   11  N3  UNL     1      23.239  37.421  -5.677  1.00  0.00    -0.288 N
ENDROOT
BRANCH  10  12
HETATM   12  C9  UNL     1      21.294  36.787  -6.950  1.00  0.00     0.140 C
BRANCH  12  13
HETATM   13  O3  UNL     1      20.631  36.355  -5.904  1.00  0.00    -0.348 OA
ATOM     14  H3  UNL     1      21.126  36.211  -5.107  1.00  0.00     0.219 HD
ENDBRANCH  12  13
BRANCH  12  15
HETATM   15  N2  UNL     1      20.576  37.287  -7.999  1.00  0.00    -0.346 N
ATOM     16  H2  UNL     1      19.656  37.375  -7.567  1.00  0.00     0.167 HD
BRANCH  15  17
HETATM   17  C10 UNL     1      20.305  37.744  -9.253  1.00  0.00     0.127 C
BRANCH  17  18
HETATM   18  C11 UNL     1      20.630  37.032 -10.485  1.00  0.00     0.090 A
HETATM   19  C12 UNL     1      21.611  36.032 -10.576  1.00  0.00     0.040 A
HETATM   20  C13 UNL     1      21.622  35.632 -11.894  1.00  0.00     0.027 A
HETATM   21  C14 UNL     1      20.654  36.413 -12.500  1.00  0.00     0.142 A
HETATM   22  O4  UNL     1      20.091  37.211 -11.674  1.00  0.00    -0.321 OA
ENDBRANCH  17  18
ENDBRANCH  15  17
ENDBRANCH  12  15
ENDBRANCH  10  12
BRANCH  11  23
HETATM   23  S1  UNL     1      22.343  38.539  -4.922  1.00  0.00     0.265 S
HETATM   24  O5  UNL     1      23.219  39.512  -4.051  1.00  0.00    -0.200 OA
HETATM   25  O6  UNL     1      21.327  38.045  -3.906  1.00  0.00    -0.200 OA
BRANCH  23  26
HETATM   26  C15 UNL     1      21.445  39.651  -5.973  1.00  0.00     0.123 A
HETATM   27  C16 UNL     1      20.109  39.888  -5.790  1.00  0.00     0.059 A
HETATM   28 CL1  UNL     1      19.225  39.176  -4.467  1.00  0.00    -0.083 Cl
HETATM   29  C17 UNL     1      19.414  40.687  -6.671  1.00  0.00     0.025 A
HETATM   30  C18 UNL     1      20.052  41.285  -7.773  1.00  0.00     0.003 A
HETATM   31  C19 UNL     1      21.391  41.036  -7.952  1.00  0.00     0.025 A
HETATM   32  C20 UNL     1      22.047  40.225  -7.042  1.00  0.00     0.059 A
HETATM   33 CL2  UNL     1      23.778  39.934  -7.331  1.00  0.00    -0.083 Cl
ENDBRANCH  23  26
ENDBRANCH  11  23
BRANCH   1  34
HETATM   34  C1  UNL     1      25.428  33.901  -9.051  1.00  0.00     0.205 C
HETATM   35  O1  UNL     1      25.892  33.867 -10.207  1.00  0.00    -0.646 OA
HETATM   36  O2  UNL     1      25.582  32.760  -8.234  1.00  0.00    -0.646 OA
ENDBRANCH   1  34
TORSDOF 8
ENDMDL