MODEL 1
REMARK VINA RESULT: -8.373624297      0.000      0.000
REMARK  8 active torsions:
REMARK  status: ('A' for Active; 'I' for Inactive)
REMARK       I    between atoms: C2_2  and  N1_4
REMARK    1  A    between atoms: N1_4  and  C3_6
REMARK    2  A    between atoms: C4_11  and  C5_12
REMARK    3  A    between atoms: C5_12  and  C6_13
REMARK    4  A    between atoms: C6_13  and  C7_14
REMARK    5  A    between atoms: C7_14  and  C8_15
REMARK    6  A    between atoms: C8_15  and  C9_16
REMARK       I    between atoms: N6_22  and  C11_24
REMARK    7  A    between atoms: C11_24  and  C12_26
REMARK    8  A    between atoms: C12_26  and  N7_29
REMARK       I    between atoms: N7_29  and  C14_31
ROOT
HETATM    1  C9  UNL     1      23.719  36.336  -6.588  1.00  0.00     0.069 A
HETATM    2  N4  UNL     1      22.553  35.736  -6.403  1.00  0.00    -0.296 N
ATOM      3  H4  UNL     1      22.515  34.724  -6.277  1.00  0.00     0.187 HD
HETATM    4  N5  UNL     1      21.483  36.413  -6.383  1.00  0.00    -0.279 N
ATOM      5  H5  UNL     1      20.583  35.955  -6.242  1.00  0.00     0.189 HD
HETATM    6  C10 UNL     1      21.553  37.737  -6.551  1.00  0.00     0.167 A
HETATM    7  N6  UNL     1      20.558  38.596  -6.560  1.00  0.00    -0.303 N
ATOM      8  H6  UNL     1      19.588  38.312  -6.432  1.00  0.00     0.171 HD
HETATM    9  C11 UNL     1      20.942  39.969  -6.763  1.00  0.00     0.263 C
HETATM   10  O2  UNL     1      21.540  40.343  -7.792  1.00  0.00    -0.269 OA
HETATM   11  S1  UNL     1      23.239  37.970  -6.741  1.00  0.00    -0.038 SA
ENDROOT
BRANCH   1  12
HETATM   12  C8  UNL     1      25.095  35.715  -6.644  1.00  0.00     0.066 C
BRANCH  12  13
HETATM   13  C7  UNL     1      25.039  34.715  -7.781  1.00  0.00     0.007 C
BRANCH  13  14
HETATM   14  C6  UNL     1      24.700  35.351  -9.089  1.00  0.00     0.007 C
BRANCH  14  15
HETATM   15  C5  UNL     1      23.558  34.600  -9.736  1.00  0.00     0.066 C
BRANCH  15  16
HETATM   16  C4  UNL     1      23.070  35.328 -10.959  1.00  0.00     0.069 A
HETATM   17  N3  UNL     1      23.749  35.695 -12.036  1.00  0.00    -0.296 N
HETATM   18  N2  UNL     1      23.172  36.308 -12.983  1.00  0.00    -0.279 N
ATOM     19  H3  UNL     1      24.744  35.483 -12.102  1.00  0.00     0.187 HD
HETATM   20  C3  UNL     1      21.866  36.575 -12.872  1.00  0.00     0.167 A
ATOM     21  H2  UNL     1      23.692  36.591 -13.812  1.00  0.00     0.189 HD
HETATM   22  S2  UNL     1      21.502  35.904 -11.342  1.00  0.00    -0.038 SA
BRANCH  20  23
HETATM   23  N1  UNL     1      21.102  37.196 -13.745  1.00  0.00    -0.306 N
HETATM   24  C2  UNL     1      19.720  37.340 -13.458  1.00  0.00     0.219 C
HETATM   25  C1  UNL     1      19.165  38.552 -12.825  1.00  0.00     0.117 C
HETATM   26  O1  UNL     1      18.944  36.400 -13.753  1.00  0.00    -0.274 OA
ATOM     27  H1  UNL     1      21.495  37.567 -14.610  1.00  0.00     0.171 HD
ENDBRANCH  20  23
ENDBRANCH  15  16
ENDBRANCH  14  15
ENDBRANCH  13  14
ENDBRANCH  12  13
ENDBRANCH   1  12
BRANCH   9  28
HETATM   28  C12 UNL     1      20.608  40.950  -5.711  1.00  0.00     0.170 C
HETATM   29  C13 UNL     1      20.406  42.323  -6.320  1.00  0.00     0.062 C
HETATM   30 BR1  UNL     1      18.941  40.430  -4.855  1.00  0.00    -0.051 Br
BRANCH  28  31
HETATM   31  N7  UNL     1      21.679  41.015  -4.756  1.00  0.00    -0.321 N
HETATM   32  C14 UNL     1      21.848  40.045  -3.742  1.00  0.00     0.316 C
HETATM   33  O3  UNL     1      21.114  39.044  -3.560  1.00  0.00    -0.254 OA
HETATM   34 CL1  UNL     1      23.193  40.203  -2.600  1.00  0.00    -0.020 Cl
ATOM     35  H7  UNL     1      22.342  41.788  -4.812  1.00  0.00     0.165 HD
ENDBRANCH  28  31
ENDBRANCH   9  28
TORSDOF 8
ENDMDL