MODEL 4
REMARK VINA RESULT: -6.853836129      2.423      8.777
REMARK  8 active torsions:
REMARK  status: ('A' for Active; 'I' for Inactive)
REMARK    1  A    between atoms: C2_2  and  C3_3
REMARK    2  A    between atoms: C3_3  and  C4_4
REMARK    3  A    between atoms: C5_5  and  C6_6
REMARK    4  A    between atoms: C7_8  and  O2_9
REMARK    5  A    between atoms: C15_18  and  C16_19
REMARK    6  A    between atoms: C16_19  and  O3_20
REMARK    7  A    between atoms: C25_30  and  O4_31
REMARK    8  A    between atoms: C32_40  and  O6_41
ROOT
HETATM    1  C6  UNL     1       5.498  37.189  26.701  1.00  0.00     0.176 C
HETATM    2  O1  UNL     1       5.729  37.407  28.037  1.00  0.00    -0.350 OA
HETATM    3  C7  UNL     1       6.052  38.666  28.435  1.00  0.00     0.257 C
HETATM    4  C8  UNL     1       7.493  39.060  28.135  1.00  0.00     0.060 C
HETATM    5  C9  UNL     1       8.186  39.664  29.322  1.00  0.00     0.005 C
HETATM    6  C10 UNL     1       7.281  40.388  30.263  1.00  0.00     0.000 C
HETATM    7  C11 UNL     1       8.079  41.478  30.989  1.00  0.00     0.002 C
HETATM    8  C12 UNL     1       7.138  42.191  31.957  1.00  0.00     0.032 C
HETATM    9  C13 UNL     1       6.933  41.330  33.169  1.00  0.00     0.123 C
HETATM   10  C14 UNL     1       7.126  42.104  34.462  1.00  0.00     0.041 C
HETATM   11  C15 UNL     1       6.217  41.266  35.356  1.00  0.00     0.046 C
HETATM   12  C17 UNL     1       5.080  41.019  34.413  1.00  0.00     0.067 C
HETATM   13  C18 UNL     1       4.327  39.805  34.902  1.00  0.00     0.047 C
HETATM   14  C19 UNL     1       4.222  42.203  34.145  1.00  0.00     0.071 C
HETATM   15  C20 UNL     1       2.750  41.903  34.224  1.00  0.00    -0.082 C
HETATM   16  C21 UNL     1       2.020  42.142  35.524  1.00  0.00     0.043 C
HETATM   17  C22 UNL     1       2.044  41.442  33.214  1.00  0.00     0.007 C
HETATM   18  C23 UNL     1       2.585  41.149  31.856  1.00  0.00     0.153 C
HETATM   19  C24 UNL     1       1.559  41.426  30.778  1.00  0.00     0.104 C
HETATM   20  C25 UNL     1       1.261  39.944  30.847  1.00  0.00     0.165 C
HETATM   21  C26 UNL     1       1.488  39.258  29.531  1.00  0.00     0.073 C
HETATM   22  C27 UNL     1       0.304  38.421  29.102  1.00  0.00     0.039 C
HETATM   23  C28 UNL     1       0.664  37.002  28.843  1.00  0.00    -0.083 C
HETATM   24  C29 UNL     1       0.212  35.938  29.815  1.00  0.00     0.043 C
HETATM   25  C30 UNL     1       1.376  36.652  27.773  1.00  0.00     0.035 C
HETATM   26  C31 UNL     1       1.881  37.588  26.745  1.00  0.00     0.288 C
HETATM   27  O5  UNL     1       1.533  37.272  25.452  1.00  0.00    -0.328 OA
HETATM   28  C32 UNL     1       1.363  35.943  25.177  1.00  0.00     0.260 C
HETATM   29  C33 UNL     1       2.710  35.245  25.118  1.00  0.00     0.063 C
HETATM   30  C34 UNL     1       3.825  36.267  25.161  1.00  0.00     0.040 C
HETATM   31  C35 UNL     1       4.053  36.829  26.518  1.00  0.00     0.158 C
HETATM   32  O7  UNL     1       3.235  37.850  26.899  1.00  0.00    -0.350 OA
HETATM   33  O8  UNL     1       2.421  39.807  31.608  1.00  0.00    -0.346 OA
HETATM   34  O9  UNL     1       5.732  40.689  33.227  1.00  0.00    -0.374 OA
ENDROOT
BRANCH   1  35
HETATM   35  C5  UNL     1       6.049  38.161  25.772  1.00  0.00     0.003 C
HETATM   36  C4  UNL     1       6.925  37.976  24.802  1.00  0.00    -0.028 C
BRANCH  36  37
HETATM   37  C3  UNL     1       7.425  39.047  23.904  1.00  0.00     0.026 C
BRANCH  37  38
HETATM   38  C2  UNL     1       8.510  38.563  22.974  1.00  0.00    -0.001 C
HETATM   39  C1  UNL     1       9.579  39.625  22.779  1.00  0.00     0.005 C
ENDBRANCH  37  38
ENDBRANCH  36  37
ENDBRANCH   1  35
BRANCH   3  40
HETATM   40  O2  UNL     1       5.150  39.661  28.077  1.00  0.00    -0.371 OA
ATOM     41  H2  UNL     1       5.483  40.550  28.110  1.00  0.00     0.212 HD
ENDBRANCH   3  40
BRANCH  28  42
HETATM   42  O6  UNL     1       0.743  35.882  23.905  1.00  0.00    -0.371 OA
ATOM     43  H6  UNL     1       0.673  34.959  23.691  1.00  0.00     0.212 HD
ENDBRANCH  28  42
BRANCH  20  44
HETATM   44  O4  UNL     1       0.107  39.612  31.525  1.00  0.00    -0.365 OA
ATOM     45  H4  UNL     1       0.151  38.804  32.022  1.00  0.00     0.213 HD
ENDBRANCH  20  44
BRANCH  11  46
HETATM   46  C16 UNL     1       5.872  41.928  36.627  1.00  0.00     0.172 C
BRANCH  46  47
HETATM   47  O3  UNL     1       6.952  42.669  37.069  1.00  0.00    -0.400 OA
ATOM     48  H3  UNL     1       7.754  42.310  36.706  1.00  0.00     0.209 HD
ENDBRANCH  46  47
ENDBRANCH  11  46
TORSDOF 8
ENDMDL