MODEL 5
REMARK VINA RESULT: -5.624967247     11.044     16.437
REMARK  8 active torsions:
REMARK  status: ('A' for Active; 'I' for Inactive)
REMARK    1  A    between atoms: O1_2  and  C2_3
REMARK    2  A    between atoms: C10_12  and  C11_13
REMARK    3  A    between atoms: C11_13  and  O3_14
REMARK    4  A    between atoms: C14_18  and  O4_19
REMARK    5  A    between atoms: C17_23  and  O5_24
REMARK    6  A    between atoms: C22_30  and  O6_31
REMARK    7  A    between atoms: C32_42  and  O7_43
REMARK    8  A    between atoms: C34_45  and  O8_46
ROOT
HETATM    1  C2  UNL     1       7.383  40.245  30.081  1.00  0.00     0.073 C
HETATM    2  C3  UNL     1       6.761  40.854  31.049  1.00  0.00     0.012 C
HETATM    3  C4  UNL     1       5.557  40.455  31.796  1.00  0.00     0.009 C
HETATM    4  C5  UNL     1       5.656  41.090  33.200  1.00  0.00     0.014 C
HETATM    5  C6  UNL     1       4.339  41.030  31.115  1.00  0.00     0.040 C
HETATM    6  C7  UNL     1       3.117  40.114  31.241  1.00  0.00     0.124 C
HETATM    7  C8  UNL     1       2.887  39.817  32.679  1.00  0.00     0.040 C
HETATM    8  O2  UNL     1       2.058  40.562  30.493  1.00  0.00    -0.358 OA
HETATM    9  C9  UNL     1       1.023  41.423  30.713  1.00  0.00     0.140 C
HETATM   10  C10 UNL     1      -0.213  41.003  31.007  1.00  0.00    -0.029 C
HETATM   11  C12 UNL     1      -0.559  39.545  31.104  1.00  0.00     0.044 C
HETATM   12  C13 UNL     1      -1.157  39.311  32.468  1.00  0.00     0.017 C
HETATM   13  C14 UNL     1      -1.608  39.175  30.071  1.00  0.00     0.132 C
HETATM   14  C15 UNL     1      -1.285  37.832  29.481  1.00  0.00     0.042 C
HETATM   15  C16 UNL     1      -1.394  36.686  30.444  1.00  0.00     0.015 C
HETATM   16  C17 UNL     1      -2.032  37.554  28.196  1.00  0.00     0.149 C
HETATM   17  C19 UNL     1      -1.083  37.525  26.988  1.00  0.00     0.106 C
HETATM   18  C20 UNL     1      -1.606  38.501  25.922  1.00  0.00     0.034 C
HETATM   19  N1  UNL     1      -0.930  36.272  26.410  1.00  0.00    -0.385 N
HETATM   20  C21 UNL     1      -2.088  35.478  26.202  1.00  0.00     0.146 C
HETATM   21  C22 UNL     1       0.300  35.563  26.524  1.00  0.00     0.219 C
HETATM   22  C23 UNL     1       1.364  36.027  25.537  1.00  0.00     0.030 C
HETATM   23  C24 UNL     1       1.842  34.869  24.654  1.00  0.00     0.014 C
HETATM   24  C25 UNL     1       2.518  36.592  26.293  1.00  0.00     0.012 C
HETATM   25  C26 UNL     1       3.630  37.136  25.499  1.00  0.00    -0.018 C
HETATM   26  C27 UNL     1       3.513  37.083  24.020  1.00  0.00     0.010 C
HETATM   27  C28 UNL     1       4.903  36.380  25.892  1.00  0.00     0.008 C
HETATM   28  C29 UNL     1       5.927  37.293  26.526  1.00  0.00    -0.016 C
HETATM   29  C30 UNL     1       7.186  36.497  26.717  1.00  0.00     0.010 C
HETATM   30  C31 UNL     1       5.494  37.851  27.840  1.00  0.00     0.039 C
HETATM   31  C32 UNL     1       6.275  39.127  28.134  1.00  0.00     0.156 C
HETATM   32  C34 UNL     1       7.038  38.957  29.455  1.00  0.00     0.203 C
ENDROOT
BRANCH  10  33
HETATM   33  C11 UNL     1      -1.263  42.022  31.229  1.00  0.00     0.200 C
BRANCH  33  34
HETATM   34  O3  UNL     1      -1.555  42.750  30.054  1.00  0.00    -0.397 OA
ATOM     35  H3  UNL     1      -2.093  43.513  30.231  1.00  0.00     0.209 HD
ENDBRANCH  33  34
ENDBRANCH  10  33
BRANCH  13  36
HETATM   36  O4  UNL     1      -2.894  39.289  30.533  1.00  0.00    -0.394 OA
ATOM     37  H4  UNL     1      -3.298  40.123  30.325  1.00  0.00     0.210 HD
ENDBRANCH  13  36
BRANCH  16  38
HETATM   38  O5  UNL     1      -3.001  38.531  28.046  1.00  0.00    -0.388 OA
HETATM   39  C18 UNL     1      -4.283  37.967  27.890  1.00  0.00     0.202 C
ENDBRANCH  16  38
BRANCH   1  40
HETATM   40  O1  UNL     1       8.539  40.895  29.557  1.00  0.00    -0.358 OA
HETATM   41  C1  UNL     1       9.756  40.828  30.280  1.00  0.00     0.209 C
ENDBRANCH   1  40
BRANCH  21  42
HETATM   42  O6  UNL     1       0.772  35.400  27.806  1.00  0.00    -0.377 OA
ATOM     43  H6  UNL     1       0.258  35.821  28.486  1.00  0.00     0.212 HD
ENDBRANCH  21  42
BRANCH  32  44
HETATM   44  O8  UNL     1       6.406  38.049  30.279  1.00  0.00    -0.386 OA
ATOM     45  H8  UNL     1       6.218  37.204  29.887  1.00  0.00     0.210 HD
ENDBRANCH  32  44
BRANCH  31  46
HETATM   46  O7  UNL     1       7.102  39.405  27.070  1.00  0.00    -0.388 OA
HETATM   47  C33 UNL     1       6.785  40.541  26.356  1.00  0.00     0.202 C
ENDBRANCH  31  46
TORSDOF 8
ENDMDL