MODEL 3
REMARK VINA RESULT: -6.662121186     11.498     14.850
REMARK  9 active torsions:
REMARK  status: ('A' for Active; 'I' for Inactive)
REMARK    1  A    between atoms: C2_2  and  C3_3
REMARK    2  A    between atoms: C3_3  and  O1_4
REMARK    3  A    between atoms: C20_22  and  S1_23
REMARK    4  A    between atoms: S1_23  and  S2_24
REMARK    5  A    between atoms: S2_24  and  C21_25
REMARK    6  A    between atoms: C23_28  and  O4_30
REMARK    7  A    between atoms: C27_34  and  N1_35
REMARK    8  A    between atoms: C31_42  and  O5_43
REMARK    9  A    between atoms: C32_45  and  O6_46
ROOT
HETATM    1  C3  UNL     1       9.036  45.299  15.022  1.00  0.00     0.098 C
HETATM    2  C5  UNL     1       8.375  44.588  16.123  1.00  0.00     0.089 C
HETATM    3  C6  UNL     1       8.022  45.219  17.393  1.00  0.00     0.021 C
HETATM    4  C7  UNL     1       9.085  43.295  16.474  1.00  0.00     0.137 C
HETATM    5  O2  UNL     1      10.159  42.973  16.065  1.00  0.00    -0.297 OA
HETATM    6  C8  UNL     1       8.354  42.389  17.400  1.00  0.00     0.052 C
HETATM    7  C9  UNL     1       7.558  41.319  16.701  1.00  0.00     0.018 C
HETATM    8  C10 UNL     1       9.280  41.720  18.390  1.00  0.00     0.016 C
HETATM    9  C11 UNL     1       8.560  41.418  19.685  1.00  0.00    -0.017 C
HETATM   10  C12 UNL     1       8.420  39.946  19.953  1.00  0.00     0.010 C
HETATM   11  C13 UNL     1       9.213  42.136  20.871  1.00  0.00     0.008 C
HETATM   12  C14 UNL     1      10.385  41.402  21.431  1.00  0.00    -0.018 C
HETATM   13  C15 UNL     1      10.139  40.774  22.780  1.00  0.00     0.010 C
HETATM   14  C16 UNL     1      11.693  42.126  21.348  1.00  0.00     0.008 C
HETATM   15  C17 UNL     1      11.913  43.295  22.177  1.00  0.00    -0.017 C
HETATM   16  C18 UNL     1      10.947  43.564  23.293  1.00  0.00     0.010 C
HETATM   17  C19 UNL     1      12.045  44.609  21.401  1.00  0.00     0.023 C
HETATM   18  C20 UNL     1      13.289  44.552  20.598  1.00  0.00     0.093 C
HETATM   19  C23 UNL     1      13.578  45.786  19.795  1.00  0.00     0.072 C
HETATM   20  C24 UNL     1      14.023  46.872  20.717  1.00  0.00     0.047 C
HETATM   21  C25 UNL     1      12.400  46.208  18.906  1.00  0.00     0.048 C
HETATM   22  C26 UNL     1      11.790  47.413  19.513  1.00  0.00     0.015 C
HETATM   23  C27 UNL     1      12.874  46.260  17.529  1.00  0.00     0.200 C
HETATM   24  C28 UNL     1      12.168  47.048  16.495  1.00  0.00     0.009 C
HETATM   25  C29 UNL     1      12.428  48.532  16.830  1.00  0.00     0.020 C
HETATM   26  C30 UNL     1      12.961  46.850  15.213  1.00  0.00     0.020 C
HETATM   27  C31 UNL     1      10.689  46.761  16.353  1.00  0.00     0.159 C
HETATM   28  C32 UNL     1      10.374  45.898  15.219  1.00  0.00     0.183 C
ENDROOT
BRANCH  18  29
HETATM   29  S1  UNL     1      14.689  44.411  21.785  1.00  0.00    -0.082 SA
BRANCH  29  30
HETATM   30  S2  UNL     1      15.929  42.771  21.313  1.00  0.00    -0.020 SA
BRANCH  30  31
HETATM   31  C21 UNL     1      15.257  41.263  21.964  1.00  0.00     0.192 C
HETATM   32  C22 UNL     1      14.991  40.061  21.146  1.00  0.00     0.105 C
HETATM   33  O3  UNL     1      14.992  41.196  23.154  1.00  0.00    -0.285 OA
ENDBRANCH  30  31
ENDBRANCH  29  30
ENDBRANCH  18  29
BRANCH  19  34
HETATM   34  O4  UNL     1      14.706  45.466  19.002  1.00  0.00    -0.389 OA
ATOM     35  H4  UNL     1      15.244  46.248  18.998  1.00  0.00     0.210 HD
ENDBRANCH  19  34
BRANCH  23  36
HETATM   36  N1  UNL     1      13.016  44.894  17.023  1.00  0.00    -0.074 N
ATOM     37  H13 UNL     1      13.634  44.327  17.603  1.00  0.00     0.274 HD
ATOM     38  H12 UNL     1      12.165  44.345  17.143  1.00  0.00     0.274 HD
ATOM     39  H11 UNL     1      13.320  44.931  16.051  1.00  0.00     0.274 HD
ENDBRANCH  23  36
BRANCH  27  40
HETATM   40  O5  UNL     1      10.088  48.018  16.374  1.00  0.00    -0.392 OA
ATOM     41  H5  UNL     1      10.534  48.482  17.073  1.00  0.00     0.210 HD
ENDBRANCH  27  40
BRANCH  28  42
HETATM   42  O6  UNL     1      10.593  46.637  14.026  1.00  0.00    -0.390 OA
ATOM     43  H6  UNL     1      11.377  47.140  14.212  1.00  0.00     0.210 HD
ENDBRANCH  28  42
BRANCH   1  44
HETATM   44  C2  UNL     1       8.204  46.150  14.126  1.00  0.00     0.037 C
HETATM   45  C1  UNL     1       7.083  46.927  14.672  1.00  0.00     0.008 C
ENDBRANCH   1  44
BRANCH   1  46
HETATM   46  O1  UNL     1       9.411  44.209  14.164  1.00  0.00    -0.381 OA
HETATM   47  C4  UNL     1       8.976  44.189  12.918  1.00  0.00     0.202 C
ENDBRANCH   1  46
TORSDOF 9
ENDMDL