MODEL 3
REMARK VINA RESULT: -7.356568224      9.707     13.847
REMARK  7 active torsions:
REMARK  status: ('A' for Active; 'I' for Inactive)
REMARK    1  A    between atoms: C3_4  and  O2_5
REMARK    2  A    between atoms: O2_5  and  C4_6
REMARK    3  A    between atoms: C18_21  and  O4_22
REMARK    4  A    between atoms: C29_34  and  O5_35
REMARK    5  A    between atoms: C30_37  and  O6_38
REMARK    6  A    between atoms: O6_38  and  S1_39
REMARK    7  A    between atoms: C31_43  and  O10_44
ROOT
HETATM    1  C4  UNL     1       4.150  37.864  26.808  1.00  0.00     0.162 C
HETATM    2  C5  UNL     1       5.120  37.930  25.648  1.00  0.00     0.148 C
HETATM    3  C6  UNL     1       6.376  37.100  25.834  1.00  0.00     0.042 C
HETATM    4  O3  UNL     1       4.658  37.630  24.416  1.00  0.00    -0.373 OA
HETATM    5  C7  UNL     1       3.892  36.503  24.295  1.00  0.00     0.059 C
HETATM    6  C8  UNL     1       3.368  36.581  22.838  1.00  0.00     0.046 C
HETATM    7  C9  UNL     1       4.540  35.188  24.368  1.00  0.00     0.046 C
HETATM    8  C10 UNL     1       2.685  36.702  25.137  1.00  0.00     0.031 C
HETATM    9  C11 UNL     1       1.620  35.699  24.905  1.00  0.00     0.009 C
HETATM   10  C12 UNL     1       0.311  36.439  25.234  1.00  0.00     0.007 C
HETATM   11  C13 UNL     1       0.474  36.794  26.710  1.00  0.00     0.003 C
HETATM   12  C14 UNL     1      -0.843  37.107  27.347  1.00  0.00    -0.035 C
HETATM   13  C15 UNL     1      -1.730  35.908  26.955  1.00  0.00     0.016 C
HETATM   14  C16 UNL     1      -1.559  38.298  26.802  1.00  0.00     0.012 C
HETATM   15  C17 UNL     1      -2.982  38.226  27.376  1.00  0.00     0.033 C
HETATM   16  C18 UNL     1      -2.965  38.359  28.850  1.00  0.00     0.126 C
HETATM   17  C19 UNL     1      -1.936  37.561  29.582  1.00  0.00    -0.017 C
HETATM   18  C20 UNL     1      -2.532  36.313  30.250  1.00  0.00     0.018 C
HETATM   19  C21 UNL     1      -1.535  38.445  30.783  1.00  0.00     0.018 C
HETATM   20  C22 UNL     1      -0.693  37.246  28.811  1.00  0.00     0.004 C
HETATM   21  C23 UNL     1       0.328  38.292  29.092  1.00  0.00     0.007 C
HETATM   22  C24 UNL     1       1.651  38.069  28.420  1.00  0.00     0.011 C
HETATM   23  C25 UNL     1       1.609  37.721  26.985  1.00  0.00    -0.029 C
HETATM   24  C26 UNL     1       1.471  39.015  26.216  1.00  0.00     0.016 C
HETATM   25  C27 UNL     1       2.941  37.019  26.615  1.00  0.00    -0.001 C
HETATM   26  C28 UNL     1       3.124  35.763  27.410  1.00  0.00     0.019 C
ENDROOT
BRANCH   1  27
HETATM   27  O2  UNL     1       4.989  37.480  27.888  1.00  0.00    -0.350 OA
BRANCH  27  28
HETATM   28  C3  UNL     1       5.110  38.419  28.889  1.00  0.00     0.292 C
HETATM   29  O1  UNL     1       4.260  38.250  29.945  1.00  0.00    -0.351 OA
HETATM   30  C2  UNL     1       4.487  38.925  31.090  1.00  0.00     0.152 C
HETATM   31  C1  UNL     1       3.113  39.386  31.609  1.00  0.00     0.042 C
HETATM   32  C31 UNL     1       5.314  40.153  30.804  1.00  0.00     0.180 C
HETATM   33  C30 UNL     1       6.662  39.690  30.327  1.00  0.00     0.209 C
HETATM   34  C29 UNL     1       6.567  38.529  29.364  1.00  0.00     0.206 C
BRANCH  32  35
HETATM   35  O10 UNL     1       5.425  40.969  31.931  1.00  0.00    -0.390 OA
ATOM     36  H10 UNL     1       6.218  41.492  31.906  1.00  0.00     0.210 HD
ENDBRANCH  32  35
BRANCH  33  37
HETATM   37  O6  UNL     1       7.260  40.752  29.661  1.00  0.00    -0.246 OA
BRANCH  37  38
HETATM   38  S1  UNL     1       8.568  41.382  30.501  1.00  0.00     0.252 S
HETATM   39  O7  UNL     1       8.234  41.563  31.951  1.00  0.00    -0.572 OA
HETATM   40  O8  UNL     1       8.840  42.755  29.905  1.00  0.00    -0.572 OA
HETATM   41  O9  UNL     1       9.881  40.382  30.260  1.00  0.00    -0.572 OA
ENDBRANCH  37  38
ENDBRANCH  33  37
BRANCH  34  42
HETATM   42  O5  UNL     1       7.038  37.350  29.905  1.00  0.00    -0.388 OA
ATOM     43  H5  UNL     1       7.902  37.444  30.287  1.00  0.00     0.210 HD
ENDBRANCH  34  42
ENDBRANCH  27  28
ENDBRANCH   1  27
BRANCH  16  44
HETATM   44  O4  UNL     1      -4.249  38.003  29.321  1.00  0.00    -0.395 OA
ATOM     45  H4  UNL     1      -4.319  38.314  30.215  1.00  0.00     0.210 HD
ENDBRANCH  16  44
TORSDOF 7
ENDMDL