MODEL 2
REMARK VINA RESULT: -7.366285335      1.637      2.281
REMARK  10 active torsions:
REMARK  status: ('A' for Active; 'I' for Inactive)
REMARK    1  A    between atoms: C3_3  and  C5_5
REMARK    2  A    between atoms: C5_5  and  O2_7
REMARK    3  A    between atoms: O2_7  and  C6_8
REMARK    4  A    between atoms: C7_9  and  O3_10
REMARK    5  A    between atoms: O3_10  and  C8_11
REMARK    6  A    between atoms: C12_16  and  O5_17
REMARK    7  A    between atoms: C13_19  and  O6_20
REMARK    8  A    between atoms: C25_33  and  C26_34
REMARK    9  A    between atoms: C26_34  and  O7_37
REMARK   10  A    between atoms: C35_46  and  O9_47
ROOT
HETATM    1  C6  UNL     1       4.964  37.724  23.908  1.00  0.00     0.227 C
HETATM    2  C7  UNL     1       4.627  38.033  25.337  1.00  0.00     0.167 C
HETATM    3  C10 UNL     1       4.716  39.458  25.729  1.00  0.00     0.038 C
HETATM    4  C11 UNL     1       5.947  40.172  25.214  1.00  0.00     0.049 C
HETATM    5  C12 UNL     1       5.971  40.023  23.744  1.00  0.00     0.150 C
HETATM    6  C13 UNL     1       7.276  40.473  23.092  1.00  0.00     0.120 C
HETATM    7  C14 UNL     1       7.117  41.871  22.654  1.00  0.00     0.044 C
HETATM    8  C15 UNL     1       8.118  42.343  21.608  1.00  0.00     0.009 C
HETATM    9  C16 UNL     1       8.553  41.162  20.815  1.00  0.00     0.001 C
HETATM   10  C17 UNL     1       7.345  40.272  20.687  1.00  0.00     0.023 C
HETATM   11  C18 UNL     1       7.256  39.463  19.458  1.00  0.00     0.008 C
HETATM   12  C19 UNL     1       7.308  40.366  18.258  1.00  0.00     0.006 C
HETATM   13  C20 UNL     1       7.985  41.688  18.571  1.00  0.00    -0.006 C
HETATM   14  C21 UNL     1       8.243  42.437  17.321  1.00  0.00     0.006 C
HETATM   15  C22 UNL     1       8.999  43.715  17.563  1.00  0.00     0.010 C
HETATM   16  C23 UNL     1      10.290  43.453  18.297  1.00  0.00    -0.033 C
HETATM   17  C24 UNL     1      11.188  42.688  17.368  1.00  0.00     0.016 C
HETATM   18  C25 UNL     1      10.913  44.656  18.892  1.00  0.00     0.028 C
HETATM   19  C29 UNL     1      11.789  44.090  19.989  1.00  0.00     0.009 C
HETATM   20  C30 UNL     1      11.256  42.683  20.285  1.00  0.00     0.007 C
HETATM   21  C31 UNL     1       9.951  42.723  19.565  1.00  0.00     0.003 C
HETATM   22  C32 UNL     1       9.186  41.491  19.468  1.00  0.00    -0.032 C
HETATM   23  C33 UNL     1       9.990  40.262  19.092  1.00  0.00     0.016 C
HETATM   24  C34 UNL     1       7.362  39.462  21.970  1.00  0.00     0.167 C
HETATM   25  O8  UNL     1       6.325  38.580  22.092  1.00  0.00    -0.341 OA
HETATM   26  C35 UNL     1       6.111  38.523  23.443  1.00  0.00     0.227 C
ENDROOT
BRANCH   1  27
HETATM   27  O2  UNL     1       3.840  37.762  23.056  1.00  0.00    -0.304 OA
BRANCH  27  28
HETATM   28  C5  UNL     1       3.027  36.669  22.801  1.00  0.00     0.289 C
HETATM   29  O1  UNL     1       2.460  36.688  21.657  1.00  0.00    -0.260 OA
BRANCH  28  30
HETATM   30  C3  UNL     1       2.786  35.569  23.684  1.00  0.00     0.009 C
HETATM   31  C2  UNL     1       1.875  35.563  24.647  1.00  0.00    -0.018 C
HETATM   32  C1  UNL     1       1.017  36.728  24.884  1.00  0.00     0.036 C
HETATM   33  C4  UNL     1       3.607  34.327  23.529  1.00  0.00     0.054 C
ENDBRANCH  28  30
ENDBRANCH  27  28
ENDBRANCH   1  27
BRANCH   2  34
HETATM   34  O3  UNL     1       5.470  37.277  26.189  1.00  0.00    -0.314 OA
BRANCH  34  35
HETATM   35  C8  UNL     1       4.976  36.437  27.168  1.00  0.00     0.255 C
HETATM   36  C9  UNL     1       3.567  36.590  27.635  1.00  0.00     0.126 C
HETATM   37  O4  UNL     1       5.703  35.563  27.654  1.00  0.00    -0.266 OA
ENDBRANCH  34  35
ENDBRANCH   2  34
BRANCH  26  38
HETATM   38  O9  UNL     1       7.265  38.117  24.125  1.00  0.00    -0.361 OA
ATOM     39  H9  UNL     1       8.032  38.388  23.633  1.00  0.00     0.213 HD
ENDBRANCH  26  38
BRANCH   5  40
HETATM   40  O5  UNL     1       4.914  40.579  23.076  1.00  0.00    -0.381 OA
ATOM     41  H5  UNL     1       4.703  40.182  22.239  1.00  0.00     0.211 HD
ENDBRANCH   5  40
BRANCH   6  42
HETATM   42  O6  UNL     1       8.336  40.309  24.010  1.00  0.00    -0.384 OA
ATOM     43  H6  UNL     1       8.139  40.790  24.805  1.00  0.00     0.210 HD
ENDBRANCH   6  42
BRANCH  18  44
HETATM   44  C26 UNL     1      11.687  45.558  18.015  1.00  0.00     0.055 C
HETATM   45  C27 UNL     1      12.256  46.655  18.937  1.00  0.00     0.045 C
HETATM   46  C28 UNL     1      10.835  46.291  17.006  1.00  0.00     0.045 C
BRANCH  44  47
HETATM   47  O7  UNL     1      12.804  44.990  17.430  1.00  0.00    -0.390 OA
ATOM     48  H7  UNL     1      13.605  45.492  17.520  1.00  0.00     0.210 HD
ENDBRANCH  44  47
ENDBRANCH  18  44
TORSDOF 10
ENDMDL