MODEL 1
REMARK VINA RESULT: -8.746967521      0.000      0.000
REMARK  8 active torsions:
REMARK  status: ('A' for Active; 'I' for Inactive)
REMARK    1  A    between atoms: O1_2  and  C2_3
REMARK    2  A    between atoms: C2_3  and  C3_4
REMARK    3  A    between atoms: C8_9  and  O2_10
REMARK    4  A    between atoms: O2_10  and  C9_11
REMARK    5  A    between atoms: C9_11  and  C10_13
REMARK    6  A    between atoms: C21_24  and  O4_25
REMARK    7  A    between atoms: N1_31  and  O5_33
REMARK    8  A    between atoms: C33_46  and  O7_47
ROOT
HETATM    1  C10 UNL     1       6.758  38.864  23.862  1.00  0.00     0.048 C
HETATM    2  C11 UNL     1       7.253  40.155  24.508  1.00  0.00     0.026 C
HETATM    3  C12 UNL     1       5.506  39.188  23.124  1.00  0.00     0.020 C
HETATM    4  C13 UNL     1       4.500  39.429  24.259  1.00  0.00     0.007 C
HETATM    5  C14 UNL     1       5.128  38.900  25.493  1.00  0.00    -0.002 C
HETATM    6  C15 UNL     1       6.235  37.998  25.020  1.00  0.00     0.008 C
HETATM    7  C16 UNL     1       5.732  36.704  24.450  1.00  0.00     0.007 C
HETATM    8  C17 UNL     1       4.322  36.370  24.805  1.00  0.00     0.010 C
HETATM    9  C18 UNL     1       3.949  36.815  26.231  1.00  0.00    -0.033 C
HETATM   10  C19 UNL     1       4.858  35.938  27.117  1.00  0.00     0.016 C
HETATM   11  C20 UNL     1       4.198  38.248  26.483  1.00  0.00     0.027 C
HETATM   12  C21 UNL     1       3.028  39.151  26.651  1.00  0.00     0.124 C
HETATM   13  C22 UNL     1       1.719  38.539  26.931  1.00  0.00     0.047 C
HETATM   14  C23 UNL     1       1.743  37.121  27.404  1.00  0.00     0.003 C
HETATM   15  C24 UNL     1       2.163  36.981  28.845  1.00  0.00     0.022 C
HETATM   16  C25 UNL     1       0.379  36.556  27.183  1.00  0.00     0.018 C
HETATM   17  N1  UNL     1      -0.598  36.487  28.011  1.00  0.00    -0.277 N
ATOM     18  H1  UNL     1      -0.479  36.852  28.957  1.00  0.00     0.193 HD
HETATM   19  C26 UNL     1       0.326  36.061  25.787  1.00  0.00     0.056 C
HETATM   20  C27 UNL     1       1.708  36.293  25.210  1.00  0.00     0.012 C
HETATM   21  C28 UNL     1       2.564  36.324  26.453  1.00  0.00     0.008 C
ENDROOT
BRANCH   1  22
HETATM   22  C9  UNL     1       7.790  38.188  23.092  1.00  0.00     0.269 C
HETATM   23  O3  UNL     1       8.611  37.340  23.530  1.00  0.00    -0.264 OA
BRANCH  22  24
HETATM   24  O2  UNL     1       7.926  38.465  21.752  1.00  0.00    -0.287 OA
BRANCH  24  25
HETATM   25  C8  UNL     1       9.120  38.838  21.115  1.00  0.00     0.330 C
HETATM   26  C7  UNL     1       9.022  40.135  20.357  1.00  0.00     0.067 C
HETATM   27  C6  UNL     1      10.378  40.593  20.020  1.00  0.00    -0.000 C
HETATM   28  C5  UNL     1      10.526  41.890  19.345  1.00  0.00     0.006 C
HETATM   29  C30 UNL     1      11.285  40.743  21.254  1.00  0.00    -0.010 C
HETATM   30  C4  UNL     1      12.058  42.014  19.398  1.00  0.00     0.009 C
HETATM   31  C3  UNL     1      12.512  41.316  20.634  1.00  0.00     0.033 C
HETATM   32  C29 UNL     1      11.417  39.313  21.728  1.00  0.00     0.245 C
HETATM   33  C31 UNL     1      10.555  41.572  22.234  1.00  0.00     0.018 C
HETATM   34  N2  UNL     1      10.118  38.873  22.155  1.00  0.00    -0.048 N
ATOM     35  H22 UNL     1       9.792  39.440  22.939  1.00  0.00     0.280 HD
ATOM     36  H21 UNL     1      10.185  37.963  22.612  1.00  0.00     0.280 HD
BRANCH  31  37
HETATM   37  C2  UNL     1      13.432  42.054  21.526  1.00  0.00     0.094 C
HETATM   38  C32 UNL     1      13.301  41.479  22.950  1.00  0.00     0.210 C
HETATM   39  O6  UNL     1      14.471  42.031  23.529  1.00  0.00    -0.358 OA
HETATM   40  C33 UNL     1      15.490  41.760  22.652  1.00  0.00     0.263 C
HETATM   41  C34 UNL     1      14.871  41.594  21.279  1.00  0.00     0.074 C
HETATM   42  C35 UNL     1      14.993  40.163  20.893  1.00  0.00     0.018 C
BRANCH  37  43
HETATM   43  O1  UNL     1      13.349  43.378  21.643  1.00  0.00    -0.382 OA
HETATM   44  C1  UNL     1      13.982  44.264  20.873  1.00  0.00     0.202 C
ENDBRANCH  37  43
BRANCH  40  45
HETATM   45  O7  UNL     1      16.107  40.567  23.080  1.00  0.00    -0.371 OA
ATOM     46  H7  UNL     1      16.538  40.184  22.325  1.00  0.00     0.212 HD
ENDBRANCH  40  45
ENDBRANCH  31  37
ENDBRANCH  24  25
ENDBRANCH  22  24
ENDBRANCH   1  22
BRANCH  12  47
HETATM   47  O4  UNL     1       3.266  40.107  27.678  1.00  0.00    -0.395 OA
ATOM     48  H4  UNL     1       3.212  39.703  28.536  1.00  0.00     0.210 HD
ENDBRANCH  12  47
BRANCH  17  49
HETATM   49  O5  UNL     1      -1.786  35.938  27.654  1.00  0.00    -0.290 OA
ATOM     50  H5  UNL     1      -2.596  36.430  27.720  1.00  0.00     0.244 HD
ENDBRANCH  17  49
TORSDOF 8
ENDMDL