MODEL 4
REMARK VINA RESULT: -6.965634424      2.636      8.526
REMARK  8 active torsions:
REMARK  status: ('A' for Active; 'I' for Inactive)
REMARK    1  A    between atoms: C2_2  and  C3_3
REMARK    2  A    between atoms: C5_5  and  C6_6
REMARK    3  A    between atoms: C17_21  and  C18_22
REMARK    4  A    between atoms: C18_22  and  O4_23
REMARK    5  A    between atoms: C19_25  and  O5_26
REMARK    6  A    between atoms: C20_28  and  O6_29
REMARK    7  A    between atoms: C25_35  and  O7_36
REMARK    8  A    between atoms: C28_40  and  C30_42
ROOT
HETATM    1  C3  UNL     1       7.454  41.188  31.043  1.00  0.00     0.012 C
HETATM    2  C4  UNL     1       6.814  42.004  32.093  1.00  0.00     0.043 C
HETATM    3  C5  UNL     1       5.598  41.242  32.570  1.00  0.00    -0.074 C
HETATM    4  C10 UNL     1       5.039  40.241  31.688  1.00  0.00    -0.007 C
HETATM    5  C11 UNL     1       4.630  40.438  30.265  1.00  0.00     0.087 C
HETATM    6  S1  UNL     1       3.733  38.876  29.970  1.00  0.00    -0.082 SA
HETATM    7  C12 UNL     1       2.558  38.737  28.791  1.00  0.00     0.200 C
HETATM    8  O1  UNL     1       1.471  39.323  28.867  1.00  0.00    -0.284 OA
HETATM    9  C13 UNL     1       2.776  37.877  27.567  1.00  0.00     0.082 C
HETATM   10  C14 UNL     1       1.708  36.877  27.751  1.00  0.00     0.030 C
HETATM   11  C15 UNL     1       4.179  37.234  27.637  1.00  0.00     0.280 C
HETATM   12  O2  UNL     1       4.100  36.147  26.734  1.00  0.00    -0.329 OA
HETATM   13  C16 UNL     1       3.409  36.293  25.604  1.00  0.00     0.274 C
HETATM   14  O3  UNL     1       4.018  35.747  24.440  1.00  0.00    -0.350 OA
HETATM   15  C17 UNL     1       2.977  35.315  23.575  1.00  0.00     0.179 C
HETATM   16  C19 UNL     1       1.724  36.066  23.666  1.00  0.00     0.178 C
HETATM   17  C20 UNL     1       1.758  37.450  24.290  1.00  0.00     0.162 C
HETATM   18  C21 UNL     1       3.015  37.652  25.140  1.00  0.00     0.039 C
HETATM   19  C22 UNL     1       3.972  38.204  24.069  1.00  0.00     0.024 C
HETATM   20  C23 UNL     1       2.817  38.650  26.283  1.00  0.00     0.025 C
HETATM   21  C24 UNL     1       3.728  39.794  26.178  1.00  0.00     0.039 C
HETATM   22  C25 UNL     1       4.313  40.568  27.248  1.00  0.00     0.130 C
HETATM   23  C26 UNL     1       5.653  40.199  27.896  1.00  0.00     0.022 C
HETATM   24  C27 UNL     1       6.662  40.959  27.047  1.00  0.00     0.022 C
HETATM   25  C28 UNL     1       6.050  38.781  27.800  1.00  0.00     0.070 C
HETATM   26  C29 UNL     1       6.680  38.002  28.870  1.00  0.00     0.047 C
HETATM   27  O8  UNL     1       5.065  38.042  27.262  1.00  0.00    -0.348 OA
HETATM   28  C32 UNL     1       5.598  40.889  29.273  1.00  0.00    -0.015 C
HETATM   29  C33 UNL     1       5.102  42.344  29.046  1.00  0.00     0.018 C
HETATM   30  C34 UNL     1       7.018  41.173  29.668  1.00  0.00     0.020 C
ENDROOT
BRANCH   3  31
HETATM   31  C6  UNL     1       4.689  42.055  33.435  1.00  0.00    -0.028 C
HETATM   32  C7  UNL     1       4.424  43.385  32.711  1.00  0.00     0.019 C
HETATM   33  C8  UNL     1       3.415  41.508  33.871  1.00  0.00     0.019 C
HETATM   34  C9  UNL     1       5.476  42.474  34.685  1.00  0.00     0.019 C
ENDBRANCH   3  31
BRANCH   1  35
HETATM   35  C2  UNL     1       8.920  41.447  31.085  1.00  0.00    -0.032 C
HETATM   36  C1  UNL     1       9.795  40.791  30.366  1.00  0.00     0.007 C
ENDBRANCH   1  35
BRANCH  22  37
HETATM   37  O7  UNL     1       4.548  41.874  26.647  1.00  0.00    -0.395 OA
ATOM     38  H7  UNL     1       3.957  42.451  27.116  1.00  0.00     0.210 HD
ENDBRANCH  22  37
BRANCH  25  39
HETATM   39  C30 UNL     1       7.110  38.522  26.665  1.00  0.00     0.034 C
HETATM   40  C31 UNL     1       7.420  37.040  26.573  1.00  0.00     0.008 C
ENDBRANCH  25  39
BRANCH  17  41
HETATM   41  O6  UNL     1       1.685  38.441  23.265  1.00  0.00    -0.392 OA
ATOM     42  H6  UNL     1       2.349  39.104  23.413  1.00  0.00     0.210 HD
ENDBRANCH  17  41
BRANCH  16  43
HETATM   43  O5  UNL     1       0.614  35.437  24.192  1.00  0.00    -0.390 OA
ATOM     44  H5  UNL     1      -0.246  35.765  23.960  1.00  0.00     0.210 HD
ENDBRANCH  16  43
BRANCH  15  45
HETATM   45  C18 UNL     1       2.907  33.825  23.791  1.00  0.00     0.198 C
BRANCH  45  46
HETATM   46  O4  UNL     1       4.016  33.129  23.347  1.00  0.00    -0.398 OA
ATOM     47  H4  UNL     1       3.901  32.703  22.505  1.00  0.00     0.209 HD
ENDBRANCH  45  46
ENDBRANCH  15  45
TORSDOF 8
ENDMDL