MODEL 1
REMARK VINA RESULT: -9.120376557      0.000      0.000
REMARK  8 active torsions:
REMARK  status: ('A' for Active; 'I' for Inactive)
REMARK    1  A    between atoms: C2_2  and  C3_3
REMARK    2  A    between atoms: C10_11  and  O2_13
REMARK    3  A    between atoms: C15_20  and  O5_21
REMARK    4  A    between atoms: O5_21  and  C16_22
REMARK    5  A    between atoms: C20_26  and  O6_28
REMARK    6  A    between atoms: C26_34  and  O7_35
REMARK    7  A    between atoms: C31_41  and  C32_42
REMARK    8  A    between atoms: C32_42  and  O8_44
ROOT
HETATM    1  C3  UNL     1       2.723  37.667  27.890  1.00  0.00    -0.009 C
HETATM    2  C4  UNL     1       3.202  38.992  28.391  1.00  0.00     0.024 C
HETATM    3  C5  UNL     1       1.484  37.662  27.075  1.00  0.00    -0.017 C
HETATM    4  C6  UNL     1       1.362  38.139  25.726  1.00  0.00    -0.019 C
HETATM    5  C7  UNL     1       2.315  38.983  25.025  1.00  0.00     0.079 C
HETATM    6  C8  UNL     1       2.619  38.719  23.584  1.00  0.00     0.062 C
HETATM    7  C9  UNL     1       1.258  39.133  22.980  1.00  0.00     0.180 C
HETATM    8  O1  UNL     1       0.870  40.238  23.699  1.00  0.00    -0.354 OA
HETATM    9  C10 UNL     1       1.739  40.401  24.758  1.00  0.00     0.165 C
HETATM   10  C11 UNL     1       1.001  40.989  25.891  1.00  0.00     0.079 C
HETATM   11  C12 UNL     1       3.047  37.453  23.074  1.00  0.00     0.130 A
HETATM   12  C13 UNL     1       2.397  37.246  21.672  1.00  0.00     0.052 C
HETATM   13  O3  UNL     1       2.906  36.271  23.725  1.00  0.00    -0.226 OA
HETATM   14  O4  UNL     1       4.101  35.874  23.582  1.00  0.00    -0.229 OA
HETATM   15  C14 UNL     1       4.467  37.062  22.994  1.00  0.00     0.229 A
HETATM   16  C15 UNL     1       5.508  37.840  23.646  1.00  0.00     0.186 C
HETATM   17  C26 UNL     1       6.323  37.060  24.655  1.00  0.00     0.153 C
HETATM   18  C27 UNL     1       6.267  37.740  26.004  1.00  0.00     0.076 C
HETATM   19  C28 UNL     1       6.349  36.871  27.192  1.00  0.00     0.082 C
HETATM   20  C29 UNL     1       7.427  37.367  28.133  1.00  0.00     0.009 C
HETATM   21  C30 UNL     1       8.256  36.403  28.435  1.00  0.00     0.006 C
HETATM   22  C31 UNL     1       7.785  35.211  27.719  1.00  0.00     0.174 C
HETATM   23  O9  UNL     1       6.783  35.614  26.892  1.00  0.00    -0.364 OA
HETATM   24  C34 UNL     1       5.106  36.855  28.059  1.00  0.00     0.043 C
HETATM   25  C35 UNL     1       3.833  36.829  27.283  1.00  0.00     0.020 C
ENDROOT
BRANCH  16  26
HETATM   26  O5  UNL     1       6.450  38.263  22.671  1.00  0.00    -0.370 OA
BRANCH  26  27
HETATM   27  C16 UNL     1       6.502  39.618  22.490  1.00  0.00     0.158 C
HETATM   28  C17 UNL     1       7.649  40.103  23.350  1.00  0.00    -0.057 C
HETATM   29  C18 UNL     1       7.371  40.913  24.343  1.00  0.00     0.017 C
HETATM   30  C19 UNL     1       9.037  39.699  23.098  1.00  0.00     0.073 C
HETATM   31  C20 UNL     1       9.294  39.124  21.757  1.00  0.00     0.059 C
HETATM   32  C21 UNL     1      10.419  39.924  21.087  1.00  0.00     0.046 C
HETATM   33  C22 UNL     1       8.148  38.978  20.836  1.00  0.00     0.049 C
HETATM   34  C23 UNL     1       6.979  39.891  21.078  1.00  0.00    -0.015 C
HETATM   35  C24 UNL     1       5.940  39.566  20.031  1.00  0.00     0.018 C
HETATM   36  C25 UNL     1       7.347  41.344  20.887  1.00  0.00     0.018 C
BRANCH  31  37
HETATM   37  O6  UNL     1       9.849  37.834  21.942  1.00  0.00    -0.390 OA
ATOM     38  H6  UNL     1      10.697  37.822  21.514  1.00  0.00     0.210 HD
ENDBRANCH  31  37
ENDBRANCH  26  27
ENDBRANCH  16  26
BRANCH  17  39
HETATM   39  O7  UNL     1       6.019  35.726  24.683  1.00  0.00    -0.393 OA
ATOM     40  H7  UNL     1       6.783  35.164  24.620  1.00  0.00     0.210 HD
ENDBRANCH  17  39
BRANCH   9  41
HETATM   41  O2  UNL     1       2.806  41.222  24.375  1.00  0.00    -0.365 OA
ATOM     42  H2  UNL     1       2.437  41.998  23.971  1.00  0.00     0.213 HD
ENDBRANCH   9  41
BRANCH  22  43
HETATM   43  C32 UNL     1       8.936  34.717  26.830  1.00  0.00     0.146 C
HETATM   44  C33 UNL     1       9.552  33.485  27.423  1.00  0.00     0.042 C
BRANCH  43  45
HETATM   45  O8  UNL     1       8.429  34.536  25.558  1.00  0.00    -0.393 OA
ATOM     46  H8  UNL     1       9.132  34.707  24.943  1.00  0.00     0.210 HD
ENDBRANCH  43  45
ENDBRANCH  22  43
BRANCH   1  47
HETATM   47  C2  UNL     1       2.356  36.916  29.152  1.00  0.00    -0.024 C
HETATM   48  C1  UNL     1       1.554  35.889  29.152  1.00  0.00     0.008 C
ENDBRANCH   1  47
TORSDOF 8
ENDMDL