MODEL 3
REMARK VINA RESULT: -7.614238520      2.785      4.687
REMARK  7 active torsions:
REMARK  status: ('A' for Active; 'I' for Inactive)
REMARK    1  A    between atoms: C2_2  and  C3_3
REMARK    2  A    between atoms: C2_2  and  C11_18
REMARK       I    between atoms: C3_3  and  N1_5
REMARK    3  A    between atoms: N1_5  and  C4_7
REMARK    4  A    between atoms: C5_8  and  O2_9
REMARK    5  A    between atoms: C6_12  and  O4_13
REMARK    6  A    between atoms: N2_24  and  O5_26
REMARK    7  A    between atoms: C27_39  and  O7_40
ROOT
HETATM    1  C11 UNL     1       9.096  42.996  20.570  1.00  0.00    -0.056 C
HETATM    2  C12 UNL     1       7.875  42.872  19.730  1.00  0.00     0.037 C
HETATM    3  C13 UNL     1       7.788  41.419  19.445  1.00  0.00     0.021 C
HETATM    4  C14 UNL     1       8.595  40.732  20.518  1.00  0.00     0.011 C
HETATM    5  C15 UNL     1       9.743  40.044  19.734  1.00  0.00     0.023 C
HETATM    6  C16 UNL     1       7.807  39.638  21.038  1.00  0.00     0.053 C
HETATM    7  N2  UNL     1       7.202  38.880  20.156  1.00  0.00    -0.274 N
ATOM      8  H2  UNL     1       6.654  38.117  20.555  1.00  0.00     0.193 HD
HETATM    9  C17 UNL     1       7.491  39.091  22.395  1.00  0.00     0.103 C
HETATM   10  C18 UNL     1       8.612  38.188  22.779  1.00  0.00     0.053 C
HETATM   11  O6  UNL     1       6.336  38.314  22.403  1.00  0.00    -0.368 OA
HETATM   12  C19 UNL     1       5.425  38.915  23.276  1.00  0.00     0.137 C
HETATM   13  C20 UNL     1       6.218  39.679  24.278  1.00  0.00     0.026 C
HETATM   14  C21 UNL     1       6.833  39.054  25.416  1.00  0.00    -0.012 C
HETATM   15  C22 UNL     1       6.743  39.981  26.644  1.00  0.00     0.010 C
HETATM   16  C23 UNL     1       6.362  37.723  25.876  1.00  0.00     0.005 C
HETATM   17  C24 UNL     1       4.883  37.604  26.022  1.00  0.00     0.013 C
HETATM   18  C25 UNL     1       4.359  37.093  24.690  1.00  0.00    -0.008 C
HETATM   19  C26 UNL     1       5.085  35.846  24.306  1.00  0.00     0.019 C
HETATM   20  C27 UNL     1       2.879  36.767  24.946  1.00  0.00     0.127 C
HETATM   21  C28 UNL     1       2.183  38.094  24.754  1.00  0.00     0.033 C
HETATM   22  C29 UNL     1       3.179  39.053  24.183  1.00  0.00     0.015 C
HETATM   23  C30 UNL     1       4.282  38.132  23.670  1.00  0.00    -0.008 C
HETATM   24  C31 UNL     1       3.702  37.493  22.395  1.00  0.00     0.019 C
HETATM   25  C32 UNL     1       7.187  40.247  23.242  1.00  0.00     0.033 C
HETATM   26  C33 UNL     1       8.317  41.045  23.709  1.00  0.00     0.009 C
HETATM   27  C34 UNL     1       8.551  42.088  22.689  1.00  0.00     0.015 C
HETATM   28  C35 UNL     1       9.209  41.753  21.405  1.00  0.00    -0.007 C
HETATM   29  C36 UNL     1      10.631  41.375  21.719  1.00  0.00     0.021 C
ENDROOT
BRANCH   1  30
HETATM   30  C2  UNL     1      10.275  43.575  19.941  1.00  0.00     0.025 C
HETATM   31  C1  UNL     1      11.208  44.112  20.709  1.00  0.00     0.029 C
BRANCH  30  32
HETATM   32  C3  UNL     1      10.512  43.498  18.534  1.00  0.00     0.251 C
HETATM   33  O1  UNL     1      11.203  42.575  18.040  1.00  0.00    -0.268 OA
HETATM   34  N1  UNL     1       9.987  44.446  17.628  1.00  0.00    -0.347 N
ATOM     35  H1  UNL     1       9.421  45.217  17.980  1.00  0.00     0.163 HD
BRANCH  34  36
HETATM   36  C4  UNL     1      10.245  44.336  16.179  1.00  0.00     0.152 C
HETATM   37  C5  UNL     1       9.125  43.666  15.448  1.00  0.00     0.283 C
HETATM   38  O3  UNL     1       8.155  44.631  15.211  1.00  0.00    -0.329 OA
HETATM   39  C6  UNL     1       8.729  45.873  15.273  1.00  0.00     0.272 C
HETATM   40  C8  UNL     1      10.187  45.740  15.556  1.00  0.00     0.027 C
HETATM   41  C9  UNL     1      10.738  46.758  16.512  1.00  0.00     0.022 C
HETATM   42  C10 UNL     1      11.024  45.688  14.295  1.00  0.00     0.022 C
BRANCH  37  43
HETATM   43  O2  UNL     1       8.618  42.553  16.095  1.00  0.00    -0.369 OA
ATOM     44  H2  UNL     1       7.680  42.589  16.245  1.00  0.00     0.212 HD
ENDBRANCH  37  43
BRANCH  39  45
HETATM   45  O4  UNL     1       8.150  46.580  16.325  1.00  0.00    -0.365 OA
HETATM   46  C7  UNL     1       6.762  46.431  16.324  1.00  0.00     0.204 C
ENDBRANCH  39  45
ENDBRANCH  34  36
ENDBRANCH  30  32
ENDBRANCH   1  30
BRANCH   7  47
HETATM   47  O5  UNL     1       7.182  38.939  18.837  1.00  0.00    -0.290 OA
ATOM     48  H5  UNL     1       7.874  39.127  18.214  1.00  0.00     0.244 HD
ENDBRANCH   7  47
BRANCH  20  49
HETATM   49  O7  UNL     1       2.421  35.782  24.106  1.00  0.00    -0.395 OA
ATOM     50  H7  UNL     1       2.354  36.088  23.209  1.00  0.00     0.210 HD
ENDBRANCH  20  49
TORSDOF 7
ENDMDL