MODEL 3
REMARK VINA RESULT: -7.183231606      2.385      4.485
REMARK  7 active torsions:
REMARK  status: ('A' for Active; 'I' for Inactive)
REMARK    1  A    between atoms: C2_2  and  O1_3
REMARK    2  A    between atoms: O1_3  and  C3_4
REMARK    3  A    between atoms: C3_4  and  C4_6
REMARK    4  A    between atoms: C13_16  and  O4_17
REMARK    5  A    between atoms: C14_20  and  C16_22
REMARK    6  A    between atoms: C26_35  and  O6_36
REMARK    7  A    between atoms: C32_43  and  O7_44
ROOT
HETATM    1  C4  UNL     1       5.356  37.488  26.814  1.00  0.00     0.162 C
HETATM    2  C5  UNL     1       4.812  38.003  28.136  1.00  0.00     0.050 C
HETATM    3  C6  UNL     1       5.918  38.297  29.072  1.00  0.00     0.012 C
HETATM    4  C7  UNL     1       6.779  39.394  28.551  1.00  0.00    -0.047 C
HETATM    5  C8  UNL     1       6.553  40.702  29.282  1.00  0.00     0.015 C
HETATM    6  C9  UNL     1       8.239  39.019  28.778  1.00  0.00     0.015 C
HETATM    7  C10 UNL     1       6.629  39.616  27.037  1.00  0.00     0.019 C
HETATM    8  C11 UNL     1       6.587  38.260  26.378  1.00  0.00     0.061 C
HETATM    9  C12 UNL     1       6.821  38.224  24.916  1.00  0.00     0.142 C
HETATM   10  O3  UNL     1       5.757  37.860  24.140  1.00  0.00    -0.302 OA
HETATM   11  C13 UNL     1       4.549  37.648  24.616  1.00  0.00     0.416 C
HETATM   12  O5  UNL     1       3.697  38.609  24.053  1.00  0.00    -0.292 OA
HETATM   13  C14 UNL     1       4.284  39.249  22.927  1.00  0.00     0.097 C
HETATM   14  C15 UNL     1       4.565  38.336  21.809  1.00  0.00     0.052 C
HETATM   15  C17 UNL     1       5.306  40.243  23.325  1.00  0.00     0.049 C
HETATM   16  C18 UNL     1       6.734  39.972  23.087  1.00  0.00     0.004 C
HETATM   17  C19 UNL     1       7.493  39.372  24.263  1.00  0.00     0.020 C
HETATM   18  C20 UNL     1       8.731  38.812  23.530  1.00  0.00     0.008 C
HETATM   19  C21 UNL     1       9.595  39.855  22.952  1.00  0.00     0.007 C
HETATM   20  C22 UNL     1       8.948  41.192  22.751  1.00  0.00     0.003 C
HETATM   21  C23 UNL     1       7.482  41.242  22.689  1.00  0.00    -0.033 C
HETATM   22  C24 UNL     1       6.944  42.340  23.626  1.00  0.00     0.016 C
HETATM   23  C25 UNL     1       6.920  41.598  21.319  1.00  0.00     0.042 C
HETATM   24  C26 UNL     1       7.822  41.192  20.195  1.00  0.00     0.128 C
HETATM   25  C27 UNL     1       9.169  41.920  20.313  1.00  0.00    -0.010 C
HETATM   26  C28 UNL     1       8.819  43.279  19.671  1.00  0.00     0.018 C
HETATM   27  C29 UNL     1      10.072  41.233  19.334  1.00  0.00     0.019 C
HETATM   28  C30 UNL     1      11.505  41.563  19.404  1.00  0.00     0.011 C
HETATM   29  C31 UNL     1      11.979  42.450  18.244  1.00  0.00     0.012 C
HETATM   30  C32 UNL     1      11.989  42.174  20.661  1.00  0.00     0.122 C
HETATM   31  C33 UNL     1      11.162  41.835  21.865  1.00  0.00     0.042 C
HETATM   32  C34 UNL     1       9.665  42.039  21.688  1.00  0.00    -0.028 C
HETATM   33  C35 UNL     1       9.501  43.517  22.092  1.00  0.00     0.016 C
HETATM   34  O8  UNL     1       4.291  37.576  25.938  1.00  0.00    -0.286 OA
ENDROOT
BRANCH   1  35
HETATM   35  C3  UNL     1       5.669  36.046  27.002  1.00  0.00     0.294 C
HETATM   36  O2  UNL     1       4.836  35.188  27.402  1.00  0.00    -0.262 OA
BRANCH  35  37
HETATM   37  O1  UNL     1       6.934  35.591  26.731  1.00  0.00    -0.319 OA
BRANCH  37  38
HETATM   38  C2  UNL     1       7.941  35.347  27.687  1.00  0.00     0.174 C
HETATM   39  C1  UNL     1       8.975  34.439  27.018  1.00  0.00     0.034 C
ENDBRANCH  37  38
ENDBRANCH  35  37
ENDBRANCH   1  35
BRANCH  11  40
HETATM   40  O4  UNL     1       4.070  36.437  24.033  1.00  0.00    -0.319 OA
ATOM     41  H4  UNL     1       3.238  36.235  24.444  1.00  0.00     0.218 HD
ENDBRANCH  11  40
BRANCH  13  42
HETATM   42  C16 UNL     1       3.087  40.066  22.444  1.00  0.00     0.091 C
HETATM   43  N1  UNL     1       2.265  39.579  21.617  1.00  0.00    -0.409 N
ATOM     44  H12 UNL     1       2.418  38.629  21.278  1.00  0.00     0.155 HD
ATOM     45  H11 UNL     1       1.467  40.124  21.294  1.00  0.00     0.155 HD
ENDBRANCH  13  42
BRANCH  24  46
HETATM   46  O6  UNL     1       7.954  39.832  20.062  1.00  0.00    -0.395 OA
ATOM     47  H6  UNL     1       8.844  39.554  19.876  1.00  0.00     0.210 HD
ENDBRANCH  24  46
BRANCH  30  48
HETATM   48  O7  UNL     1      12.306  43.539  20.566  1.00  0.00    -0.395 OA
ATOM     49  H7  UNL     1      12.390  43.987  21.400  1.00  0.00     0.210 HD
ENDBRANCH  30  48
TORSDOF 7
ENDMDL