MODEL 3
REMARK VINA RESULT: -6.087038227      0.864      1.117
REMARK  2 active torsions:
REMARK  status: ('A' for Active; 'I' for Inactive)
REMARK    1  A    between atoms: C3_4  and  C4_5
REMARK    2  A    between atoms: C4_5  and  C5_6
ROOT
HETATM    1  C5  UNL     1      15.554 -17.455 -19.826  1.00  0.00     0.051 C
HETATM    2  C6  UNL     1      16.533 -18.017 -20.813  1.00  0.00     0.239 C
HETATM    3  N1  UNL     1      17.832 -17.689 -20.189  1.00  0.00    -0.072 N
ATOM      4  H11 UNL     1      18.664 -17.958 -20.716  1.00  0.00     0.277 HD
ATOM      5  H12 UNL     1      18.084 -18.235 -19.364  1.00  0.00     0.277 HD
HETATM    6  C7  UNL     1      17.642 -16.253 -19.977  1.00  0.00     0.271 C
HETATM    7  C8  UNL     1      16.271 -16.274 -19.280  1.00  0.00     0.154 C
HETATM    8  C9  UNL     1      16.592 -16.395 -17.802  1.00  0.00     0.043 C
HETATM    9  C10 UNL     1      16.419 -15.006 -17.247  1.00  0.00     0.030 C
HETATM   10  C11 UNL     1      15.371 -14.429 -18.183  1.00  0.00     0.233 C
HETATM   11  N2  UNL     1      15.683 -14.998 -19.476  1.00  0.00    -0.064 N
ATOM     12  H21 UNL     1      14.872 -15.033 -20.093  1.00  0.00     0.278 HD
ATOM     13  H22 UNL     1      16.266 -14.383 -20.043  1.00  0.00     0.278 HD
ENDROOT
BRANCH   1  14
HETATM   14  C4  UNL     1      14.165 -17.309 -20.236  1.00  0.00     0.040 C
BRANCH  14  15
HETATM   15  C3  UNL     1      13.293 -18.471 -20.457  1.00  0.00     0.121 C
HETATM   16  O1  UNL     1      12.078 -18.118 -19.795  1.00  0.00    -0.386 OA
HETATM   17  C2  UNL     1      11.327 -19.279 -19.861  1.00  0.00     0.168 C
HETATM   18  C1  UNL     1      12.298 -20.348 -19.410  1.00  0.00     0.029 C
HETATM   19  C12 UNL     1      13.639 -19.743 -19.771  1.00  0.00     0.034 C
ENDBRANCH  14  15
ENDBRANCH   1  14
TORSDOF 2
ENDMDL