MODEL 2
REMARK VINA RESULT: -6.484964963      2.245      4.356
REMARK  1 active torsions:
REMARK  status: ('A' for Active; 'I' for Inactive)
REMARK       I    between atoms: C2_5  and  N3_6
REMARK       I    between atoms: C2_5  and  N5_10
REMARK    1  A    between atoms: N5_10  and  C4_12
ROOT
HETATM    1  N1  UNL     1      14.607 -10.600 -22.088  1.00  0.00    -0.171 NA
HETATM    2  C1  UNL     1      15.733 -10.830 -21.945  1.00  0.00     0.196 C
HETATM    3  N2  UNL     1      17.107 -11.122 -21.749  1.00  0.00    -0.125 N
ATOM      4  H2  UNL     1      17.836 -10.424 -21.900  1.00  0.00     0.197 HD
HETATM    5  C2  UNL     1      17.375 -12.322 -21.370  1.00  0.00     0.696 C
HETATM    6  N3  UNL     1      18.731 -12.675 -21.158  1.00  0.00    -0.125 N
ATOM      7  H3  UNL     1      19.096 -12.650 -20.205  1.00  0.00     0.197 HD
HETATM    8  C3  UNL     1      19.594 -13.055 -22.189  1.00  0.00     0.196 C
HETATM    9  N4  UNL     1      20.326 -13.369 -23.042  1.00  0.00    -0.171 NA
HETATM   10  N5  UNL     1      16.401 -13.326 -21.145  1.00  0.00    -0.215 N
ATOM     11  H5  UNL     1      15.685 -13.499 -21.850  1.00  0.00     0.178 HD
ENDROOT
BRANCH  10  12
HETATM   12  C4  UNL     1      16.410 -14.072 -19.988  1.00  0.00     0.055 C
HETATM   13  C5  UNL     1      16.832 -13.384 -18.683  1.00  0.00     0.037 C
HETATM   14  C6  UNL     1      16.048 -14.533 -18.059  1.00  0.00    -0.005 C
HETATM   15  C7  UNL     1      16.902 -15.708 -18.440  1.00  0.00     0.012 C
HETATM   16  C11 UNL     1      15.111 -14.375 -19.261  1.00  0.00     0.019 C
HETATM   17  C8  UNL     1      16.991 -15.455 -19.957  1.00  0.00     0.015 C
HETATM   18  C9  UNL     1      15.864 -16.253 -20.564  1.00  0.00     0.007 C
HETATM   19  C10 UNL     1      14.679 -15.722 -19.745  1.00  0.00     0.008 C
ENDBRANCH  10  12
TORSDOF 1
ENDMDL