MODEL 1
REMARK VINA RESULT: -6.047860025      0.000      0.000
REMARK  4 active torsions:
REMARK  status: ('A' for Active; 'I' for Inactive)
REMARK    1  A    between atoms: O1_2  and  C2_3
REMARK    2  A    between atoms: C3_4  and  C4_5
REMARK    3  A    between atoms: C4_5  and  O2_6
REMARK    4  A    between atoms: C11_14  and  O3_16
ROOT
HETATM    1  C2  UNL     1      10.707 -17.287 -20.333  1.00  0.00     0.161 C
HETATM    2  C3  UNL     1      11.891 -18.140 -19.957  1.00  0.00     0.046 C
HETATM    3  C5  UNL     1      13.003 -17.538 -20.792  1.00  0.00     0.001 C
HETATM    4  C6  UNL     1      14.250 -17.615 -19.975  1.00  0.00     0.005 C
HETATM    5  C7  UNL     1      15.335 -16.677 -20.408  1.00  0.00     0.000 C
HETATM    6  C8  UNL     1      14.753 -15.287 -20.340  1.00  0.00     0.001 C
HETATM    7  C9  UNL     1      13.544 -15.101 -21.181  1.00  0.00     0.008 C
HETATM    8  C10 UNL     1      12.591 -16.210 -21.250  1.00  0.00     0.027 C
HETATM    9  C11 UNL     1      11.337 -15.913 -20.414  1.00  0.00     0.085 C
HETATM   10  C12 UNL     1      10.447 -14.920 -21.125  1.00  0.00     0.049 C
ENDROOT
BRANCH   2  11
HETATM   11  C4  UNL     1      11.689 -19.595 -20.286  1.00  0.00     0.171 C
BRANCH  11  12
HETATM   12  O2  UNL     1      10.934 -20.164 -19.264  1.00  0.00    -0.400 OA
ATOM     13  H2  UNL     1      10.794 -21.079 -19.479  1.00  0.00     0.209 HD
ENDBRANCH  11  12
ENDBRANCH   2  11
BRANCH   1  14
HETATM   14  O1  UNL     1       9.714 -17.298 -19.379  1.00  0.00    -0.387 OA
HETATM   15  C1  UNL     1       8.462 -17.604 -19.914  1.00  0.00     0.202 C
ENDBRANCH   1  14
BRANCH   9  16
HETATM   16  O3  UNL     1      11.759 -15.467 -19.188  1.00  0.00    -0.387 OA
ATOM     17  H3  UNL     1      12.383 -14.754 -19.263  1.00  0.00     0.210 HD
ENDBRANCH   9  16
TORSDOF 4
ENDMDL