MODEL 2
REMARK VINA RESULT: -5.576005551      1.773      3.893
REMARK  4 active torsions:
REMARK  status: ('A' for Active; 'I' for Inactive)
REMARK    1  A    between atoms: O1_2  and  C2_3
REMARK    2  A    between atoms: C4_5  and  O2_6
REMARK    3  A    between atoms: C5_8  and  C6_9
REMARK    4  A    between atoms: C9_12  and  O3_13
ROOT
HETATM    1  C2  UNL     1      17.742 -14.343 -21.010  1.00  0.00     0.133 C
HETATM    2  C3  UNL     1      18.366 -15.667 -20.681  1.00  0.00     0.065 C
HETATM    3  C4  UNL     1      17.409 -16.657 -20.082  1.00  0.00     0.127 C
HETATM    4  C5  UNL     1      15.961 -16.358 -20.466  1.00  0.00     0.048 C
HETATM    5  C9  UNL     1      15.641 -15.031 -19.805  1.00  0.00     0.135 C
HETATM    6  C10 UNL     1      16.610 -13.950 -20.139  1.00  0.00     0.005 C
HETATM    7  C11 UNL     1      15.812 -12.853 -20.858  1.00  0.00     0.020 C
HETATM    8  C12 UNL     1      17.091 -13.317 -18.842  1.00  0.00     0.020 C
ENDROOT
BRANCH   4   9
HETATM    9  C6  UNL     1      15.115 -17.405 -19.768  1.00  0.00    -0.006 A
HETATM   10  C7  UNL     1      13.937 -17.985 -20.458  1.00  0.00     0.005 A
HETATM   11  C8  UNL     1      15.181 -18.827 -20.132  1.00  0.00     0.005 A
ENDBRANCH   4   9
BRANCH   3  12
HETATM   12  O2  UNL     1      17.492 -16.714 -18.692  1.00  0.00    -0.395 OA
ATOM     13  H2  UNL     1      17.480 -17.604 -18.360  1.00  0.00     0.210 HD
ENDBRANCH   3  12
BRANCH   5  14
HETATM   14  O3  UNL     1      14.324 -14.699 -20.111  1.00  0.00    -0.394 OA
ATOM     15  H3  UNL     1      14.037 -14.027 -19.503  1.00  0.00     0.210 HD
ENDBRANCH   5  14
BRANCH   1  16
HETATM   16  O1  UNL     1      17.372 -14.223 -22.334  1.00  0.00    -0.390 OA
HETATM   17  C1  UNL     1      18.440 -14.129 -23.208  1.00  0.00     0.202 C
ENDBRANCH   1  16
TORSDOF 4
ENDMDL