MODEL 3
REMARK VINA RESULT: -6.258829455      2.903      5.390
REMARK  3 active torsions:
REMARK  status: ('A' for Active; 'I' for Inactive)
REMARK    1  A    between atoms: N1_1  and  C1_5
REMARK    2  A    between atoms: C3_7  and  N2_8
REMARK    3  A    between atoms: C10_15  and  C11_16
ROOT
HETATM    1  C1  UNL     1      14.423 -19.749 -19.528  1.00  0.00     0.199 C
HETATM    2  C2  UNL     1      15.589 -18.981 -20.055  1.00  0.00     0.058 C
HETATM    3  C3  UNL     1      15.059 -17.621 -20.447  1.00  0.00     0.082 C
HETATM    4  C9  UNL     1      13.557 -17.752 -20.460  1.00  0.00     0.042 C
HETATM    5  C10 UNL     1      13.253 -19.221 -20.291  1.00  0.00     0.119 C
ENDROOT
BRANCH   3   6
HETATM    6  N2  UNL     1      15.568 -16.589 -19.661  1.00  0.00    -0.408 N
HETATM    7  C4  UNL     1      16.735 -16.755 -18.908  1.00  0.00     0.117 C
HETATM    8  C5  UNL     1      16.565 -16.042 -17.554  1.00  0.00     0.019 C
HETATM    9  C6  UNL     1      16.302 -14.583 -17.731  1.00  0.00     0.003 C
HETATM   10  C7  UNL     1      15.761 -14.290 -19.126  1.00  0.00     0.019 C
HETATM   11  C8  UNL     1      14.786 -15.435 -19.423  1.00  0.00     0.117 C
ENDBRANCH   3   6
BRANCH   1  12
HETATM   12  N1  UNL     1      14.625 -21.178 -19.694  1.00  0.00    -0.074 N
ATOM     13  H13 UNL     1      14.889 -21.625 -18.816  1.00  0.00     0.274 HD
ATOM     14  H12 UNL     1      13.745 -21.667 -19.857  1.00  0.00     0.274 HD
ATOM     15  H11 UNL     1      15.304 -21.367 -20.431  1.00  0.00     0.274 HD
ENDBRANCH   1  12
BRANCH   5  16
HETATM   16  C11 UNL     1      11.986 -19.354 -19.541  1.00  0.00     0.179 C
HETATM   17  O1  UNL     1      11.638 -20.431 -19.011  1.00  0.00    -0.648 OA
HETATM   18  O2  UNL     1      11.169 -18.236 -19.440  1.00  0.00    -0.648 OA
ENDBRANCH   5  16
TORSDOF 3
ENDMDL