MODEL 4
REMARK VINA RESULT: -5.510010367      2.264      3.754
REMARK  4 active torsions:
REMARK  status: ('A' for Active; 'I' for Inactive)
REMARK    1  A    between atoms: C2_2  and  C3_3
REMARK    2  A    between atoms: C3_3  and  N1_4
REMARK    3  A    between atoms: C10_11  and  O1_12
REMARK    4  A    between atoms: C11_14  and  O2_15
ROOT
HETATM    1  C3  UNL     1      17.489 -14.244 -21.410  1.00  0.00     0.054 C
HETATM    2  C9  UNL     1      18.024 -12.906 -21.039  1.00  0.00     0.069 C
HETATM    3  C10 UNL     1      19.264 -12.713 -21.889  1.00  0.00     0.149 C
HETATM    4  C11 UNL     1      18.688 -13.229 -23.226  1.00  0.00     0.149 C
HETATM    5  C12 UNL     1      18.239 -14.595 -22.710  1.00  0.00     0.069 C
ENDROOT
BRANCH   1   6
HETATM    6  C2  UNL     1      16.078 -14.025 -21.845  1.00  0.00    -0.006 C
HETATM    7  C1  UNL     1      15.341 -12.999 -21.516  1.00  0.00     0.009 C
ENDBRANCH   1   6
BRANCH   1   8
HETATM    8  N1  UNL     1      17.648 -15.297 -20.538  1.00  0.00    -0.376 N
HETATM    9  C4  UNL     1      17.115 -15.337 -19.251  1.00  0.00     0.060 C
HETATM   10  C5  UNL     1      16.349 -16.627 -19.050  1.00  0.00     0.046 C
HETATM   11  C6  UNL     1      16.391 -17.243 -20.429  1.00  0.00     0.030 C
HETATM   12  C7  UNL     1      17.680 -16.637 -20.987  1.00  0.00     0.081 C
HETATM   13  C8  UNL     1      18.799 -17.444 -20.295  1.00  0.00     0.032 C
ENDBRANCH   1   8
BRANCH   3  14
HETATM   14  O1  UNL     1      20.265 -13.607 -21.559  1.00  0.00    -0.393 OA
ATOM     15  H1  UNL     1      19.993 -14.510 -21.677  1.00  0.00     0.210 HD
ENDBRANCH   3  14
BRANCH   4  16
HETATM   16  O2  UNL     1      19.652 -13.328 -24.198  1.00  0.00    -0.393 OA
ATOM     17  H2  UNL     1      19.350 -13.821 -24.951  1.00  0.00     0.210 HD
ENDBRANCH   4  16
TORSDOF 4
ENDMDL