MODEL 2
REMARK VINA RESULT: -6.077311764      1.227      2.101
REMARK  3 active torsions:
REMARK  status: ('A' for Active; 'I' for Inactive)
REMARK    1  A    between atoms: N1_1  and  C1_5
REMARK    2  A    between atoms: C2_6  and  C3_7
REMARK    3  A    between atoms: C6_12  and  N2_13
ROOT
HETATM    1  C1  UNL     1      15.253 -17.402 -19.907  1.00  0.00     0.230 C
HETATM    2  C2  UNL     1      15.552 -16.271 -18.936  1.00  0.00     0.119 C
HETATM    3  C4  UNL     1      15.723 -15.120 -19.930  1.00  0.00     0.020 C
HETATM    4  C5  UNL     1      14.378 -15.260 -20.659  1.00  0.00     0.039 C
HETATM    5  C6  UNL     1      14.285 -16.749 -20.862  1.00  0.00     0.254 C
ENDROOT
BRANCH   5   6
HETATM    6  N2  UNL     1      12.939 -17.212 -20.759  1.00  0.00     0.095 N
HETATM    7  C7  UNL     1      12.102 -16.215 -20.129  1.00  0.00     0.273 C
HETATM    8  C8  UNL     1      10.666 -16.643 -20.353  1.00  0.00     0.030 C
HETATM    9  C9  UNL     1      10.432 -17.934 -19.642  1.00  0.00     0.003 C
HETATM   10  C10 UNL     1      11.475 -18.974 -19.890  1.00  0.00     0.030 C
HETATM   11  C11 UNL     1      12.873 -18.410 -19.982  1.00  0.00     0.273 C
ENDBRANCH   5   6
BRANCH   1  12
HETATM   12  N1  UNL     1      16.462 -17.720 -20.642  1.00  0.00    -0.072 N
ATOM     13  H13 UNL     1      17.241 -17.957 -20.027  1.00  0.00     0.274 HD
ATOM     14  H12 UNL     1      16.396 -18.609 -21.135  1.00  0.00     0.274 HD
ATOM     15  H11 UNL     1      16.681 -16.944 -21.266  1.00  0.00     0.274 HD
ENDBRANCH   1  12
BRANCH   2  16
HETATM   16  C3  UNL     1      16.708 -16.501 -18.086  1.00  0.00     0.179 C
HETATM   17  O1  UNL     1      17.260 -17.614 -17.977  1.00  0.00    -0.648 OA
HETATM   18  O2  UNL     1      17.230 -15.441 -17.361  1.00  0.00    -0.648 OA
ENDBRANCH   2  16
TORSDOF 3
ENDMDL