MODEL 4
REMARK VINA RESULT: -5.564950545      2.755      3.181
REMARK  3 active torsions:
REMARK  status: ('A' for Active; 'I' for Inactive)
REMARK    1  A    between atoms: O1_1  and  C1_3
REMARK    2  A    between atoms: C1_3  and  C2_4
REMARK    3  A    between atoms: C2_4  and  C3_5
ROOT
HETATM    1  C1  UNL     1      13.704 -15.805 -20.493  1.00  0.00     0.092 C
HETATM    2  C7  UNL     1      14.194 -14.919 -21.624  1.00  0.00     0.070 C
HETATM    3  C8  UNL     1      14.379 -13.587 -20.979  1.00  0.00     0.276 C
HETATM    4  N2  UNL     1      14.110 -13.764 -19.551  1.00  0.00     0.096 N
HETATM    5  C9  UNL     1      13.481 -12.554 -19.093  1.00  0.00     0.273 C
HETATM    6  C10 UNL     1      12.092 -12.645 -19.635  1.00  0.00     0.032 C
HETATM    7  C11 UNL     1      11.918 -14.068 -20.166  1.00  0.00     0.041 C
HETATM    8  C12 UNL     1      13.086 -14.791 -19.563  1.00  0.00     0.257 C
ENDROOT
BRANCH   1   9
HETATM    9  O1  UNL     1      14.729 -16.425 -19.829  1.00  0.00    -0.388 OA
ATOM     10  H1  UNL     1      14.427 -16.934 -19.086  1.00  0.00     0.210 HD
ENDBRANCH   1   9
BRANCH   1  11
HETATM   11  C2  UNL     1      12.725 -16.771 -21.062  1.00  0.00     0.073 C
BRANCH  11  12
HETATM   12  C3  UNL     1      12.636 -17.956 -20.158  1.00  0.00     0.189 C
HETATM   13  C4  UNL     1      11.265 -18.479 -19.907  1.00  0.00     0.034 C
HETATM   14  C5  UNL     1      11.470 -19.964 -19.592  1.00  0.00     0.029 C
HETATM   15  C6  UNL     1      12.977 -20.067 -19.570  1.00  0.00     0.233 C
HETATM   16  N1  UNL     1      13.344 -19.128 -20.643  1.00  0.00    -0.071 N
ATOM     17  H12 UNL     1      13.132 -19.424 -21.596  1.00  0.00     0.277 HD
ATOM     18  H11 UNL     1      14.341 -19.013 -20.824  1.00  0.00     0.277 HD
ENDBRANCH  11  12
ENDBRANCH   1  11
TORSDOF 3
ENDMDL