MODEL 3
REMARK VINA RESULT: -5.418518546      2.747      4.740
REMARK  3 active torsions:
REMARK  status: ('A' for Active; 'I' for Inactive)
REMARK    1  A    between atoms: C2_2  and  C4_4
REMARK    2  A    between atoms: C4_4  and  N1_5
REMARK    3  A    between atoms: C8_13  and  O2_14
ROOT
HETATM    1  C4  UNL     1      17.331 -11.699 -22.433  1.00  0.00     0.195 C
HETATM    2  C5  UNL     1      16.250 -12.687 -22.855  1.00  0.00     0.068 C
HETATM    3  C6  UNL     1      16.934 -13.590 -23.871  1.00  0.00     0.039 C
HETATM    4  C7  UNL     1      18.237 -14.124 -23.367  1.00  0.00     0.172 C
HETATM    5  O1  UNL     1      18.977 -13.336 -22.587  1.00  0.00    -0.349 OA
HETATM    6  C8  UNL     1      18.340 -12.480 -21.704  1.00  0.00     0.231 C
HETATM    7  C9  UNL     1      17.826 -13.296 -20.561  1.00  0.00     0.133 C
HETATM    8  N2  UNL     1      16.484 -13.681 -20.601  1.00  0.00    -0.372 N
HETATM    9  C10 UNL     1      16.269 -14.905 -19.881  1.00  0.00     0.154 C
HETATM   10  C11 UNL     1      15.735 -13.542 -21.767  1.00  0.00     0.070 C
ENDROOT
BRANCH   1  11
HETATM   11  C2  UNL     1      16.822 -10.448 -21.865  1.00  0.00     0.020 C
HETATM   12  C1  UNL     1      15.306 -10.375 -21.925  1.00  0.00     0.012 C
HETATM   13  C3  UNL     1      17.330  -9.154 -22.381  1.00  0.00     0.012 C
ENDBRANCH   1  11
BRANCH   1  14
HETATM   14  N1  UNL     1      17.976 -11.332 -23.716  1.00  0.00    -0.064 N
ATOM     15  H13 UNL     1      17.415 -10.699 -24.287  1.00  0.00     0.275 HD
ATOM     16  H12 UNL     1      18.782 -10.716 -23.605  1.00  0.00     0.275 HD
ATOM     17  H11 UNL     1      18.196 -12.212 -24.181  1.00  0.00     0.275 HD
ENDBRANCH   1  14
BRANCH   6  18
HETATM   18  O2  UNL     1      19.365 -11.647 -21.249  1.00  0.00    -0.359 OA
ATOM     19  H2  UNL     1      19.858 -11.298 -21.982  1.00  0.00     0.213 HD
ENDBRANCH   6  18
TORSDOF 3
ENDMDL