MODEL 3
REMARK VINA RESULT: -5.182347154      2.986      4.766
REMARK  4 active torsions:
REMARK  status: ('A' for Active; 'I' for Inactive)
REMARK    1  A    between atoms: C2_2  and  O1_4
REMARK    2  A    between atoms: C2_2  and  C4_6
REMARK    3  A    between atoms: C10_13  and  C11_14
REMARK    4  A    between atoms: C11_14  and  O2_15
ROOT
HETATM    1  C4  UNL     1      16.289 -17.290 -18.979  1.00  0.00     0.053 C
HETATM    2  C5  UNL     1      17.368 -18.317 -18.634  1.00  0.00     0.011 C
HETATM    3  C6  UNL     1      18.434 -18.379 -19.688  1.00  0.00     0.031 C
HETATM    4  C7  UNL     1      18.876 -17.080 -20.249  1.00  0.00     0.273 C
HETATM    5  N1  UNL     1      17.765 -16.211 -20.532  1.00  0.00     0.094 N
HETATM    6  C8  UNL     1      18.185 -14.845 -20.784  1.00  0.00     0.273 C
HETATM    7  C9  UNL     1      16.917 -14.063 -20.513  1.00  0.00     0.039 C
HETATM    8  C10 UNL     1      16.349 -14.753 -19.286  1.00  0.00     0.045 C
HETATM    9  C12 UNL     1      17.036 -16.039 -19.267  1.00  0.00     0.236 C
ENDROOT
BRANCH   1  10
HETATM   10  C2  UNL     1      15.390 -17.791 -20.064  1.00  0.00     0.056 C
HETATM   11  C1  UNL     1      15.070 -19.270 -19.930  1.00  0.00     0.045 C
HETATM   12  C3  UNL     1      14.039 -17.113 -20.078  1.00  0.00     0.045 C
BRANCH  10  13
HETATM   13  O1  UNL     1      15.961 -17.648 -21.325  1.00  0.00    -0.390 OA
ATOM     14  H1  UNL     1      15.975 -16.712 -21.492  1.00  0.00     0.210 HD
ENDBRANCH  10  13
ENDBRANCH   1  10
BRANCH   8  15
HETATM   15  C11 UNL     1      16.846 -13.890 -18.103  1.00  0.00     0.170 C
BRANCH  15  16
HETATM   16  O2  UNL     1      16.690 -12.544 -18.413  1.00  0.00    -0.400 OA
ATOM     17  H2  UNL     1      16.813 -12.417 -19.345  1.00  0.00     0.209 HD
ENDBRANCH  15  16
ENDBRANCH   8  15
TORSDOF 4
ENDMDL