MODEL 3
REMARK VINA RESULT: -5.295708458      1.826      5.649
REMARK  4 active torsions:
REMARK  status: ('A' for Active; 'I' for Inactive)
REMARK    1  A    between atoms: N1_2  and  C2_4
REMARK    2  A    between atoms: C8_13  and  N3_14
REMARK    3  A    between atoms: N3_14  and  C9_16
REMARK    4  A    between atoms: C9_16  and  C10_17
ROOT
HETATM    1  C2  UNL     1      -2.126  -1.912   3.355  1.00  0.00     0.145 A
HETATM    2  N2  UNL     1      -1.246  -1.098   2.781  1.00  0.00    -0.336 N
ATOM      3  H2  UNL     1      -1.170  -1.042   1.765  1.00  0.00     0.168 HD
HETATM    4  C3  UNL     1      -0.475  -0.365   3.559  1.00  0.00     0.054 A
HETATM    5  C4  UNL     1       0.514   0.553   3.148  1.00  0.00     0.041 A
HETATM    6  C5  UNL     1       1.242   1.247   4.066  1.00  0.00    -0.019 A
HETATM    7  C6  UNL     1       2.301   2.232   3.635  1.00  0.00     0.051 C
HETATM    8  C7  UNL     1       1.089   1.125   5.431  1.00  0.00     0.150 A
HETATM    9  F1  UNL     1       1.815   1.818   6.317  1.00  0.00    -0.203 F
HETATM   10  C8  UNL     1       0.122   0.228   5.844  1.00  0.00     0.087 A
HETATM   11  C13 UNL     1      -0.632  -0.491   4.909  1.00  0.00     0.064 A
HETATM   12  S1  UNL     1      -1.875  -1.653   5.020  1.00  0.00    -0.050 SA
ENDROOT
BRANCH  10  13
HETATM   13  N3  UNL     1      -0.156  -0.014   7.206  1.00  0.00    -0.386 N
ATOM     14  H3  UNL     1       0.218  -0.849   7.658  1.00  0.00     0.159 HD
BRANCH  13  15
HETATM   15  C9  UNL     1      -0.968   0.913   7.969  1.00  0.00     0.123 C
BRANCH  15  16
HETATM   16  C10 UNL     1      -0.187   1.310   9.195  1.00  0.00    -0.005 C
HETATM   17  C11 UNL     1       1.060   0.495   9.303  1.00  0.00     0.011 C
HETATM   18  C12 UNL     1       0.091   2.799   9.177  1.00  0.00     0.011 C
ENDBRANCH  15  16
ENDBRANCH  13  15
ENDBRANCH  10  13
BRANCH   1  19
HETATM   19  N1  UNL     1      -2.978  -2.718   2.766  1.00  0.00    -0.375 N
HETATM   20  C1  UNL     1      -3.833  -2.164   1.703  1.00  0.00     0.148 C
ATOM     21  H1  UNL     1      -3.047  -3.699   3.036  1.00  0.00     0.161 HD
ENDBRANCH   1  19
TORSDOF 4
ENDMDL