MODEL 4
REMARK VINA RESULT: -6.715773488      2.008      3.259
REMARK  5 active torsions:
REMARK  status: ('A' for Active; 'I' for Inactive)
REMARK    1  A    between atoms: O1_2  and  C2_3
REMARK    2  A    between atoms: N1_6  and  C5_7
REMARK    3  A    between atoms: C5_7  and  C6_8
REMARK    4  A    between atoms: C6_8  and  C7_9
REMARK    5  A    between atoms: C15_17  and  O2_18
ROOT
HETATM    1  C5  UNL     1      -0.060  -0.442   5.042  1.00  0.00     0.135 C
ENDROOT
BRANCH   1   2
HETATM    2  N1  UNL     1      -1.009  -1.123   4.188  1.00  0.00    -0.335 N
HETATM    3  C4  UNL     1      -2.005  -1.907   4.629  1.00  0.00     0.096 A
HETATM    4  C3  UNL     1      -2.718  -2.397   3.555  1.00  0.00     0.058 A
HETATM    5  C2  UNL     1      -2.153  -1.906   2.415  1.00  0.00     0.120 A
HETATM    6  C15 UNL     1      -1.087  -1.116   2.867  1.00  0.00     0.176 A
BRANCH   5   7
HETATM    7  O1  UNL     1      -2.538  -2.134   1.118  1.00  0.00    -0.352 OA
HETATM    8  C1  UNL     1      -3.912  -2.330   0.846  1.00  0.00     0.210 C
ENDBRANCH   5   7
BRANCH   6   9
HETATM    9  O2  UNL     1      -0.215  -0.408   2.043  1.00  0.00    -0.344 OA
ATOM     10  H2  UNL     1       0.712  -0.284   2.211  1.00  0.00     0.219 HD
ENDBRANCH   6   9
ENDBRANCH   1   2
BRANCH   1  11
HETATM   11  C6  UNL     1       0.358  -1.429   6.126  1.00  0.00     0.054 C
BRANCH  11  12
HETATM   12  C7  UNL     1       0.183  -0.890   7.472  1.00  0.00    -0.082 C
HETATM   13  C8  UNL     1      -0.988  -0.387   7.836  1.00  0.00    -0.023 C
HETATM   14  C9  UNL     1      -1.171   0.161   9.201  1.00  0.00     0.036 C
HETATM   15  C10 UNL     1       0.048   0.807   9.778  1.00  0.00    -0.044 C
HETATM   16  C11 UNL     1      -0.069   2.335   9.721  1.00  0.00     0.015 C
HETATM   17  C12 UNL     1       0.074   0.449  11.271  1.00  0.00     0.015 C
HETATM   18  C13 UNL     1       1.331   0.445   9.108  1.00  0.00     0.013 C
HETATM   19  C14 UNL     1       1.320  -0.906   8.432  1.00  0.00     0.034 C
ENDBRANCH  11  12
ENDBRANCH   1  11
TORSDOF 5
ENDMDL