MODEL 2
REMARK VINA RESULT: -6.107847337      2.345      3.797
REMARK  3 active torsions:
REMARK  status: ('A' for Active; 'I' for Inactive)
REMARK    1  A    between atoms: C2_2  and  C3_3
REMARK    2  A    between atoms: C3_3  and  C9_13
REMARK    3  A    between atoms: N1_4  and  N2_6
ROOT
HETATM    1  C3  UNL     1      -0.636  -0.797   4.713  1.00  0.00     0.039 C
HETATM    2  N1  UNL     1      -0.494  -1.334   5.828  1.00  0.00    -0.304 N
ATOM      3  H1  UNL     1      -1.183  -2.040   6.087  1.00  0.00     0.186 HD
ENDROOT
BRANCH   1   4
HETATM    4  C2  UNL     1      -1.817  -1.270   3.897  1.00  0.00     0.055 C
HETATM    5  C1  UNL     1      -1.378  -2.409   2.986  1.00  0.00     0.011 C
ENDBRANCH   1   4
BRANCH   1   6
HETATM    6  C9  UNL     1       0.255   0.222   4.189  1.00  0.00     0.032 A
HETATM    7  C10 UNL     1       1.457   0.158   3.541  1.00  0.00     0.059 A
HETATM    8  C11 UNL     1       1.915   1.427   3.239  1.00  0.00     0.105 A
HETATM    9 CL1  UNL     1       3.397   1.880   2.415  1.00  0.00    -0.064 Cl
HETATM   10  N3  UNL     1       0.993   2.275   3.700  1.00  0.00    -0.335 N
HETATM   11  C12 UNL     1      -0.015   1.599   4.275  1.00  0.00     0.129 A
ATOM     12  H3  UNL     1       1.047   3.291   3.626  1.00  0.00     0.168 HD
HETATM   13  N4  UNL     1      -1.155   2.216   4.866  1.00  0.00    -0.082 NA
ENDBRANCH   1   6
BRANCH   2  14
HETATM   14  N2  UNL     1       0.486  -1.075   6.738  1.00  0.00    -0.309 N
HETATM   15  C4  UNL     1       0.290  -0.321   7.742  1.00  0.00     0.004 C
HETATM   16  C5  UNL     1      -0.987   0.366   8.068  1.00  0.00     0.054 C
HETATM   17  C8  UNL     1       1.318  -0.003   8.765  1.00  0.00     0.054 C
HETATM   18  C6  UNL     1      -0.515   1.436   9.060  1.00  0.00     0.006 C
HETATM   19  C7  UNL     1       0.501   0.616   9.864  1.00  0.00     0.006 C
ATOM     20  H2  UNL     1       1.405  -1.498   6.609  1.00  0.00     0.186 HD
ENDBRANCH   2  14
TORSDOF 3
ENDMDL