MODEL 2
REMARK VINA RESULT: -6.295355722      2.134      3.439
REMARK  5 active torsions:
REMARK  status: ('A' for Active; 'I' for Inactive)
REMARK    1  A    between atoms: C2_2  and  O1_3
REMARK    2  A    between atoms: O1_3  and  C3_4
REMARK    3  A    between atoms: C3_4  and  C4_6
REMARK    4  A    between atoms: C6_8  and  C7_9
REMARK    5  A    between atoms: C13_15  and  O3_16
ROOT
HETATM    1  C4  UNL     1      -0.384  -0.472   4.565  1.00  0.00     0.112 A
HETATM    2  C5  UNL     1      -0.410  -1.309   5.674  1.00  0.00     0.048 A
HETATM    3  C6  UNL     1       0.218  -0.627   6.712  1.00  0.00    -0.001 A
HETATM    4  C13 UNL     1       0.579   0.560   6.171  1.00  0.00     0.149 A
HETATM    5  N1  UNL     1       0.241   0.697   4.878  1.00  0.00    -0.327 N
HETATM    6  C14 UNL     1       0.511   1.794   4.013  1.00  0.00     0.159 C
ENDROOT
BRANCH   3   7
HETATM    7  C7  UNL     1       0.254  -1.047   8.116  1.00  0.00     0.023 C
HETATM    8  C8  UNL     1      -0.443  -2.372   8.386  1.00  0.00     0.009 C
HETATM    9  C9  UNL     1      -0.024  -2.764   9.807  1.00  0.00     0.001 C
HETATM   10  C10 UNL     1      -0.491  -1.773  10.831  1.00  0.00     0.000 C
HETATM   11  C11 UNL     1      -0.588  -0.378  10.351  1.00  0.00     0.001 C
HETATM   12  C12 UNL     1      -0.702  -0.074   8.919  1.00  0.00     0.009 C
ENDBRANCH   3   7
BRANCH   4  13
HETATM   13  O3  UNL     1       1.246   1.534   6.914  1.00  0.00    -0.346 OA
ATOM     14  H3  UNL     1       1.810   2.178   6.502  1.00  0.00     0.219 HD
ENDBRANCH   4  13
BRANCH   1  15
HETATM   15  C3  UNL     1      -1.050  -0.610   3.275  1.00  0.00     0.310 C
HETATM   16  O2  UNL     1      -0.305  -0.638   2.231  1.00  0.00    -0.258 OA
BRANCH  15  17
HETATM   17  O1  UNL     1      -2.404  -0.708   3.146  1.00  0.00    -0.317 OA
BRANCH  17  18
HETATM   18  C2  UNL     1      -3.015  -1.888   2.694  1.00  0.00     0.175 C
HETATM   19  C1  UNL     1      -3.373  -2.791   3.905  1.00  0.00     0.034 C
ENDBRANCH  17  18
ENDBRANCH  15  17
ENDBRANCH   1  15
TORSDOF 5
ENDMDL