MODEL 1
REMARK VINA RESULT: -6.940352757      0.000      0.000
REMARK  3 active torsions:
REMARK  status: ('A' for Active; 'I' for Inactive)
REMARK    1  A    between atoms: C4_4  and  C5_5
REMARK    2  A    between atoms: C5_5  and  C6_6
REMARK    3  A    between atoms: C6_6  and  C7_7
ROOT
HETATM    1  C7  UNL     1      -4.015  -2.130   1.664  1.00  0.00     0.124 C
HETATM    2  C8  UNL     1      -4.983  -1.111   1.228  1.00  0.00     0.059 C
HETATM    3  N1  UNL     1      -5.734  -0.298   0.880  1.00  0.00    -0.197 NA
ENDROOT
BRANCH   1   4
HETATM    4  C6  UNL     1      -3.188  -1.508   2.756  1.00  0.00     0.019 C
BRANCH   4   5
HETATM    5  C5  UNL     1      -1.780  -2.018   2.791  1.00  0.00     0.043 C
BRANCH   5   6
HETATM    6  C4  UNL     1      -0.989  -1.114   3.678  1.00  0.00    -0.017 A
HETATM    7  C3  UNL     1      -0.146  -0.167   3.124  1.00  0.00     0.020 A
HETATM    8  C2  UNL     1       0.591   0.669   3.931  1.00  0.00    -0.026 A
HETATM    9  C1  UNL     1       1.514   1.708   3.404  1.00  0.00     0.051 C
HETATM   10  C11 UNL     1       0.451   0.518   5.305  1.00  0.00     0.104 A
HETATM   11  C10 UNL     1      -0.390  -0.427   5.853  1.00  0.00     0.102 A
HETATM   12  O1  UNL     1       1.167   1.331   6.194  1.00  0.00    -0.346 OA
HETATM   13  C9  UNL     1      -1.124  -1.261   5.036  1.00  0.00     0.151 A
HETATM   14  N2  UNL     1      -0.504  -0.548   7.259  1.00  0.00    -0.374 N
HETATM   15  F1  UNL     1      -1.939  -2.178   5.608  1.00  0.00    -0.203 F
HETATM   16  C13 UNL     1       0.194   0.327   8.176  1.00  0.00     0.045 C
ATOM     17  H2  UNL     1      -1.103  -1.281   7.640  1.00  0.00     0.160 HD
HETATM   18  C12 UNL     1       0.685   1.583   7.503  1.00  0.00     0.206 C
HETATM   19  C14 UNL     1       1.369  -0.415   8.769  1.00  0.00     0.040 C
HETATM   20  C15 UNL     1      -0.770   0.681   9.286  1.00  0.00     0.040 C
ENDBRANCH   5   6
ENDBRANCH   4   5
ENDBRANCH   1   4
TORSDOF 3
ENDMDL