MODEL 1
REMARK VINA RESULT: -7.305052879      0.000      0.000
REMARK  5 active torsions:
REMARK  status: ('A' for Active; 'I' for Inactive)
REMARK    1  A    between atoms: C3_4  and  O1_5
REMARK    2  A    between atoms: C4_7  and  O2_8
REMARK    3  A    between atoms: C6_11  and  C7_12
REMARK    4  A    between atoms: C7_12  and  C8_13
REMARK    5  A    between atoms: C8_13  and  C9_14
ROOT
HETATM    1  N1  UNL     1       1.751   2.762   3.049  1.00  0.00    -0.191 NA
HETATM    2  C1  UNL     1       1.278   1.832   3.557  1.00  0.00     0.105 C
HETATM    3  C2  UNL     1       0.697   0.672   4.180  1.00  0.00     0.119 A
HETATM    4  C3  UNL     1       0.042  -0.222   3.355  1.00  0.00     0.122 A
HETATM    5  C4  UNL     1      -0.517  -1.341   3.952  1.00  0.00     0.101 A
HETATM    6  C5  UNL     1      -0.421  -1.547   5.317  1.00  0.00     0.049 A
HETATM    7  C6  UNL     1       0.231  -0.657   6.144  1.00  0.00    -0.015 A
HETATM    8  C15 UNL     1       0.788   0.457   5.543  1.00  0.00     0.146 A
HETATM    9  F1  UNL     1       1.450   1.377   6.318  1.00  0.00    -0.204 F
ENDROOT
BRANCH   4  10
HETATM   10  O1  UNL     1      -0.050  -0.005   1.977  1.00  0.00    -0.356 OA
ATOM     11  H1  UNL     1       0.669  -0.219   1.395  1.00  0.00     0.218 HD
ENDBRANCH   4  10
BRANCH   5  12
HETATM   12  O2  UNL     1      -1.170  -2.226   3.105  1.00  0.00    -0.358 OA
ATOM     13  H2  UNL     1      -0.645  -2.935   2.752  1.00  0.00     0.217 HD
ENDBRANCH   5  12
BRANCH   7  14
HETATM   14  C7  UNL     1       0.348  -0.846   7.620  1.00  0.00     0.042 C
BRANCH  14  15
HETATM   15  C8  UNL     1      -0.982  -0.820   8.300  1.00  0.00     0.009 C
BRANCH  15  16
HETATM   16  C9  UNL     1      -1.195   0.366   9.218  1.00  0.00    -0.014 C
HETATM   17  C10 UNL     1      -0.105   0.505  10.179  1.00  0.00     0.004 C
HETATM   18  C11 UNL     1       0.900   1.588   9.895  1.00  0.00     0.000 C
HETATM   19  C12 UNL     1       0.146   2.881   9.607  1.00  0.00     0.000 C
HETATM   20  C13 UNL     1      -0.557   2.634   8.304  1.00  0.00     0.000 C
HETATM   21  C14 UNL     1      -1.552   1.533   8.377  1.00  0.00     0.004 C
ENDBRANCH  15  16
ENDBRANCH  14  15
ENDBRANCH   7  14
TORSDOF 5
ENDMDL