MODEL 1
REMARK VINA RESULT: -7.088417325      0.000      0.000
REMARK  3 active torsions:
REMARK  status: ('A' for Active; 'I' for Inactive)
REMARK    1  A    between atoms: C3_4  and  C4_5
REMARK    2  A    between atoms: C10_13  and  C11_14
REMARK    3  A    between atoms: C11_14  and  C12_15
ROOT
HETATM    1  N1  UNL     1      -0.182  -0.448   2.674  1.00  0.00    -0.101 NA
HETATM    2  C1  UNL     1       0.071  -0.067   4.054  1.00  0.00     0.061 A
HETATM    3  C2  UNL     1      -0.281  -0.805   5.110  1.00  0.00     0.042 A
HETATM    4  C3  UNL     1       0.017  -0.325   6.353  1.00  0.00    -0.008 A
HETATM    5  S1  UNL     1       0.787   1.153   6.014  1.00  0.00    -0.096 SA
HETATM    6  C10 UNL     1       0.709   1.121   4.296  1.00  0.00     0.017 A
ENDROOT
BRANCH   4   7
HETATM    7  C4  UNL     1      -0.269  -0.955   7.670  1.00  0.00     0.059 C
HETATM    8  C5  UNL     1       0.094  -0.043   8.824  1.00  0.00     0.013 C
HETATM    9  C6  UNL     1      -0.578  -0.672  10.050  1.00  0.00     0.001 C
HETATM   10  C7  UNL     1       0.049  -2.038  10.293  1.00  0.00     0.003 C
HETATM   11  C8  UNL     1      -0.181  -2.927   9.095  1.00  0.00     0.038 C
HETATM   12  C9  UNL     1       0.470  -2.247   7.892  1.00  0.00     0.179 C
HETATM   13  F1  UNL     1       1.811  -2.011   8.227  1.00  0.00    -0.249 F
ENDBRANCH   4   7
BRANCH   6  14
HETATM   14  C11 UNL     1       1.212   2.141   3.309  1.00  0.00     0.161 C
BRANCH  14  15
HETATM   15  C12 UNL     1       2.673   2.087   3.260  1.00  0.00     0.177 C
HETATM   16  O1  UNL     1       3.350   2.957   3.850  1.00  0.00    -0.648 OA
HETATM   17  O2  UNL     1       3.355   1.089   2.570  1.00  0.00    -0.648 OA
ENDBRANCH  14  15
ENDBRANCH   6  14
TORSDOF 3
ENDMDL