MODEL 2
REMARK VINA RESULT: -6.708018505      2.260      3.882
REMARK  3 active torsions:
REMARK  status: ('A' for Active; 'I' for Inactive)
REMARK    1  A    between atoms: C2_2  and  C3_3
REMARK    2  A    between atoms: C3_3  and  N1_4
REMARK    3  A    between atoms: N1_4  and  C4_6
ROOT
HETATM    1  C4  UNL     1      -0.026   0.936   5.767  1.00  0.00     0.123 A
HETATM    2  N2  UNL     1      -0.109   1.835   6.756  1.00  0.00    -0.332 N
ATOM      3  H2  UNL     1      -0.314   2.807   6.524  1.00  0.00     0.168 HD
HETATM    4  C5  UNL     1       0.073   1.492   8.068  1.00  0.00     0.109 A
HETATM    5  S1  UNL     1      -0.039   2.637   9.241  1.00  0.00    -0.060 SA
HETATM    6  C6  UNL     1       0.352   0.194   8.430  1.00  0.00    -0.009 A
HETATM    7  C7  UNL     1       0.446  -0.764   7.444  1.00  0.00    -0.024 A
HETATM    8  C8  UNL     1       0.254  -0.365   6.143  1.00  0.00     0.095 A
HETATM    9  C9  UNL     1       0.350  -1.362   5.098  1.00  0.00     0.104 C
HETATM   10  N3  UNL     1       0.442  -2.155   4.276  1.00  0.00    -0.191 NA
HETATM   11  C10 UNL     1       0.744  -2.177   7.786  1.00  0.00     0.043 C
HETATM   12  C11 UNL     1       0.167  -2.612   9.082  1.00  0.00     0.042 C
HETATM   13  C12 UNL     1      -0.178  -1.528  10.031  1.00  0.00     0.174 C
HETATM   14  F1  UNL     1       0.086  -1.942  11.345  1.00  0.00    -0.249 F
HETATM   15  C13 UNL     1       0.560  -0.245   9.826  1.00  0.00     0.079 C
ENDROOT
BRANCH   1  16
HETATM   16  N1  UNL     1      -0.228   1.275   4.409  1.00  0.00    -0.375 N
ATOM     17  H1  UNL     1      -1.085   0.925   3.979  1.00  0.00     0.161 HD
BRANCH  16  18
HETATM   18  C3  UNL     1       0.625   2.048   3.576  1.00  0.00     0.121 C
BRANCH  18  19
HETATM   19  C2  UNL     1       1.975   1.468   3.297  1.00  0.00     0.015 C
HETATM   20  C1  UNL     1       3.095   2.429   3.633  1.00  0.00     0.006 C
ENDBRANCH  18  19
ENDBRANCH  16  18
ENDBRANCH   1  16
TORSDOF 3
ENDMDL