MODEL 2
REMARK VINA RESULT: -6.208111070      3.303      4.440
REMARK  4 active torsions:
REMARK  status: ('A' for Active; 'I' for Inactive)
REMARK    1  A    between atoms: C2_2  and  O1_3
REMARK    2  A    between atoms: C2_2  and  C3_6
REMARK    3  A    between atoms: C5_10  and  S1_11
REMARK    4  A    between atoms: S1_11  and  C6_12
ROOT
HETATM    1  C3  UNL     1      -1.266  -1.243   3.709  1.00  0.00     0.076 A
HETATM    2  C4  UNL     1      -0.304  -0.457   3.134  1.00  0.00     0.119 A
HETATM    3  N1  UNL     1       0.424   0.062   4.136  1.00  0.00    -0.345 N
ATOM      4  H1  UNL     1       1.214   0.696   4.017  1.00  0.00     0.167 HD
HETATM    5  C5  UNL     1      -0.051  -0.383   5.339  1.00  0.00     0.144 A
HETATM    6  N2  UNL     1      -1.103  -1.196   5.078  1.00  0.00    -0.336 N
ATOM      7  H2  UNL     1      -1.672  -1.685   5.769  1.00  0.00     0.168 HD
ENDROOT
BRANCH   5   8
HETATM    8  S1  UNL     1       0.517   0.107   6.980  1.00  0.00    -0.089 SA
BRANCH   8   9
HETATM    9  C6  UNL     1      -0.299  -0.996   8.177  1.00  0.00     0.055 C
HETATM   10  C7  UNL     1      -0.835  -0.219   9.336  1.00  0.00     0.015 C
HETATM   11  C8  UNL     1      -0.392  -0.891  10.634  1.00  0.00     0.001 C
HETATM   12  C9  UNL     1      -0.811  -2.365  10.657  1.00  0.00     0.000 C
HETATM   13  C10 UNL     1      -0.516  -3.079   9.372  1.00  0.00     0.001 C
HETATM   14  C11 UNL     1       0.458  -2.224   8.559  1.00  0.00     0.015 C
ENDBRANCH   8   9
ENDBRANCH   5   8
BRANCH   1  15
HETATM   15  C2  UNL     1      -2.372  -1.923   3.060  1.00  0.00     0.174 C
HETATM   16  C1  UNL     1      -3.136  -2.766   4.043  1.00  0.00     0.071 C
HETATM   17 CL1  UNL     1      -1.743  -2.814   1.655  1.00  0.00    -0.082 Cl
BRANCH  15  18
HETATM   18  O1  UNL     1      -3.248  -0.869   2.618  1.00  0.00    -0.370 OA
ATOM     19  H1  UNL     1      -2.738  -0.068   2.583  1.00  0.00     0.212 HD
ENDBRANCH  15  18
ENDBRANCH   1  15
TORSDOF 4
ENDMDL