MODEL 1
REMARK VINA RESULT: -6.714393891      0.000      0.000
REMARK  3 active torsions:
REMARK  status: ('A' for Active; 'I' for Inactive)
REMARK    1  A    between atoms: C5_5  and  N1_6
REMARK    2  A    between atoms: N2_8  and  C6_10
REMARK    3  A    between atoms: C9_16  and  C10_17
ROOT
HETATM    1  N1  UNL     1      -0.590   0.435   7.016  1.00  0.00    -0.326 N
ATOM      2  H1  UNL     1      -1.226   1.097   6.572  1.00  0.00     0.181 HD
HETATM    3  N2  UNL     1      -0.120  -0.482   6.317  1.00  0.00    -0.302 N
ATOM      4  H2  UNL     1       0.516  -1.133   6.778  1.00  0.00     0.186 HD
ENDROOT
BRANCH   3   5
HETATM    5  C6  UNL     1      -0.382  -0.706   4.952  1.00  0.00     0.082 A
HETATM    6  C7  UNL     1      -1.275  -1.613   4.448  1.00  0.00     0.075 A
HETATM    7  C8  UNL     1      -1.251  -1.544   3.072  1.00  0.00     0.106 A
HETATM    8 CL1  UNL     1      -2.196  -2.483   1.915  1.00  0.00    -0.064 Cl
HETATM    9  N3  UNL     1      -0.353  -0.603   2.729  1.00  0.00    -0.341 N
HETATM   10  C9  UNL     1       0.184  -0.084   3.865  1.00  0.00     0.127 A
ATOM     11  H3  UNL     1      -0.116  -0.326   1.776  1.00  0.00     0.167 HD
BRANCH  10  12
HETATM   12  C10 UNL     1       1.193   0.958   3.925  1.00  0.00     0.283 C
HETATM   13  N4  UNL     1       1.968   1.206   2.760  1.00  0.00    -0.056 NA
HETATM   14  O1  UNL     1       1.352   1.604   4.992  1.00  0.00    -0.269 OA
ENDBRANCH  10  12
ENDBRANCH   3   5
BRANCH   1  15
HETATM   15  C5  UNL     1      -0.304   0.612   8.351  1.00  0.00     0.047 C
HETATM   16  C4  UNL     1      -0.778  -0.366   9.387  1.00  0.00     0.033 C
HETATM   17  C3  UNL     1      -0.189   0.310  10.643  1.00  0.00     0.012 C
HETATM   18  C2  UNL     1       0.520   1.452  10.000  1.00  0.00    -0.039 C
HETATM   19  C1  UNL     1       1.287   2.403  10.757  1.00  0.00     0.015 C
HETATM   20  C11 UNL     1      -0.524   1.968   9.000  1.00  0.00     0.041 C
HETATM   21  C12 UNL     1       1.162   0.790   8.773  1.00  0.00     0.041 C
ENDBRANCH   1  15
TORSDOF 3
ENDMDL