MODEL 1
REMARK VINA RESULT: -7.433629653      0.000      0.000
REMARK  2 active torsions:
REMARK  status: ('A' for Active; 'I' for Inactive)
REMARK    1  A    between atoms: C2_2  and  C4_4
REMARK    2  A    between atoms: C5_9  and  C6_10
ROOT
HETATM    1  C6  UNL     1     -42.863  -1.264  72.482  1.00  0.00     0.092 C
HETATM    2  C7  UNL     1     -42.289  -2.436  73.284  1.00  0.00     0.043 C
HETATM    3  C8  UNL     1     -43.249  -2.700  74.424  1.00  0.00     0.233 C
HETATM    4  N3  UNL     1     -43.690  -1.445  75.015  1.00  0.00    -0.072 N
ATOM      5  H31 UNL     1     -43.882  -1.544  76.012  1.00  0.00     0.277 HD
ATOM      6  H32 UNL     1     -44.627  -1.188  74.703  1.00  0.00     0.277 HD
HETATM    7  C9  UNL     1     -42.731  -0.393  74.755  1.00  0.00     0.271 C
HETATM    8  C10 UNL     1     -42.699  -0.016  73.267  1.00  0.00     0.095 C
HETATM    9  C11 UNL     1     -41.415   0.731  73.051  1.00  0.00     0.042 C
HETATM   10  C12 UNL     1     -41.762   2.020  73.817  1.00  0.00     0.029 C
HETATM   11  C13 UNL     1     -43.222   2.143  73.499  1.00  0.00     0.169 C
HETATM   12  O1  UNL     1     -43.712   0.921  73.099  1.00  0.00    -0.378 OA
ENDROOT
BRANCH   1  13
HETATM   13  C5  UNL     1     -42.334  -1.243  71.111  1.00  0.00     0.104 A
HETATM   14  N2  UNL     1     -41.612  -2.217  70.531  1.00  0.00    -0.287 N
HETATM   15  N1  UNL     1     -41.310  -1.845  69.304  1.00  0.00    -0.287 N
ATOM     16  H2  UNL     1     -41.342  -3.098  70.967  1.00  0.00     0.188 HD
HETATM   17  C4  UNL     1     -41.820  -0.629  69.045  1.00  0.00     0.100 A
ATOM     18  H1  UNL     1     -40.766  -2.400  68.643  1.00  0.00     0.188 HD
HETATM   19  N4  UNL     1     -42.449  -0.281  70.181  1.00  0.00    -0.333 N
ATOM     20  H4  UNL     1     -42.947   0.598  70.318  1.00  0.00     0.168 HD
BRANCH  17  21
HETATM   21  C2  UNL     1     -41.698   0.134  67.776  1.00  0.00     0.047 C
HETATM   22  C1  UNL     1     -40.711  -0.541  66.854  1.00  0.00     0.017 C
HETATM   23  C3  UNL     1     -41.153   1.517  68.075  1.00  0.00     0.017 C
ENDBRANCH  17  21
ENDBRANCH   1  13
TORSDOF 2
ENDMDL