MODEL 3
REMARK VINA RESULT: -7.065765312      1.599      2.279
REMARK  6 active torsions:
REMARK  status: ('A' for Active; 'I' for Inactive)
REMARK    1  A    between atoms: C2_2  and  C5_5
REMARK    2  A    between atoms: C5_5  and  C8_8
REMARK    3  A    between atoms: C8_8  and  C9_10
REMARK    4  A    between atoms: C11_12  and  C12_13
REMARK    5  A    between atoms: C12_13  and  O2_14
REMARK    6  A    between atoms: N1_16  and  O3_18
ROOT
HETATM    1  C9  UNL     1     -42.714  -0.947  71.202  1.00  0.00     0.192 C
HETATM    2  C10 UNL     1     -42.188  -0.750  72.600  1.00  0.00     0.055 C
HETATM    3  C11 UNL     1     -43.109  -1.752  73.321  1.00  0.00     0.089 C
HETATM    4  C13 UNL     1     -44.399  -1.455  72.608  1.00  0.00     0.181 C
HETATM    5  O4  UNL     1     -44.095  -0.814  71.438  1.00  0.00    -0.378 OA
ENDROOT
BRANCH   1   6
HETATM    6  C8  UNL     1     -42.240  -0.020  70.189  1.00  0.00     0.164 C
HETATM    7  O1  UNL     1     -41.937   1.126  70.572  1.00  0.00    -0.294 OA
BRANCH   6   8
HETATM    8  C5  UNL     1     -42.122  -0.414  68.773  1.00  0.00     0.022 C
HETATM    9  C6  UNL     1     -41.075   0.467  68.115  1.00  0.00     0.024 C
HETATM   10  C7  UNL     1     -41.677  -1.834  68.662  1.00  0.00     0.024 C
BRANCH   8  11
HETATM   11  C2  UNL     1     -43.436  -0.198  68.023  1.00  0.00    -0.037 C
HETATM   12  C1  UNL     1     -43.049  -0.048  66.553  1.00  0.00     0.015 C
HETATM   13  C3  UNL     1     -44.334  -1.384  68.125  1.00  0.00     0.015 C
HETATM   14  C4  UNL     1     -44.110   1.069  68.439  1.00  0.00     0.015 C
ENDBRANCH   8  11
ENDBRANCH   6   8
ENDBRANCH   1   6
BRANCH   3  15
HETATM   15  C12 UNL     1     -43.163  -1.483  74.768  1.00  0.00     0.141 C
HETATM   16  N1  UNL     1     -42.747  -0.388  75.262  1.00  0.00    -0.251 N
ATOM     17  H1  UNL     1     -42.362   0.331  74.650  1.00  0.00     0.196 HD
BRANCH  15  18
HETATM   18  O2  UNL     1     -43.690  -2.474  75.586  1.00  0.00    -0.348 OA
ATOM     19  H2  UNL     1     -44.054  -2.206  76.422  1.00  0.00     0.219 HD
ENDBRANCH  15  18
BRANCH  16  20
HETATM   20  O3  UNL     1     -42.813  -0.169  76.628  1.00  0.00    -0.288 OA
ATOM     21  H3  UNL     1     -43.065   0.683  76.965  1.00  0.00     0.244 HD
ENDBRANCH  16  20
ENDBRANCH   3  15
TORSDOF 6
ENDMDL