MODEL 1
REMARK VINA RESULT: -6.539379094      0.000      0.000
REMARK  8 active torsions:
REMARK  status: ('A' for Active; 'I' for Inactive)
REMARK    1  A    between atoms: N1_2  and  N2_3
REMARK    2  A    between atoms: N1_2  and  C2_7
REMARK    3  A    between atoms: N2_3  and  O1_5
REMARK    4  A    between atoms: C2_7  and  C3_8
REMARK    5  A    between atoms: C3_8  and  C4_9
REMARK    6  A    between atoms: C4_9  and  N4_13
REMARK    7  A    between atoms: N4_13  and  C5_15
REMARK    8  A    between atoms: N5_19  and  C9_21
ROOT
HETATM    1  C2  UNL     1     -43.591   1.050  72.802  1.00  0.00     0.103 C
HETATM    2  N5  UNL     1     -43.640  -0.191  72.951  1.00  0.00    -0.370 N
ATOM      3  H5  UNL     1     -44.453  -0.624  72.514  1.00  0.00     0.161 HD
ENDROOT
BRANCH   1   4
HETATM    4  N1  UNL     1     -42.530   1.806  73.347  1.00  0.00    -0.265 N
HETATM    5  C1  UNL     1     -41.227   1.735  72.752  1.00  0.00     0.181 C
BRANCH   4   6
HETATM    6  N2  UNL     1     -42.739   2.619  74.444  1.00  0.00    -0.207 N
ATOM      7  H2  UNL     1     -43.593   2.528  74.994  1.00  0.00     0.216 HD
BRANCH   6   8
HETATM    8  O1  UNL     1     -41.886   3.455  74.752  1.00  0.00    -0.274 OA
ATOM      9  H1  UNL     1     -41.999   3.968  75.543  1.00  0.00     0.246 HD
ENDBRANCH   6   8
ENDBRANCH   4   6
ENDBRANCH   1   4
BRANCH   1  10
HETATM   10  C3  UNL     1     -44.607   1.828  72.064  1.00  0.00     0.153 C
BRANCH  10  11
HETATM   11  C4  UNL     1     -44.205   2.357  70.767  1.00  0.00     0.078 C
HETATM   12  N3  UNL     1     -44.758   3.402  70.270  1.00  0.00    -0.389 N
ATOM     13  H32 UNL     1     -45.491   3.827  70.838  1.00  0.00     0.157 HD
ATOM     14  H31 UNL     1     -44.477   3.772  69.363  1.00  0.00     0.157 HD
BRANCH  11  15
HETATM   15  N4  UNL     1     -43.177   1.761  69.971  1.00  0.00    -0.372 N
ATOM     16  H4  UNL     1     -42.209   2.008  70.174  1.00  0.00     0.161 HD
BRANCH  15  17
HETATM   17  C5  UNL     1     -43.425   0.842  68.910  1.00  0.00     0.020 C
HETATM   18  C6  UNL     1     -44.578   1.330  68.072  1.00  0.00     0.037 C
HETATM   19  C7  UNL     1     -42.211   0.784  67.981  1.00  0.00     0.037 C
HETATM   20  C8  UNL     1     -43.656  -0.571  69.391  1.00  0.00     0.037 C
ENDBRANCH  15  17
ENDBRANCH  11  15
ENDBRANCH  10  11
ENDBRANCH   1  10
BRANCH   2  21
HETATM   21  C9  UNL     1     -42.792  -1.114  73.607  1.00  0.00     0.020 C
HETATM   22  C10 UNL     1     -43.569  -2.445  73.647  1.00  0.00     0.037 C
HETATM   23  C11 UNL     1     -42.444  -0.770  75.015  1.00  0.00     0.037 C
HETATM   24  C12 UNL     1     -41.513  -1.453  72.856  1.00  0.00     0.037 C
ENDBRANCH   2  21
TORSDOF 8
ENDMDL