MODEL 1
REMARK VINA RESULT: -7.076341137      0.000      0.000
REMARK  3 active torsions:
REMARK  status: ('A' for Active; 'I' for Inactive)
REMARK    1  A    between atoms: C2_4  and  C4_6
REMARK    2  A    between atoms: C4_6  and  C5_7
REMARK    3  A    between atoms: C11_13  and  O1_14
ROOT
HETATM    1  C5  UNL     1     -42.964   0.214  72.391  1.00  0.00     0.063 C
HETATM    2  C6  UNL     1     -43.346   0.237  73.802  1.00  0.00     0.061 C
HETATM    3  C7  UNL     1     -42.740  -1.014  74.471  1.00  0.00     0.129 C
HETATM    4  C8  UNL     1     -43.049  -2.171  73.728  1.00  0.00     0.032 C
HETATM    5  C9  UNL     1     -42.022  -2.319  72.607  1.00  0.00     0.008 C
HETATM    6  C10 UNL     1     -41.029  -1.229  72.494  1.00  0.00     0.069 C
HETATM    7  C11 UNL     1     -41.471   0.175  72.603  1.00  0.00     0.167 C
HETATM    8  O2  UNL     1     -41.194   0.843  73.777  1.00  0.00    -0.342 OA
HETATM    9  C12 UNL     1     -42.356   1.154  74.465  1.00  0.00     0.089 C
HETATM   10  C13 UNL     1     -42.698   2.574  74.550  1.00  0.00     0.049 C
HETATM   11  C14 UNL     1     -42.395   0.520  75.870  1.00  0.00     0.206 C
HETATM   12  O3  UNL     1     -43.137  -0.692  75.735  1.00  0.00    -0.382 OA
ENDROOT
BRANCH   1  13
HETATM   13  C4  UNL     1     -43.367   1.355  71.533  1.00  0.00     0.062 C
BRANCH  13  14
HETATM   14  C2  UNL     1     -43.604   1.017  70.130  1.00  0.00    -0.022 C
HETATM   15  N1  UNL     1     -43.419  -0.172  69.724  1.00  0.00    -0.401 N
HETATM   16  C1  UNL     1     -43.646  -0.528  68.362  1.00  0.00     0.145 C
ATOM     17  H1  UNL     1     -43.102  -0.884  70.383  1.00  0.00     0.158 HD
HETATM   18  C3  UNL     1     -44.064   2.037  69.160  1.00  0.00     0.062 C
ENDBRANCH  13  14
ENDBRANCH   1  13
BRANCH   7  19
HETATM   19  O1  UNL     1     -40.913   0.972  71.571  1.00  0.00    -0.365 OA
ATOM     20  H1  UNL     1     -40.564   0.362  70.933  1.00  0.00     0.213 HD
ENDBRANCH   7  19
TORSDOF 3
ENDMDL