MODEL 3
REMARK VINA RESULT: -6.810132724      3.034      6.369
REMARK  3 active torsions:
REMARK  status: ('A' for Active; 'I' for Inactive)
REMARK    1  A    between atoms: N1_8  and  N2_10
REMARK       I    between atoms: N2_10  and  C8_12
REMARK    2  A    between atoms: C8_12  and  O2_14
REMARK    3  A    between atoms: O2_14  and  C9_15
ROOT
HETATM    1  N2  UNL     1     -43.740   1.239  70.390  1.00  0.00    -0.245 N
ATOM      2  H2  UNL     1     -44.674   1.034  70.745  1.00  0.00     0.192 HD
HETATM    3  C8  UNL     1     -43.574   1.515  69.006  1.00  0.00     0.379 C
HETATM    4  O1  UNL     1     -42.452   1.768  68.547  1.00  0.00    -0.237 OA
ENDROOT
BRANCH   1   5
HETATM    5  N1  UNL     1     -42.656   1.241  71.284  1.00  0.00    -0.304 N
HETATM    6  C7  UNL     1     -42.849   0.893  72.490  1.00  0.00     0.007 C
HETATM    7  C2  UNL     1     -41.723   0.892  73.429  1.00  0.00     0.029 C
HETATM    8  C6  UNL     1     -44.185   0.485  72.978  1.00  0.00     0.054 C
HETATM    9  C1  UNL     1     -40.749  -0.202  72.988  1.00  0.00     0.016 C
HETATM   10  C3  UNL     1     -42.097   0.794  74.861  1.00  0.00     0.010 C
HETATM   11  C4  UNL     1     -43.187  -0.149  75.190  1.00  0.00     0.001 C
HETATM   12  C5  UNL     1     -44.086  -0.527  74.076  1.00  0.00     0.006 C
ATOM     13  H1  UNL     1     -41.726   1.519  70.969  1.00  0.00     0.186 HD
ENDBRANCH   1   5
BRANCH   3  14
HETATM   14  O2  UNL     1     -44.668   1.497  68.187  1.00  0.00    -0.295 OA
BRANCH  14  15
HETATM   15  C9  UNL     1     -44.731   0.799  66.958  1.00  0.00     0.157 C
HETATM   16  C10 UNL     1     -45.918   1.314  66.201  1.00  0.00     0.037 C
HETATM   17  C11 UNL     1     -46.637   0.254  65.419  1.00  0.00     0.029 C
HETATM   18  C12 UNL     1     -46.830  -1.023  66.181  1.00  0.00     0.167 C
HETATM   19  O3  UNL     1     -46.153  -1.045  67.391  1.00  0.00    -0.389 OA
HETATM   20  C13 UNL     1     -44.826  -0.675  67.267  1.00  0.00     0.200 C
ENDBRANCH  14  15
ENDBRANCH   3  14
TORSDOF 3
ENDMDL