MODEL 2
REMARK VINA RESULT: -5.242474201      1.967      2.479
REMARK  5 active torsions:
REMARK  status: ('A' for Active; 'I' for Inactive)
REMARK    1  A    between atoms: C3_7  and  C4_8
REMARK    2  A    between atoms: C4_8  and  N3_9
REMARK    3  A    between atoms: N3_9  and  C5_11
REMARK    4  A    between atoms: C5_11  and  N4_13
REMARK    5  A    between atoms: N4_13  and  C6_15
ROOT
HETATM    1  N3  UNL     1     -43.475  -0.089  70.621  1.00  0.00    -0.361 N
ATOM      2  H3  UNL     1     -43.839  -0.987  70.301  1.00  0.00     0.162 HD
ENDROOT
BRANCH   1   3
HETATM    3  C4  UNL     1     -42.776   0.775  69.694  1.00  0.00     0.188 C
BRANCH   3   4
HETATM    4  C3  UNL     1     -41.887  -0.062  68.821  1.00  0.00     0.085 A
HETATM    5  N2  UNL     1     -41.552  -1.339  68.946  1.00  0.00    -0.296 N
HETATM    6  N1  UNL     1     -40.782  -1.875  68.102  1.00  0.00    -0.298 N
ATOM      7  H2  UNL     1     -41.917  -1.888  69.724  1.00  0.00     0.187 HD
HETATM    8  C2  UNL     1     -40.306  -1.161  67.087  1.00  0.00     0.064 A
ATOM      9  H1  UNL     1     -40.525  -2.857  68.199  1.00  0.00     0.187 HD
HETATM   10  C1  UNL     1     -39.393  -1.667  66.025  1.00  0.00     0.078 C
HETATM   11  S2  UNL     1     -41.023   0.360  67.393  1.00  0.00    -0.059 SA
ENDBRANCH   3   4
ENDBRANCH   1   3
BRANCH   1  12
HETATM   12  C5  UNL     1     -43.658   0.304  71.968  1.00  0.00     0.168 C
HETATM   13  S1  UNL     1     -43.749   1.893  72.306  1.00  0.00    -0.041 SA
BRANCH  12  14
HETATM   14  N4  UNL     1     -43.755  -0.675  72.978  1.00  0.00    -0.359 N
ATOM     15  H4  UNL     1     -44.677  -1.054  73.193  1.00  0.00     0.162 HD
BRANCH  14  16
HETATM   16  C6  UNL     1     -42.628  -1.172  73.725  1.00  0.00     0.021 C
HETATM   17  C7  UNL     1     -42.541  -0.350  75.000  1.00  0.00     0.037 C
HETATM   18  C8  UNL     1     -42.882  -2.617  74.078  1.00  0.00     0.037 C
HETATM   19  C9  UNL     1     -41.349  -1.103  72.930  1.00  0.00     0.037 C
ENDBRANCH  14  16
ENDBRANCH  12  14
ENDBRANCH   1  12
TORSDOF 5
ENDMDL