MODEL 2
REMARK VINA RESULT: -6.190261118      1.689      4.534
REMARK  4 active torsions:
REMARK  status: ('A' for Active; 'I' for Inactive)
REMARK    1  A    between atoms: C2_2  and  N1_4
REMARK    2  A    between atoms: C4_6  and  N2_7
REMARK    3  A    between atoms: C4_6  and  C8_16
REMARK    4  A    between atoms: N2_7  and  C5_9
ROOT
HETATM    1  N1  UNL     1     -41.857   1.315  68.105  1.00  0.00    -0.375 N
ATOM      2  H1  UNL     1     -42.324   1.689  67.279  1.00  0.00     0.161 HD
HETATM    3  C4  UNL     1     -42.585   1.062  69.174  1.00  0.00     0.085 C
ENDROOT
BRANCH   3   4
HETATM    4  N2  UNL     1     -43.943   1.367  68.979  1.00  0.00    -0.318 N
ATOM      5  H2  UNL     1     -44.402   1.983  69.650  1.00  0.00     0.170 HD
BRANCH   4   6
HETATM    6  C5  UNL     1     -44.721   0.852  67.876  1.00  0.00     0.176 C
HETATM    7  N3  UNL     1     -45.424   1.530  67.049  1.00  0.00    -0.361 N
HETATM    8  C6  UNL     1     -46.074   0.707  66.071  1.00  0.00     0.142 C
ATOM      9  H3  UNL     1     -45.511   2.546  67.081  1.00  0.00     0.162 HD
HETATM   10  C7  UNL     1     -45.982  -0.702  66.633  1.00  0.00     0.142 C
HETATM   11  N4  UNL     1     -44.843  -0.516  67.509  1.00  0.00    -0.361 N
ATOM     12  H4  UNL     1     -44.218  -1.260  67.819  1.00  0.00     0.162 HD
ENDBRANCH   4   6
ENDBRANCH   3   4
BRANCH   3  13
HETATM   13  C8  UNL     1     -41.946   0.521  70.381  1.00  0.00     0.070 A
HETATM   14  C9  UNL     1     -42.500  -0.451  71.299  1.00  0.00    -0.029 A
HETATM   15  C10 UNL     1     -43.888  -0.963  71.333  1.00  0.00     0.016 C
HETATM   16  C11 UNL     1     -41.550  -1.442  72.001  1.00  0.00     0.016 C
HETATM   17  C12 UNL     1     -42.290   0.985  71.736  1.00  0.00    -0.029 A
HETATM   18  C13 UNL     1     -41.160   1.264  72.744  1.00  0.00     0.016 C
HETATM   19  C14 UNL     1     -43.527   1.753  72.084  1.00  0.00     0.016 C
ENDBRANCH   3  13
BRANCH   1  20
HETATM   20  C2  UNL     1     -40.449   1.092  68.046  1.00  0.00     0.074 C
HETATM   21  C1  UNL     1     -39.671   2.374  67.780  1.00  0.00     0.031 C
HETATM   22  C3  UNL     1     -40.190   0.194  66.831  1.00  0.00     0.031 C
ENDBRANCH   1  20
TORSDOF 4
ENDMDL