MODEL 3
REMARK VINA RESULT: -7.067908945      1.938      3.217
REMARK  4 active torsions:
REMARK  status: ('A' for Active; 'I' for Inactive)
REMARK    1  A    between atoms: C2_2  and  C3_3
REMARK    2  A    between atoms: C3_3  and  C4_4
REMARK    3  A    between atoms: C7_9  and  O3_10
REMARK    4  A    between atoms: C10_14  and  O4_15
ROOT
HETATM    1  C4  UNL     1     -42.617  -0.044  70.277  1.00  0.00     0.163 C
HETATM    2  C5  UNL     1     -42.149  -0.986  71.367  1.00  0.00     0.080 C
HETATM    3  C6  UNL     1     -42.614  -0.239  72.604  1.00  0.00     0.133 C
HETATM    4  O1  UNL     1     -43.240   0.885  72.042  1.00  0.00    -0.226 OA
HETATM    5  O2  UNL     1     -42.559   1.167  70.930  1.00  0.00    -0.234 OA
HETATM    6  C7  UNL     1     -41.425   0.317  73.392  1.00  0.00     0.157 C
HETATM    7  C8  UNL     1     -41.955   1.143  74.524  1.00  0.00     0.037 C
HETATM    8  C9  UNL     1     -42.912   0.432  75.415  1.00  0.00     0.035 C
HETATM    9  C10 UNL     1     -43.061  -0.983  74.926  1.00  0.00     0.129 C
HETATM   10  C11 UNL     1     -43.528  -1.028  73.473  1.00  0.00     0.015 C
HETATM   11  C12 UNL     1     -44.925  -0.475  73.321  1.00  0.00     0.021 C
HETATM   12  C13 UNL     1     -43.585  -2.502  73.124  1.00  0.00     0.021 C
ENDROOT
BRANCH   6  13
HETATM   13  O3  UNL     1     -40.734   1.216  72.548  1.00  0.00    -0.392 OA
ATOM     14  H3  UNL     1     -39.805   1.103  72.706  1.00  0.00     0.210 HD
ENDBRANCH   6  13
BRANCH   1  15
HETATM   15  C3  UNL     1     -41.871  -0.133  69.014  1.00  0.00     0.035 C
BRANCH  15  16
HETATM   16  C2  UNL     1     -41.476  -1.491  68.562  1.00  0.00    -0.002 C
HETATM   17  C1  UNL     1     -40.460  -1.372  67.442  1.00  0.00     0.005 C
ENDBRANCH  15  16
ENDBRANCH   1  15
BRANCH   9  18
HETATM   18  O4  UNL     1     -43.796  -1.792  75.751  1.00  0.00    -0.395 OA
ATOM     19  H4  UNL     1     -44.031  -1.395  76.582  1.00  0.00     0.210 HD
ENDBRANCH   9  18
TORSDOF 4
ENDMDL