MODEL 3
REMARK VINA RESULT: -7.235807108      0.958      5.911
REMARK  3 active torsions:
REMARK  status: ('A' for Active; 'I' for Inactive)
REMARK    1  A    between atoms: N1_1  and  C1_4
REMARK    2  A    between atoms: C2_7  and  C3_8
REMARK    3  A    between atoms: C9_16  and  N4_17
ROOT
HETATM    1  C1  UNL     1     -41.453  -2.353  70.382  1.00  0.00     0.691 A
HETATM    2  N2  UNL     1     -42.055  -1.799  69.321  1.00  0.00    -0.179 N
ATOM      3  H2  UNL     1     -41.875  -2.178  68.391  1.00  0.00     0.185 HD
HETATM    4  C2  UNL     1     -42.901  -0.744  69.455  1.00  0.00     0.117 A
HETATM    5  N3  UNL     1     -43.156  -0.229  70.670  1.00  0.00    -0.179 N
ATOM      6  H3  UNL     1     -43.792   0.562  70.765  1.00  0.00     0.185 HD
HETATM    7  C9  UNL     1     -42.569  -0.762  71.762  1.00  0.00     0.696 A
HETATM    8  N5  UNL     1     -41.723  -1.823  71.582  1.00  0.00    -0.022 N
ATOM      9  H5  UNL     1     -41.277  -2.231  72.404  1.00  0.00     0.203 HD
ENDROOT
BRANCH   4  10
HETATM   10  C3  UNL     1     -43.472  -0.241  68.187  1.00  0.00     0.054 C
HETATM   11  C4  UNL     1     -42.544  -0.168  67.037  1.00  0.00     0.012 C
HETATM   12  C5  UNL     1     -43.367   0.028  65.774  1.00  0.00     0.001 C
HETATM   13  C6  UNL     1     -44.778   0.482  66.079  1.00  0.00     0.000 C
HETATM   14  C7  UNL     1     -45.534  -0.502  66.940  1.00  0.00     0.001 C
HETATM   15  C8  UNL     1     -44.552  -1.291  67.805  1.00  0.00     0.012 C
ENDBRANCH   4  10
BRANCH   1  16
HETATM   16  N1  UNL     1     -40.633  -3.367  70.257  1.00  0.00    -0.234 N
ATOM     17  H12 UNL     1     -40.704  -4.009  69.468  1.00  0.00     0.174 HD
ATOM     18  H11 UNL     1     -39.900  -3.550  70.942  1.00  0.00     0.174 HD
ENDBRANCH   1  16
BRANCH   7  19
HETATM   19  N4  UNL     1     -42.814  -0.261  73.063  1.00  0.00    -0.217 N
HETATM   20  C10 UNL     1     -41.897   0.515  73.858  1.00  0.00     0.141 C
HETATM   21  C11 UNL     1     -42.272   0.170  75.300  1.00  0.00     0.022 C
HETATM   22  C12 UNL     1     -43.424  -0.794  75.195  1.00  0.00     0.022 C
HETATM   23  C13 UNL     1     -44.011  -0.445  73.832  1.00  0.00     0.141 C
ENDBRANCH   7  19
TORSDOF 3
ENDMDL