MODEL 1
REMARK VINA RESULT: -6.542475581      0.000      0.000
REMARK  3 active torsions:
REMARK  status: ('A' for Active; 'I' for Inactive)
REMARK    1  A    between atoms: N1_4  and  C4_5
REMARK    2  A    between atoms: C5_7  and  N2_8
REMARK    3  A    between atoms: C6_13  and  C7_14
ROOT
HETATM    1  C4  UNL     1     -43.546  -0.326  72.303  1.00  0.00     0.099 A
HETATM    2  S1  UNL     1     -43.725  -1.894  72.931  1.00  0.00    -0.035 SA
HETATM    3  C5  UNL     1     -43.650  -1.559  74.600  1.00  0.00     0.144 A
HETATM    4  N3  UNL     1     -43.494  -0.241  74.583  1.00  0.00    -0.338 N
ATOM      5  H3  UNL     1     -43.412   0.272  75.460  1.00  0.00     0.168 HD
HETATM    6  C6  UNL     1     -43.445   0.402  73.449  1.00  0.00     0.049 A
ENDROOT
BRANCH   1   7
HETATM    7  N1  UNL     1     -43.532   0.037  70.932  1.00  0.00    -0.369 N
HETATM    8  C3  UNL     1     -43.300  -1.029  69.966  1.00  0.00     0.155 C
HETATM    9  C2  UNL     1     -42.403  -0.673  68.836  1.00  0.00     0.136 C
HETATM   10  C1  UNL     1     -41.329  -1.724  68.621  1.00  0.00     0.041 C
HETATM   11  O1  UNL     1     -41.850   0.576  69.006  1.00  0.00    -0.378 OA
HETATM   12  C11 UNL     1     -42.888   1.489  69.090  1.00  0.00     0.136 C
HETATM   13  C10 UNL     1     -43.701   1.343  70.382  1.00  0.00     0.155 C
HETATM   14  C12 UNL     1     -43.819   1.453  67.894  1.00  0.00     0.041 C
ENDBRANCH   1   7
BRANCH   6  15
HETATM   15  C7  UNL     1     -43.268   1.918  73.344  1.00  0.00     0.038 A
HETATM   16  C8  UNL     1     -42.616   2.648  74.456  1.00  0.00     0.011 A
HETATM   17  C9  UNL     1     -41.744   2.321  73.347  1.00  0.00     0.011 A
ENDBRANCH   6  15
BRANCH   3  18
HETATM   18  N2  UNL     1     -43.759  -2.330  75.613  1.00  0.00    -0.380 N
ATOM     19  H22 UNL     1     -44.502  -2.353  76.313  1.00  0.00     0.158 HD
ATOM     20  H21 UNL     1     -43.174  -3.103  75.929  1.00  0.00     0.158 HD
ENDBRANCH   3  18
TORSDOF 3
ENDMDL