MODEL 1
REMARK VINA RESULT: -5.927076548      0.000      0.000
REMARK  5 active torsions:
REMARK  status: ('A' for Active; 'I' for Inactive)
REMARK    1  A    between atoms: C2_2  and  S1_4
REMARK    2  A    between atoms: S1_4  and  C4_5
REMARK    3  A    between atoms: C5_6  and  C6_7
REMARK    4  A    between atoms: C8_11  and  O1_12
REMARK    5  A    between atoms: C9_14  and  C10_15
ROOT
HETATM    1  C6  UNL     1     -21.965  -0.527 -23.575  1.00  0.00     0.021 C
HETATM    2  N1  UNL     1     -21.754  -1.426 -22.636  1.00  0.00    -0.390 N
ATOM      3  H1  UNL     1     -21.532  -2.406 -22.805  1.00  0.00     0.159 HD
HETATM    4  C7  UNL     1     -21.885  -0.816 -21.321  1.00  0.00     0.152 C
HETATM    5  C8  UNL     1     -21.455   0.624 -21.642  1.00  0.00     0.154 C
HETATM    6  C9  UNL     1     -22.257   0.772 -22.944  1.00  0.00     0.173 C
ENDROOT
BRANCH   1   7
HETATM    7  C5  UNL     1     -21.890  -0.889 -24.992  1.00  0.00     0.032 C
HETATM    8  C4  UNL     1     -20.739  -1.061 -25.597  1.00  0.00     0.047 C
BRANCH   8   9
HETATM    9  S1  UNL     1     -20.512  -1.494 -27.285  1.00  0.00    -0.137 SA
BRANCH   9  10
HETATM   10  C2  UNL     1     -21.454  -0.532 -28.453  1.00  0.00     0.043 C
HETATM   11  C1  UNL     1     -21.530   0.906 -27.922  1.00  0.00     0.021 C
HETATM   12  C3  UNL     1     -22.886  -1.028 -28.596  1.00  0.00     0.021 C
ENDBRANCH   9  10
ENDBRANCH   8   9
ENDBRANCH   1   7
BRANCH   6  13
HETATM   13  C10 UNL     1     -21.788   1.972 -23.724  1.00  0.00     0.399 C
HETATM   14  F1  UNL     1     -21.659   3.003 -22.778  1.00  0.00    -0.170 F
HETATM   15  F2  UNL     1     -20.544   1.797 -24.268  1.00  0.00    -0.170 F
HETATM   16  F3  UNL     1     -22.697   2.446 -24.627  1.00  0.00    -0.170 F
ENDBRANCH   6  13
BRANCH   5  17
HETATM   17  O1  UNL     1     -20.084   0.536 -21.928  1.00  0.00    -0.393 OA
ATOM     18  H1  UNL     1     -19.652   0.657 -21.091  1.00  0.00     0.210 HD
ENDBRANCH   5  17
TORSDOF 5
ENDMDL