MODEL 4
REMARK VINA RESULT: -6.721310524      2.485      3.871
REMARK  4 active torsions:
REMARK  status: ('A' for Active; 'I' for Inactive)
REMARK    1  A    between atoms: N1_2  and  C2_4
REMARK    2  A    between atoms: C2_4  and  C3_5
REMARK    3  A    between atoms: C2_4  and  C8_12
REMARK    4  A    between atoms: C2_4  and  C12_17
ROOT
HETATM    1  C2  UNL     1     -21.213   0.298 -24.389  1.00  0.00     0.179 C
ENDROOT
BRANCH   1   2
HETATM    2  N1  UNL     1     -21.878  -0.225 -23.245  1.00  0.00    -0.404 N
HETATM    3  C1  UNL     1     -23.229  -0.567 -23.292  1.00  0.00     0.141 C
ATOM      4  H1  UNL     1     -21.358  -0.351 -22.377  1.00  0.00     0.154 HD
ENDBRANCH   1   2
BRANCH   1   5
HETATM    5  C3  UNL     1     -20.589  -0.834 -25.131  1.00  0.00    -0.004 A
HETATM    6  C4  UNL     1     -20.644  -1.027 -26.486  1.00  0.00     0.013 A
HETATM    7  C5  UNL     1     -20.026  -2.112 -27.110  1.00  0.00     0.018 A
HETATM    8  C6  UNL     1     -19.337  -3.025 -26.374  1.00  0.00     0.087 A
HETATM    9  N2  UNL     1     -19.274  -2.853 -25.059  1.00  0.00    -0.375 N
HETATM   10  C7  UNL     1     -19.867  -1.811 -24.435  1.00  0.00     0.097 A
ATOM     11  H2  UNL     1     -18.760  -3.532 -24.499  1.00  0.00     0.164 HD
ENDBRANCH   1   5
BRANCH   1  12
HETATM   12  C8  UNL     1     -22.087   1.003 -25.357  1.00  0.00     0.163 C
HETATM   13  C9  UNL     1     -22.607   2.337 -24.718  1.00  0.00     0.037 C
HETATM   14  C10 UNL     1     -23.293   2.891 -25.957  1.00  0.00     0.029 C
HETATM   15  C11 UNL     1     -22.460   2.340 -27.071  1.00  0.00     0.168 C
HETATM   16  O1  UNL     1     -21.468   1.533 -26.487  1.00  0.00    -0.383 OA
ENDBRANCH   1  12
BRANCH   1  17
HETATM   17  C12 UNL     1     -20.064   1.174 -23.909  1.00  0.00     0.419 C
HETATM   18  F1  UNL     1     -20.493   2.374 -23.393  1.00  0.00    -0.168 F
HETATM   19  F2  UNL     1     -19.143   1.471 -24.882  1.00  0.00    -0.168 F
HETATM   20  F3  UNL     1     -19.358   0.435 -22.945  1.00  0.00    -0.168 F
ENDBRANCH   1  17
TORSDOF 4
ENDMDL