MODEL 1
REMARK VINA RESULT: -5.863016064      0.000      0.000
REMARK  4 active torsions:
REMARK  status: ('A' for Active; 'I' for Inactive)
REMARK    1  A    between atoms: C1_4  and  S1_5
REMARK    2  A    between atoms: S1_5  and  C2_6
REMARK    3  A    between atoms: C5_10  and  S3_11
REMARK    4  A    between atoms: S3_11  and  C6_13
ROOT
HETATM    1  C2  UNL     1     -20.702  -1.115 -25.182  1.00  0.00     0.032 A
HETATM    2  C3  UNL     1     -20.178  -1.732 -26.286  1.00  0.00     0.070 A
HETATM    3  S2  UNL     1     -20.934  -0.934 -27.580  1.00  0.00    -0.111 SA
HETATM    4  C4  UNL     1     -21.900   0.165 -26.704  1.00  0.00     0.072 A
HETATM    5  C5  UNL     1     -21.599  -0.127 -25.404  1.00  0.00     0.064 A
ENDROOT
BRANCH   5   6
HETATM    6  S3  UNL     1     -22.363   0.762 -24.068  1.00  0.00     0.159 S
HETATM    7  O1  UNL     1     -23.351  -0.201 -23.160  1.00  0.00    -0.244 OA
BRANCH   6   8
HETATM    8  C6  UNL     1     -21.187   1.672 -23.150  1.00  0.00     0.477 C
HETATM    9  F1  UNL     1     -21.645   2.967 -22.982  1.00  0.00    -0.158 F
HETATM   10  F2  UNL     1     -20.964   1.162 -21.879  1.00  0.00    -0.158 F
HETATM   11  F3  UNL     1     -20.012   1.760 -23.878  1.00  0.00    -0.158 F
ENDBRANCH   6   8
ENDBRANCH   5   6
BRANCH   1  12
HETATM   12  S1  UNL     1     -20.145  -1.682 -23.529  1.00  0.00    -0.084 SA
BRANCH  12  13
HETATM   13  C1  UNL     1     -21.386  -2.740 -22.815  1.00  0.00     0.131 C
HETATM   14  N1  UNL     1     -21.872  -2.525 -21.673  1.00  0.00    -0.403 N
ATOM     15  H12 UNL     1     -21.533  -1.715 -21.154  1.00  0.00     0.155 HD
ATOM     16  H11 UNL     1     -22.582  -3.132 -21.264  1.00  0.00     0.155 HD
ENDBRANCH  12  13
ENDBRANCH   1  12
TORSDOF 4
ENDMDL