MODEL 4
REMARK VINA RESULT: -6.283678318      1.934      2.758
REMARK  5 active torsions:
REMARK  status: ('A' for Active; 'I' for Inactive)
REMARK    1  A    between atoms: O1_1  and  C1_3
REMARK    2  A    between atoms: C1_3  and  C2_4
REMARK    3  A    between atoms: C1_3  and  C11_15
REMARK    4  A    between atoms: C2_4  and  C3_5
REMARK    5  A    between atoms: C2_4  and  N1_10
ROOT
HETATM    1  C2  UNL     1     -21.474   0.297 -24.461  1.00  0.00     0.300 C
ENDROOT
BRANCH   1   2
HETATM    2  C1  UNL     1     -20.549   1.187 -23.714  1.00  0.00     0.264 C
BRANCH   2   3
HETATM    3  O1  UNL     1     -19.516   1.639 -24.535  1.00  0.00    -0.384 OA
ATOM      4  H1  UNL     1     -18.704   1.183 -24.345  1.00  0.00     0.210 HD
ENDBRANCH   2   3
BRANCH   2   5
HETATM    5  C11 UNL     1     -21.199   2.368 -23.057  1.00  0.00     0.415 C
HETATM    6  F1  UNL     1     -22.201   2.876 -23.862  1.00  0.00    -0.168 F
HETATM    7  F2  UNL     1     -21.802   1.990 -21.872  1.00  0.00    -0.168 F
HETATM    8  F3  UNL     1     -20.325   3.404 -22.825  1.00  0.00    -0.168 F
ENDBRANCH   2   5
ENDBRANCH   1   2
BRANCH   1   9
HETATM    9  C3  UNL     1     -21.222   0.284 -25.929  1.00  0.00     0.018 A
HETATM   10  C4  UNL     1     -20.478  -0.634 -26.631  1.00  0.00     0.017 A
HETATM   11  C5  UNL     1     -20.382  -0.458 -27.947  1.00  0.00     0.008 A
HETATM   12  C6  UNL     1     -21.025   0.614 -28.501  1.00  0.00     0.050 A
HETATM   13  S1  UNL     1     -21.754   1.353 -27.147  1.00  0.00    -0.104 SA
ENDBRANCH   1   9
BRANCH   1  14
HETATM   14  N1  UNL     1     -21.229  -1.076 -23.996  1.00  0.00     0.107 N
HETATM   15  C7  UNL     1     -22.498  -1.754 -23.721  1.00  0.00     0.301 C
HETATM   16  C8  UNL     1     -22.045  -2.849 -22.806  1.00  0.00     0.001 C
HETATM   17  C9  UNL     1     -20.938  -2.441 -22.195  1.00  0.00     0.001 C
HETATM   18  C10 UNL     1     -20.620  -1.071 -22.681  1.00  0.00     0.301 C
ENDBRANCH   1  14
TORSDOF 5
ENDMDL