MODEL 3
REMARK VINA RESULT: -6.745561184      2.034      3.510
REMARK  4 active torsions:
REMARK  status: ('A' for Active; 'I' for Inactive)
REMARK    1  A    between atoms: C2_2  and  N1_4
REMARK    2  A    between atoms: C2_2  and  C11_18
REMARK    3  A    between atoms: N1_4  and  C3_6
REMARK    4  A    between atoms: C3_6  and  C4_7
ROOT
HETATM    1  C3  UNL     1     -21.484   0.927 -24.175  1.00  0.00     0.072 C
HETATM    2  C8  UNL     1     -22.396   2.209 -24.202  1.00  0.00     0.037 C
HETATM    3  C9  UNL     1     -21.578   2.606 -22.960  1.00  0.00     0.006 C
HETATM    4  C10 UNL     1     -20.428   1.866 -23.671  1.00  0.00     0.037 C
ENDROOT
BRANCH   1   5
HETATM    5  N1  UNL     1     -22.043   0.054 -23.256  1.00  0.00    -0.366 N
ATOM      6  H1  UNL     1     -23.047   0.124 -23.090  1.00  0.00     0.158 HD
BRANCH   5   7
HETATM    7  C2  UNL     1     -21.341  -0.910 -22.542  1.00  0.00     0.267 C
HETATM    8  C1  UNL     1     -21.611  -0.872 -21.060  1.00  0.00     0.086 C
HETATM    9  F1  UNL     1     -19.948  -0.749 -22.680  1.00  0.00    -0.210 F
BRANCH   7  10
HETATM   10  C11 UNL     1     -21.633  -2.331 -23.074  1.00  0.00     0.442 C
HETATM   11  F2  UNL     1     -21.991  -3.176 -22.042  1.00  0.00    -0.166 F
HETATM   12  F3  UNL     1     -20.482  -2.819 -23.699  1.00  0.00    -0.166 F
HETATM   13  F4  UNL     1     -22.699  -2.286 -23.947  1.00  0.00    -0.166 F
ENDBRANCH   7  10
ENDBRANCH   5   7
ENDBRANCH   1   5
BRANCH   1  14
HETATM   14  C4  UNL     1     -21.331   0.496 -25.583  1.00  0.00     0.053 A
HETATM   15  C5  UNL     1     -21.987   1.194 -26.568  1.00  0.00     0.030 A
HETATM   16  C6  UNL     1     -21.881   0.865 -27.908  1.00  0.00     0.021 A
HETATM   17  C7  UNL     1     -21.071  -0.213 -28.209  1.00  0.00     0.107 A
HETATM   18  N2  UNL     1     -20.451  -0.863 -27.217  1.00  0.00    -0.312 N
HETATM   19  N3  UNL     1     -20.563  -0.536 -25.933  1.00  0.00    -0.303 N
ATOM     20  H2  UNL     1     -19.859  -1.656 -27.459  1.00  0.00     0.186 HD
ATOM     21  H3  UNL     1     -20.065  -1.071 -25.221  1.00  0.00     0.186 HD
ENDBRANCH   1  14
TORSDOF 4
ENDMDL