MODEL 4
REMARK VINA RESULT: -6.599059444      1.109      1.275
REMARK  4 active torsions:
REMARK  status: ('A' for Active; 'I' for Inactive)
REMARK    1  A    between atoms: C2_2  and  C3_3
REMARK    2  A    between atoms: C3_3  and  C4_4
REMARK    3  A    between atoms: C11_13  and  O3_14
REMARK    4  A    between atoms: C11_13  and  C12_16
ROOT
HETATM    1  C4  UNL     1     -21.549   0.380 -24.462  1.00  0.00     0.092 C
HETATM    2  C5  UNL     1     -22.496  -0.455 -25.183  1.00  0.00    -0.007 C
HETATM    3  C6  UNL     1     -22.250  -0.907 -26.401  1.00  0.00     0.007 C
HETATM    4  C7  UNL     1     -20.988  -0.584 -27.099  1.00  0.00     0.074 C
HETATM    5  C8  UNL     1     -20.094  -1.799 -27.054  1.00  0.00     0.050 C
HETATM    6  C9  UNL     1     -21.230  -0.285 -28.578  1.00  0.00     0.050 C
HETATM    7  O1  UNL     1     -20.391   0.545 -26.572  1.00  0.00    -0.346 OA
HETATM    8  C10 UNL     1     -20.263   0.535 -25.207  1.00  0.00     0.283 C
HETATM    9  O2  UNL     1     -19.856  -0.674 -24.641  1.00  0.00    -0.318 OA
HETATM   10  C11 UNL     1     -20.585  -0.313 -23.532  1.00  0.00     0.241 C
ENDROOT
BRANCH  10  11
HETATM   11  O3  UNL     1     -19.899   0.610 -22.767  1.00  0.00    -0.360 OA
ATOM     12  H3  UNL     1     -19.893   1.460 -23.192  1.00  0.00     0.213 HD
ENDBRANCH  10  11
BRANCH  10  13
HETATM   13  C12 UNL     1     -21.149  -1.415 -22.696  1.00  0.00     0.416 C
HETATM   14  F1  UNL     1     -20.392  -2.565 -22.959  1.00  0.00    -0.208 F
HETATM   15  F2  UNL     1     -21.138  -1.163 -21.359  1.00  0.00    -0.208 F
ENDBRANCH  10  13
BRANCH   1  16
HETATM   16  C3  UNL     1     -22.097   1.615 -23.799  1.00  0.00     0.050 C
BRANCH  16  17
HETATM   17  C2  UNL     1     -23.200   2.237 -24.571  1.00  0.00    -0.035 C
HETATM   18  C1  UNL     1     -23.050   2.846 -25.736  1.00  0.00     0.007 C
ENDBRANCH  16  17
ENDBRANCH   1  16
TORSDOF 4
ENDMDL