MODEL 4
REMARK VINA RESULT: -7.003554484      0.406      1.491
REMARK  5 active torsions:
REMARK  status: ('A' for Active; 'I' for Inactive)
REMARK    1  A    between atoms: C5_5  and  C6_6
REMARK    2  A    between atoms: C6_6  and  C7_7
REMARK    3  A    between atoms: C6_6  and  N1_10
REMARK    4  A    between atoms: C6_6  and  C9_16
REMARK    5  A    between atoms: N1_10  and  O2_14
ROOT
HETATM    1  C6  UNL     1     -21.304  -0.381 -23.811  1.00  0.00     0.227 C
ENDROOT
BRANCH   1   2
HETATM    2  C5  UNL     1     -21.162  -0.152 -25.257  1.00  0.00    -0.014 A
HETATM    3  C4  UNL     1     -20.699  -1.121 -26.145  1.00  0.00     0.011 A
HETATM    4  C3  UNL     1     -20.550  -0.894 -27.496  1.00  0.00     0.007 A
HETATM    5  C2  UNL     1     -20.852   0.314 -28.050  1.00  0.00    -0.062 A
HETATM    6  C1  UNL     1     -20.690   0.555 -29.511  1.00  0.00     0.048 C
HETATM    7  C11 UNL     1     -21.318   1.304 -27.200  1.00  0.00     0.007 A
HETATM    8  C10 UNL     1     -21.466   1.077 -25.846  1.00  0.00     0.011 A
ENDBRANCH   1   2
BRANCH   1   9
HETATM    9  C7  UNL     1     -21.377  -1.855 -23.529  1.00  0.00     0.191 A
HETATM   10  C8  UNL     1     -21.270  -2.477 -22.252  1.00  0.00     0.203 A
HETATM   11  O1  UNL     1     -20.121  -2.429 -23.143  1.00  0.00    -0.378 OA
ENDBRANCH   1   9
BRANCH   1  12
HETATM   12  N1  UNL     1     -20.192   0.244 -23.097  1.00  0.00    -0.181 N
HETATM   13  N2  UNL     1     -19.021   0.137 -23.539  1.00  0.00    -0.322 N
ATOM     14  H22 UNL     1     -18.865  -0.384 -24.402  1.00  0.00     0.179 HD
ATOM     15  H21 UNL     1     -18.245   0.573 -23.041  1.00  0.00     0.179 HD
BRANCH  12  16
HETATM   16  O2  UNL     1     -20.402   0.943 -21.938  1.00  0.00    -0.271 OA
ATOM     17  H2  UNL     1     -20.431   0.501 -21.098  1.00  0.00     0.246 HD
ENDBRANCH  12  16
ENDBRANCH   1  12
BRANCH   1  18
HETATM   18  C9  UNL     1     -22.582   0.289 -23.321  1.00  0.00     0.423 C
HETATM   19  F1  UNL     1     -22.630   1.637 -23.523  1.00  0.00    -0.168 F
HETATM   20  F2  UNL     1     -22.650   0.080 -21.943  1.00  0.00    -0.168 F
HETATM   21  F3  UNL     1     -23.694  -0.329 -23.876  1.00  0.00    -0.168 F
ENDBRANCH   1  18
TORSDOF 5
ENDMDL