MODEL 5
REMARK VINA RESULT: -6.560462934      1.744      1.833
REMARK  5 active torsions:
REMARK  status: ('A' for Active; 'I' for Inactive)
REMARK    1  A    between atoms: C2_2  and  C3_3
REMARK    2  A    between atoms: C4_7  and  C5_8
REMARK    3  A    between atoms: C5_8  and  C6_9
REMARK    4  A    between atoms: C6_9  and  C7_10
REMARK    5  A    between atoms: C7_10  and  O1_11
ROOT
HETATM    1  C1  UNL     1     -19.993   0.811 -24.413  1.00  0.00     0.049 C
HETATM    2  C2  UNL     1     -21.172  -0.138 -24.264  1.00  0.00     0.139 C
HETATM    3  C4  UNL     1     -21.562  -0.748 -25.584  1.00  0.00     0.023 C
HETATM    4  C8  UNL     1     -20.306  -1.335 -26.190  1.00  0.00     0.009 C
HETATM    5  C9  UNL     1     -19.703  -2.391 -25.327  1.00  0.00     0.021 C
HETATM    6  C10 UNL     1     -19.669  -2.053 -23.856  1.00  0.00     0.136 C
HETATM    7  N1  UNL     1     -20.786  -1.253 -23.444  1.00  0.00    -0.301 N
HETATM    8  C11 UNL     1     -21.477  -1.542 -22.289  1.00  0.00     0.180 C
HETATM    9  N2  UNL     1     -22.058  -1.811 -21.302  1.00  0.00    -0.172 NA
ENDROOT
BRANCH   2  10
HETATM   10  C3  UNL     1     -22.252   0.635 -23.588  1.00  0.00     0.413 C
HETATM   11  F1  UNL     1     -21.959   1.092 -22.344  1.00  0.00    -0.168 F
HETATM   12  F2  UNL     1     -22.506   1.763 -24.386  1.00  0.00    -0.168 F
HETATM   13  F3  UNL     1     -23.473  -0.056 -23.635  1.00  0.00    -0.168 F
ENDBRANCH   2  10
BRANCH   3  14
HETATM   14  C5  UNL     1     -22.316   0.132 -26.499  1.00  0.00     0.009 C
BRANCH  14  15
HETATM   15  C6  UNL     1     -21.712   0.259 -27.873  1.00  0.00     0.027 C
BRANCH  15  16
HETATM   16  C7  UNL     1     -20.992   1.604 -28.030  1.00  0.00     0.164 C
BRANCH  16  17
HETATM   17  O1  UNL     1     -19.653   1.436 -28.292  1.00  0.00    -0.401 OA
ATOM     18  H1  UNL     1     -19.469   0.571 -28.636  1.00  0.00     0.209 HD
ENDBRANCH  16  17
ENDBRANCH  15  16
ENDBRANCH  14  15
ENDBRANCH   3  14
TORSDOF 5
ENDMDL