MODEL 2
REMARK VINA RESULT: -7.378149572      1.366      4.039
REMARK  4 active torsions:
REMARK  status: ('A' for Active; 'I' for Inactive)
REMARK    1  A    between atoms: C2_2  and  C3_3
REMARK    2  A    between atoms: N1_6  and  C5_7
REMARK    3  A    between atoms: C11_13  and  O2_14
REMARK    4  A    between atoms: C11_13  and  C12_16
ROOT
HETATM    1  C3  UNL     1     -20.320  -1.517 -23.099  1.00  0.00     0.101 C
HETATM    2  C4  UNL     1     -21.690  -2.172 -23.308  1.00  0.00     0.215 C
HETATM    3  O1  UNL     1     -22.493  -1.179 -23.740  1.00  0.00    -0.274 OA
HETATM    4  N1  UNL     1     -21.776  -0.034 -23.977  1.00  0.00    -0.213 N
HETATM    5  C11 UNL     1     -20.639  -0.043 -23.111  1.00  0.00     0.265 C
ENDROOT
BRANCH   4   6
HETATM    6  C5  UNL     1     -22.191   0.923 -24.948  1.00  0.00     0.061 A
HETATM    7  C6  UNL     1     -22.878   2.063 -24.638  1.00  0.00     0.032 A
HETATM    8  C7  UNL     1     -23.244   2.957 -25.630  1.00  0.00     0.002 A
HETATM    9  C8  UNL     1     -22.950   2.769 -26.960  1.00  0.00     0.000 A
HETATM   10  C9  UNL     1     -22.258   1.624 -27.287  1.00  0.00     0.002 A
HETATM   11  C10 UNL     1     -21.896   0.738 -26.301  1.00  0.00     0.032 A
ENDBRANCH   4   6
BRANCH   5  12
HETATM   12  O2  UNL     1     -19.544   0.667 -23.499  1.00  0.00    -0.361 OA
ATOM     13  H2  UNL     1     -19.808   1.524 -23.811  1.00  0.00     0.213 HD
ENDBRANCH   5  12
BRANCH   5  14
HETATM   14  C12 UNL     1     -21.021   0.324 -21.676  1.00  0.00     0.440 C
HETATM   15  F1  UNL     1     -22.372   0.543 -21.547  1.00  0.00    -0.166 F
HETATM   16  F2  UNL     1     -20.390   1.518 -21.406  1.00  0.00    -0.166 F
HETATM   17  F3  UNL     1     -20.606  -0.644 -20.830  1.00  0.00    -0.166 F
ENDBRANCH   5  14
BRANCH   1  18
HETATM   18  C2  UNL     1     -19.424  -2.028 -24.129  1.00  0.00    -0.025 C
HETATM   19  C1  UNL     1     -19.620  -2.462 -25.331  1.00  0.00     0.007 C
ENDBRANCH   1  18
TORSDOF 4
ENDMDL