MODEL 3
REMARK VINA RESULT: -5.671053782      0.777      1.235
REMARK  5 active torsions:
REMARK  status: ('A' for Active; 'I' for Inactive)
REMARK    1  A    between atoms: C2_2  and  N1_4
REMARK    2  A    between atoms: C2_2  and  O1_12
REMARK    3  A    between atoms: O1_12  and  C7_13
REMARK    4  A    between atoms: C7_13  and  C8_14
REMARK    5  A    between atoms: C8_14  and  C9_15
ROOT
HETATM    1  C1  UNL     1     -20.170  -1.761 -27.162  1.00  0.00     0.070 C
HETATM    2  C2  UNL     1     -21.279  -0.703 -27.015  1.00  0.00     0.128 C
HETATM    3  C3  UNL     1     -22.275  -1.129 -28.132  1.00  0.00     0.070 C
ENDROOT
BRANCH   2   4
HETATM    4  N1  UNL     1     -21.981  -0.879 -25.821  1.00  0.00    -0.340 N
HETATM    5  C4  UNL     1     -21.652  -0.775 -24.620  1.00  0.00     0.142 C
HETATM    6  N2  UNL     1     -22.468  -0.983 -23.471  1.00  0.00    -0.350 N
HETATM    7  S1  UNL     1     -20.063  -0.312 -23.949  1.00  0.00    -0.089 SA
HETATM    8  C5  UNL     1     -22.112  -0.265 -22.334  1.00  0.00     0.073 C
ATOM      9  H2  UNL     1     -23.265  -1.619 -23.482  1.00  0.00     0.167 HD
HETATM   10  C6  UNL     1     -20.699   0.110 -22.287  1.00  0.00     0.127 C
ATOM     11  H1  UNL     1     -22.956  -1.147 -25.956  1.00  0.00     0.164 HD
ENDBRANCH   2   4
BRANCH   2  12
HETATM   12  O1  UNL     1     -20.708   0.485 -27.326  1.00  0.00    -0.361 OA
BRANCH  12  13
HETATM   13  C7  UNL     1     -20.493   0.858 -28.593  1.00  0.00     0.179 C
BRANCH  13  14
HETATM   14  C8  UNL     1     -19.834   2.179 -28.851  1.00  0.00     0.144 C
BRANCH  14  15
HETATM   15  C9  UNL     1     -18.384   2.086 -29.194  1.00  0.00     0.389 C
HETATM   16  F1  UNL     1     -17.967   0.772 -29.006  1.00  0.00    -0.171 F
HETATM   17  F2  UNL     1     -18.013   2.502 -30.415  1.00  0.00    -0.171 F
HETATM   18  F3  UNL     1     -17.700   2.865 -28.239  1.00  0.00    -0.171 F
ENDBRANCH  14  15
ENDBRANCH  13  14
ENDBRANCH  12  13
ENDBRANCH   2  12
TORSDOF 5
ENDMDL