MODEL 5
REMARK VINA RESULT: -7.902678078      3.856      8.035
REMARK  12 active torsions:
REMARK  status: ('A' for Active; 'I' for Inactive)
REMARK    1  A    between atoms: C2_2  and  C3_3
REMARK    2  A    between atoms: C3_3  and  C4_4
REMARK    3  A    between atoms: C7_7  and  C8_8
REMARK    4  A    between atoms: C8_8  and  N1_9
REMARK    5  A    between atoms: N1_9  and  C9_12
REMARK    6  A    between atoms: C9_12  and  C10_13
REMARK    7  A    between atoms: C10_13  and  O1_14
REMARK    8  A    between atoms: C10_13  and  C11_16
REMARK    9  A    between atoms: C11_16  and  O2_17
REMARK   10  A    between atoms: O2_17  and  C12_18
REMARK   11  A    between atoms: C15_21  and  N2_22
REMARK   12  A    between atoms: C17_30  and  O3_31
ROOT
HETATM    1  C9  UNL     1      42.704  16.161  19.497  1.00  0.00     0.266 C
ENDROOT
BRANCH   1   2
HETATM    2  N1  UNL     1      41.278  16.074  19.750  1.00  0.00    -0.069 N
ATOM      3  H12 UNL     1      40.931  15.122  19.631  1.00  0.00     0.277 HD
ATOM      4  H11 UNL     1      40.735  16.527  19.014  1.00  0.00     0.277 HD
BRANCH   2   5
HETATM    5  C8  UNL     1      40.962  16.595  21.038  1.00  0.00     0.271 C
BRANCH   5   6
HETATM    6  C7  UNL     1      39.806  15.915  21.702  1.00  0.00    -0.030 A
HETATM    7  C6  UNL     1      39.713  14.532  21.718  1.00  0.00     0.009 A
HETATM    8  C5  UNL     1      38.656  13.883  22.321  1.00  0.00     0.011 A
HETATM    9  C4  UNL     1      37.636  14.581  22.937  1.00  0.00    -0.021 A
HETATM   10  C17 UNL     1      37.720  15.955  22.926  1.00  0.00     0.075 A
HETATM   11  C16 UNL     1      38.793  16.619  22.314  1.00  0.00     0.046 A
BRANCH   9  12
HETATM   12  C3  UNL     1      36.500  13.838  23.571  1.00  0.00     0.067 C
BRANCH  12  13
HETATM   13  C2  UNL     1      36.809  13.454  24.969  1.00  0.00    -0.032 C
HETATM   14  C1  UNL     1      36.428  14.102  26.042  1.00  0.00     0.007 C
ENDBRANCH  12  13
ENDBRANCH   9  12
BRANCH  10  15
HETATM   15  O3  UNL     1      36.709  16.662  23.538  1.00  0.00    -0.355 OA
HETATM   16  C18 UNL     1      36.903  17.565  24.609  1.00  0.00     0.210 C
ENDBRANCH  10  15
ENDBRANCH   5   6
ENDBRANCH   2   5
ENDBRANCH   1   2
BRANCH   1  17
HETATM   17  C10 UNL     1      43.537  15.979  20.721  1.00  0.00     0.168 C
BRANCH  17  18
HETATM   18  O1  UNL     1      44.612  16.824  20.746  1.00  0.00    -0.392 OA
ATOM     19  H1  UNL     1      45.425  16.367  20.923  1.00  0.00     0.210 HD
ENDBRANCH  17  18
BRANCH  17  20
HETATM   20  C11 UNL     1      44.028  14.529  20.793  1.00  0.00     0.210 C
BRANCH  20  21
HETATM   21  O2  UNL     1      42.950  13.646  20.796  1.00  0.00    -0.332 OA
BRANCH  21  22
HETATM   22  C12 UNL     1      42.954  12.327  20.395  1.00  0.00     0.157 A
HETATM   23  C13 UNL     1      41.747  11.725  20.013  1.00  0.00     0.061 A
HETATM   24  C14 UNL     1      41.719  10.409  19.609  1.00  0.00     0.053 A
HETATM   25  C15 UNL     1      42.874   9.656  19.568  1.00  0.00     0.113 A
HETATM   26  N3  UNL     1      44.009  10.273  19.942  1.00  0.00    -0.284 N
HETATM   27  N4  UNL     1      44.046  11.550  20.337  1.00  0.00    -0.278 N
ATOM     28  H3  UNL     1      44.880   9.743  19.923  1.00  0.00     0.188 HD
ATOM     29  H4  UNL     1      44.944  11.951  20.607  1.00  0.00     0.189 HD
BRANCH  25  30
HETATM   30  N2  UNL     1      42.901   8.418  19.193  1.00  0.00    -0.384 N
ATOM     31  H22 UNL     1      42.835   8.182  18.203  1.00  0.00     0.157 HD
ATOM     32  H21 UNL     1      42.985   7.638  19.844  1.00  0.00     0.157 HD
ENDBRANCH  25  30
ENDBRANCH  21  22
ENDBRANCH  20  21
ENDBRANCH  17  20
ENDBRANCH   1  17
TORSDOF 12
ENDMDL