MODEL 2
REMARK VINA RESULT: -7.683901846      1.578      2.195
REMARK  12 active torsions:
REMARK  status: ('A' for Active; 'I' for Inactive)
REMARK    1  A    between atoms: C2_2  and  C3_6
REMARK    2  A    between atoms: C3_6  and  C4_7
REMARK    3  A    between atoms: C4_7  and  C5_8
REMARK    4  A    between atoms: C5_8  and  N2_9
REMARK    5  A    between atoms: C5_8  and  C6_13
REMARK    6  A    between atoms: C6_13  and  O2_15
REMARK    7  A    between atoms: O2_15  and  C7_16
REMARK    8  A    between atoms: C7_16  and  C8_17
REMARK    9  A    between atoms: C8_17  and  C9_18
REMARK   10  A    between atoms: C8_17  and  N3_20
REMARK       I    between atoms: N3_20  and  C10_22
REMARK   11  A    between atoms: C10_22  and  C11_24
REMARK   12  A    between atoms: C13_26  and  C14_27
ROOT
HETATM    1  C8  UNL     1      41.704  10.733  20.100  1.00  0.00     0.170 C
ENDROOT
BRANCH   1   2
HETATM    2  C7  UNL     1      42.191  11.939  19.376  1.00  0.00     0.211 C
BRANCH   2   3
HETATM    3  O2  UNL     1      43.371  12.522  19.679  1.00  0.00    -0.317 OA
BRANCH   3   4
HETATM    4  C6  UNL     1      43.688  13.442  20.603  1.00  0.00     0.289 C
HETATM    5  O1  UNL     1      44.378  13.152  21.603  1.00  0.00    -0.263 OA
BRANCH   4   6
HETATM    6  C5  UNL     1      43.241  14.878  20.502  1.00  0.00     0.282 C
BRANCH   6   7
HETATM    7  C4  UNL     1      42.019  14.990  21.386  1.00  0.00     0.049 C
BRANCH   7   8
HETATM    8  C3  UNL     1      40.736  15.081  20.609  1.00  0.00     0.054 C
BRANCH   8   9
HETATM    9  C2  UNL     1      39.959  16.307  20.853  1.00  0.00    -0.024 C
HETATM   10  C1  UNL     1      39.157  16.535  22.085  1.00  0.00     0.062 C
HETATM   11  N1  UNL     1      39.985  17.213  19.949  1.00  0.00    -0.406 N
ATOM     12  H12 UNL     1      39.447  18.062  20.117  1.00  0.00     0.155 HD
ATOM     13  H11 UNL     1      40.535  17.057  19.103  1.00  0.00     0.155 HD
ENDBRANCH   8   9
ENDBRANCH   7   8
ENDBRANCH   6   7
BRANCH   6  14
HETATM   14  N2  UNL     1      44.323  15.720  20.901  1.00  0.00    -0.066 N
ATOM     15  H23 UNL     1      45.212  15.338  20.578  1.00  0.00     0.275 HD
ATOM     16  H22 UNL     1      44.310  16.594  20.375  1.00  0.00     0.275 HD
ATOM     17  H21 UNL     1      44.355  15.904  21.903  1.00  0.00     0.275 HD
ENDBRANCH   6  14
ENDBRANCH   4   6
ENDBRANCH   3   4
ENDBRANCH   2   3
ENDBRANCH   1   2
BRANCH   1  18
HETATM   18  C9  UNL     1      41.403   9.580  19.270  1.00  0.00     0.258 C
HETATM   19  O3  UNL     1      42.299   8.940  18.682  1.00  0.00    -0.305 OA
ENDBRANCH   1  18
BRANCH   1  20
HETATM   20  N3  UNL     1      40.405  11.163  20.700  1.00  0.00    -0.343 N
HETATM   21  C10 UNL     1      40.343  11.605  22.039  1.00  0.00     0.270 C
HETATM   22  O4  UNL     1      41.411  11.625  22.710  1.00  0.00    -0.266 OA
ATOM     23  H3  UNL     1      39.556  11.138  20.137  1.00  0.00     0.163 HD
BRANCH  21  24
HETATM   24  C11 UNL     1      39.074  12.021  22.616  1.00  0.00     0.117 A
HETATM   25  C12 UNL     1      38.899  13.138  23.441  1.00  0.00     0.063 A
HETATM   26  C13 UNL     1      37.559  13.142  23.742  1.00  0.00     0.031 A
HETATM   27  N4  UNL     1      37.000  12.104  23.136  1.00  0.00    -0.304 N
HETATM   28  N5  UNL     1      37.898  11.419  22.454  1.00  0.00    -0.295 N
ATOM     29  H4  UNL     1      36.009  11.866  23.189  1.00  0.00     0.186 HD
ATOM     30  H5  UNL     1      37.723  10.580  21.902  1.00  0.00     0.187 HD
BRANCH  26  31
HETATM   31  C14 UNL     1      36.918  14.160  24.604  1.00  0.00     0.029 C
HETATM   32  C15 UNL     1      36.092  13.481  25.649  1.00  0.00     0.016 C
HETATM   33  C16 UNL     1      36.004  14.978  23.698  1.00  0.00     0.016 C
ENDBRANCH  26  31
ENDBRANCH  21  24
ENDBRANCH   1  20
TORSDOF 12
ENDMDL