MODEL 3
REMARK VINA RESULT: -7.998869180      1.335      1.758
REMARK  12 active torsions:
REMARK  status: ('A' for Active; 'I' for Inactive)
REMARK    1  A    between atoms: C2_2  and  O1_3
REMARK    2  A    between atoms: O1_3  and  C3_4
REMARK    3  A    between atoms: C6_7  and  C7_8
REMARK    4  A    between atoms: C7_8  and  C8_9
REMARK    5  A    between atoms: C8_9  and  N1_10
REMARK    6  A    between atoms: N1_10  and  C9_12
REMARK    7  A    between atoms: C9_12  and  C10_13
REMARK    8  A    between atoms: C10_13  and  O2_14
REMARK    9  A    between atoms: C10_13  and  C11_16
REMARK   10  A    between atoms: C11_16  and  O3_17
REMARK   11  A    between atoms: O3_17  and  C12_18
REMARK   12  A    between atoms: C14_22  and  N3_23
ROOT
HETATM    1  C10 UNL     1      42.248  10.414  21.184  1.00  0.00     0.159 C
ENDROOT
BRANCH   1   2
HETATM    2  C9  UNL     1      41.366  11.261  22.066  1.00  0.00     0.147 C
BRANCH   2   3
HETATM    3  N1  UNL     1      40.137  11.550  21.398  1.00  0.00    -0.418 N
ATOM      4  H1  UNL     1      39.728  10.913  20.714  1.00  0.00     0.153 HD
BRANCH   3   5
HETATM    5  C8  UNL     1      39.519  12.780  21.747  1.00  0.00     0.118 C
BRANCH   5   6
HETATM    6  C7  UNL     1      38.952  12.877  23.120  1.00  0.00     0.057 C
BRANCH   6   7
HETATM    7  C6  UNL     1      38.286  14.157  23.432  1.00  0.00    -0.057 A
HETATM    8  C5  UNL     1      37.321  14.303  24.389  1.00  0.00     0.010 A
HETATM    9  C4  UNL     1      36.714  15.496  24.667  1.00  0.00     0.037 A
HETATM   10  C3  UNL     1      37.062  16.670  23.962  1.00  0.00     0.068 A
HETATM   11  C17 UNL     1      38.032  16.532  22.997  1.00  0.00     0.037 A
HETATM   12  C16 UNL     1      38.636  15.291  22.736  1.00  0.00     0.010 A
BRANCH  10  13
HETATM   13  O1  UNL     1      36.415  17.842  24.287  1.00  0.00    -0.352 OA
BRANCH  13  14
HETATM   14  C2  UNL     1      35.992  18.773  23.345  1.00  0.00     0.171 C
HETATM   15  C1  UNL     1      34.682  18.345  22.743  1.00  0.00     0.034 C
ENDBRANCH  13  14
ENDBRANCH  10  13
ENDBRANCH   6   7
ENDBRANCH   5   6
ENDBRANCH   3   5
ENDBRANCH   2   3
ENDBRANCH   1   2
BRANCH   1  16
HETATM   16  O2  UNL     1      42.931   9.443  21.887  1.00  0.00    -0.392 OA
ATOM     17  H2  UNL     1      42.800   8.572  21.531  1.00  0.00     0.210 HD
ENDBRANCH   1  16
BRANCH   1  18
HETATM   18  C11 UNL     1      43.240  11.315  20.464  1.00  0.00     0.209 C
BRANCH  18  19
HETATM   19  O3  UNL     1      42.591  12.323  19.749  1.00  0.00    -0.346 OA
BRANCH  19  20
HETATM   20  C12 UNL     1      42.900  13.666  19.828  1.00  0.00     0.100 A
HETATM   21  C13 UNL     1      42.316  14.625  19.032  1.00  0.00     0.144 A
HETATM   22  N2  UNL     1      42.682  15.912  19.181  1.00  0.00    -0.199 N
HETATM   23  C14 UNL     1      43.605  16.303  20.089  1.00  0.00     0.675 A
ATOM     24  H2  UNL     1      42.246  16.619  18.589  1.00  0.00     0.183 HD
HETATM   25  N4  UNL     1      44.196  15.394  20.882  1.00  0.00    -0.199 N
HETATM   26  C15 UNL     1      43.844  14.109  20.748  1.00  0.00     0.144 A
ATOM     27  H4  UNL     1      44.894  15.676  21.570  1.00  0.00     0.183 HD
BRANCH  23  28
HETATM   28  N3  UNL     1      43.936  17.548  20.209  1.00  0.00    -0.234 N
ATOM     29  H32 UNL     1      44.912  17.786  20.383  1.00  0.00     0.174 HD
ATOM     30  H31 UNL     1      43.236  18.286  20.131  1.00  0.00     0.174 HD
ENDBRANCH  23  28
ENDBRANCH  19  20
ENDBRANCH  18  19
ENDBRANCH   1  18
TORSDOF 12
ENDMDL