MODEL 2
REMARK VINA RESULT: -7.984921448      4.480      8.571
REMARK  11 active torsions:
REMARK  status: ('A' for Active; 'I' for Inactive)
REMARK    1  A    between atoms: S1_2  and  C2_5
REMARK    2  A    between atoms: C2_5  and  C3_6
REMARK    3  A    between atoms: C3_6  and  O3_7
REMARK    4  A    between atoms: C3_6  and  C4_9
REMARK    5  A    between atoms: C4_9  and  N1_10
REMARK    6  A    between atoms: N1_10  and  C5_12
REMARK    7  A    between atoms: C8_15  and  C9_16
REMARK    8  A    between atoms: C9_16  and  N2_17
REMARK    9  A    between atoms: N2_17  and  C10_19
REMARK   10  A    between atoms: C10_19  and  C11_20
REMARK   11  A    between atoms: C11_20  and  C12_21
ROOT
HETATM    1  C5  UNL     1      38.273  12.910  22.433  1.00  0.00     0.028 A
HETATM    2  C6  UNL     1      37.416  11.989  22.989  1.00  0.00     0.029 A
HETATM    3  C7  UNL     1      36.695  12.248  24.136  1.00  0.00     0.011 A
HETATM    4  C8  UNL     1      36.799  13.465  24.798  1.00  0.00    -0.041 A
HETATM    5  C15 UNL     1      37.657  14.392  24.245  1.00  0.00     0.011 A
HETATM    6  C16 UNL     1      38.377  14.135  23.100  1.00  0.00     0.029 A
ENDROOT
BRANCH   4   7
HETATM    7  C9  UNL     1      36.025  13.753  26.032  1.00  0.00     0.152 C
BRANCH   7   8
HETATM    8  N2  UNL     1      36.079  15.165  26.248  1.00  0.00    -0.417 N
ATOM      9  H2  UNL     1      36.924  15.626  26.584  1.00  0.00     0.153 HD
BRANCH   8  10
HETATM   10  C10 UNL     1      34.889  15.891  25.969  1.00  0.00     0.120 C
BRANCH  10  11
HETATM   11  C11 UNL     1      35.097  17.371  25.805  1.00  0.00     0.077 C
BRANCH  11  12
HETATM   12  C12 UNL     1      35.909  17.563  24.587  1.00  0.00     0.027 A
HETATM   13  C13 UNL     1      35.510  17.312  23.295  1.00  0.00     0.114 A
HETATM   14  N3  UNL     1      36.510  17.604  22.440  1.00  0.00    -0.360 N
HETATM   15  C14 UNL     1      37.525  18.036  23.198  1.00  0.00     0.180 A
ATOM     16  H3  UNL     1      36.496  17.516  21.424  1.00  0.00     0.166 HD
HETATM   17  N4  UNL     1      37.165  18.014  24.516  1.00  0.00    -0.355 N
ATOM     18  H4  UNL     1      37.750  18.293  25.303  1.00  0.00     0.166 HD
ENDBRANCH  11  12
ENDBRANCH  10  11
ENDBRANCH   8  10
ENDBRANCH   7   8
ENDBRANCH   4   7
BRANCH   1  19
HETATM   19  N1  UNL     1      39.022  12.702  21.261  1.00  0.00    -0.387 N
ATOM     20  H1  UNL     1      38.527  12.369  20.434  1.00  0.00     0.159 HD
BRANCH  19  21
HETATM   21  C4  UNL     1      40.429  12.926  21.151  1.00  0.00     0.152 C
BRANCH  21  22
HETATM   22  C3  UNL     1      41.167  11.652  21.404  1.00  0.00     0.149 C
BRANCH  22  23
HETATM   23  C2  UNL     1      42.655  11.733  21.188  1.00  0.00     0.173 C
BRANCH  23  24
HETATM   24  S1  UNL     1      43.486  10.185  21.257  1.00  0.00     0.143 S
HETATM   25  C1  UNL     1      43.917   9.739  19.568  1.00  0.00     0.161 C
HETATM   26  O1  UNL     1      44.767  10.304  22.049  1.00  0.00    -0.228 OA
HETATM   27  O2  UNL     1      42.603   9.118  21.824  1.00  0.00    -0.228 OA
ENDBRANCH  23  24
ENDBRANCH  22  23
BRANCH  22  28
HETATM   28  O3  UNL     1      40.580  10.573  20.730  1.00  0.00    -0.393 OA
ATOM     29  H3  UNL     1      39.987  10.850  20.041  1.00  0.00     0.210 HD
ENDBRANCH  22  28
ENDBRANCH  21  22
ENDBRANCH  19  21
ENDBRANCH   1  19
TORSDOF 11
ENDMDL