MODEL 2
REMARK VINA RESULT: -8.156769418      3.088      7.169
REMARK  12 active torsions:
REMARK  status: ('A' for Active; 'I' for Inactive)
REMARK    1  A    between atoms: N1_1  and  C1_5
REMARK    2  A    between atoms: C3_7  and  O1_8
REMARK    3  A    between atoms: O1_8  and  C4_9
REMARK    4  A    between atoms: C4_9  and  C5_10
REMARK    5  A    between atoms: C5_10  and  N2_11
REMARK    6  A    between atoms: C5_10  and  C6_15
REMARK    7  A    between atoms: C6_15  and  O2_16
REMARK    8  A    between atoms: C6_15  and  C7_18
REMARK    9  A    between atoms: C7_18  and  C8_19
REMARK   10  A    between atoms: C7_18  and  O3_26
REMARK   11  A    between atoms: C8_19  and  C9_20
REMARK   12  A    between atoms: O3_26  and  C15_27
ROOT
HETATM    1  C6  UNL     1      39.915  13.578  21.791  1.00  0.00     0.180 C
ENDROOT
BRANCH   1   2
HETATM    2  C5  UNL     1      40.028  12.274  22.518  1.00  0.00     0.238 C
BRANCH   2   3
HETATM    3  C4  UNL     1      41.240  11.480  22.088  1.00  0.00     0.206 C
BRANCH   3   4
HETATM    4  O1  UNL     1      40.959  10.578  21.083  1.00  0.00    -0.359 OA
BRANCH   4   5
HETATM    5  C3  UNL     1      41.733  10.664  19.974  1.00  0.00     0.266 C
HETATM    6  C2  UNL     1      43.150  11.132  20.134  1.00  0.00     0.121 C
HETATM    7  C1  UNL     1      43.282   9.702  20.611  1.00  0.00     0.325 C
HETATM    8  O4  UNL     1      42.268   9.384  19.677  1.00  0.00    -0.329 OA
BRANCH   7   9
HETATM    9  N1  UNL     1      44.571   9.160  20.311  1.00  0.00    -0.053 N
ATOM     10  H13 UNL     1      44.673   8.216  20.684  1.00  0.00     0.277 HD
ATOM     11  H12 UNL     1      44.663   8.950  19.317  1.00  0.00     0.277 HD
ATOM     12  H11 UNL     1      45.322   9.771  20.633  1.00  0.00     0.277 HD
ENDBRANCH   7   9
ENDBRANCH   4   5
ENDBRANCH   3   4
ENDBRANCH   2   3
BRANCH   2  13
HETATM   13  N2  UNL     1      38.854  11.487  22.097  1.00  0.00    -0.070 N
ATOM     14  H23 UNL     1      38.712  10.643  22.651  1.00  0.00     0.274 HD
ATOM     15  H22 UNL     1      37.965  11.934  22.320  1.00  0.00     0.274 HD
ATOM     16  H21 UNL     1      38.980  11.304  21.101  1.00  0.00     0.274 HD
ENDBRANCH   2  13
ENDBRANCH   1   2
BRANCH   1  17
HETATM   17  O2  UNL     1      39.629  13.402  20.443  1.00  0.00    -0.391 OA
ATOM     18  H2  UNL     1      39.622  14.225  19.968  1.00  0.00     0.210 HD
ENDBRANCH   1  17
BRANCH   1  19
HETATM   19  C7  UNL     1      38.843  14.488  22.349  1.00  0.00     0.164 C
BRANCH  19  20
HETATM   20  C8  UNL     1      39.254  15.950  22.223  1.00  0.00     0.073 C
BRANCH  20  21
HETATM   21  C9  UNL     1      38.025  16.785  22.264  1.00  0.00    -0.056 A
HETATM   22  C10 UNL     1      37.990  17.975  22.999  1.00  0.00     0.007 A
HETATM   23  C11 UNL     1      36.865  18.768  23.056  1.00  0.00     0.001 A
HETATM   24  C12 UNL     1      35.731  18.405  22.382  1.00  0.00     0.000 A
HETATM   25  C13 UNL     1      35.724  17.229  21.638  1.00  0.00     0.001 A
HETATM   26  C14 UNL     1      36.862  16.456  21.600  1.00  0.00     0.007 A
ENDBRANCH  20  21
ENDBRANCH  19  20
BRANCH  19  27
HETATM   27  O3  UNL     1      38.647  14.242  23.714  1.00  0.00    -0.343 OA
BRANCH  27  28
HETATM   28  C15 UNL     1      37.445  14.060  24.368  1.00  0.00     0.069 A
HETATM   29  C16 UNL     1      36.811  12.841  24.444  1.00  0.00     0.037 A
HETATM   30  C17 UNL     1      35.608  12.641  25.094  1.00  0.00     0.003 A
HETATM   31  C18 UNL     1      35.036  13.740  25.692  1.00  0.00     0.000 A
HETATM   32  C19 UNL     1      35.653  14.969  25.628  1.00  0.00     0.003 A
HETATM   33  C20 UNL     1      36.846  15.148  24.978  1.00  0.00     0.037 A
ENDBRANCH  27  28
ENDBRANCH  19  27
ENDBRANCH   1  19
TORSDOF 12
ENDMDL