MODEL 1
REMARK VINA RESULT: -6.928297903      0.000      0.000
REMARK  13 active torsions:
REMARK  status: ('A' for Active; 'I' for Inactive)
REMARK    1  A    between atoms: O1_2  and  C2_3
REMARK    2  A    between atoms: C5_6  and  N1_7
REMARK    3  A    between atoms: N1_7  and  C6_9
REMARK    4  A    between atoms: C6_9  and  N2_11
REMARK    5  A    between atoms: N2_11  and  C7_13
REMARK    6  A    between atoms: C7_13  and  C8_14
REMARK    7  A    between atoms: C8_14  and  S2_15
REMARK    8  A    between atoms: S2_15  and  C9_16
REMARK    9  A    between atoms: C9_16  and  C10_17
REMARK   10  A    between atoms: C10_17  and  O2_18
REMARK   11  A    between atoms: O2_18  and  N3_19
REMARK   12  A    between atoms: N3_19  and  C11_21
REMARK   13  A    between atoms: N4_22  and  C12_24
ROOT
HETATM    1  N2  UNL     1      40.819  13.059  20.005  1.00  0.00    -0.366 N
ATOM      2  H2  UNL     1      41.308  12.254  19.611  1.00  0.00     0.161 HD
ENDROOT
BRANCH   1   3
HETATM    3  C6  UNL     1      40.239  13.054  21.282  1.00  0.00     0.172 C
HETATM    4  S1  UNL     1      40.288  11.488  21.919  1.00  0.00    -0.041 SA
BRANCH   3   5
HETATM    5  N1  UNL     1      39.783  14.127  22.076  1.00  0.00    -0.333 N
ATOM      6  H1  UNL     1      40.370  14.937  22.279  1.00  0.00     0.168 HD
BRANCH   5   7
HETATM    7  C5  UNL     1      38.411  14.010  22.596  1.00  0.00     0.034 A
HETATM    8  C4  UNL     1      38.316  13.502  23.898  1.00  0.00     0.032 A
HETATM    9  C3  UNL     1      37.222  13.701  24.724  1.00  0.00     0.039 A
HETATM   10  C2  UNL     1      36.105  14.475  24.182  1.00  0.00     0.068 A
HETATM   11  C14 UNL     1      36.169  14.966  22.832  1.00  0.00     0.039 A
HETATM   12  C13 UNL     1      37.398  14.637  22.222  1.00  0.00     0.032 A
BRANCH  10  13
HETATM   13  O1  UNL     1      35.063  14.729  25.014  1.00  0.00    -0.356 OA
HETATM   14  C1  UNL     1      35.078  15.767  25.993  1.00  0.00     0.210 C
ENDBRANCH  10  13
ENDBRANCH   5   7
ENDBRANCH   3   5
ENDBRANCH   1   3
BRANCH   1  15
HETATM   15  C7  UNL     1      40.659  14.321  19.294  1.00  0.00     0.132 C
BRANCH  15  16
HETATM   16  C8  UNL     1      41.671  14.777  18.316  1.00  0.00     0.093 C
BRANCH  16  17
HETATM   17  S2  UNL     1      42.401  16.335  19.074  1.00  0.00    -0.165 SA
BRANCH  17  18
HETATM   18  C9  UNL     1      42.680  16.086  20.803  1.00  0.00     0.102 C
BRANCH  18  19
HETATM   19  C10 UNL     1      43.969  15.241  20.954  1.00  0.00     0.211 C
BRANCH  19  20
HETATM   20  O2  UNL     1      43.520  14.007  21.555  1.00  0.00    -0.279 OA
BRANCH  20  21
HETATM   21  N3  UNL     1      44.320  12.865  20.902  1.00  0.00    -0.262 N
ATOM     22  H3  UNL     1      44.935  12.850  20.089  1.00  0.00     0.195 HD
BRANCH  21  23
HETATM   23  C11 UNL     1      43.939  11.877  21.763  1.00  0.00     0.204 C
HETATM   24  N4  UNL     1      44.520  10.683  21.893  1.00  0.00    -0.349 N
ATOM     25  H4  UNL     1      45.303  10.474  22.512  1.00  0.00     0.167 HD
BRANCH  24  26
HETATM   26  C12 UNL     1      43.902   9.778  21.063  1.00  0.00     0.190 C
HETATM   27  N5  UNL     1      42.875   9.085  21.715  1.00  0.00    -0.097 NA
ENDBRANCH  24  26
ENDBRANCH  21  23
ENDBRANCH  20  21
ENDBRANCH  19  20
ENDBRANCH  18  19
ENDBRANCH  17  18
ENDBRANCH  16  17
ENDBRANCH  15  16
ENDBRANCH   1  15
TORSDOF 13
ENDMDL