MODEL 4
REMARK VINA RESULT: -7.772101236      1.760      2.170
REMARK  13 active torsions:
REMARK  status: ('A' for Active; 'I' for Inactive)
REMARK    1  A    between atoms: C3_3  and  N1_5
REMARK    2  A    between atoms: N1_5  and  C5_7
REMARK    3  A    between atoms: C5_7  and  C6_8
REMARK    4  A    between atoms: C6_8  and  O1_9
REMARK    5  A    between atoms: C6_8  and  C7_11
REMARK    6  A    between atoms: C7_11  and  O2_12
REMARK    7  A    between atoms: O2_12  and  C8_13
REMARK    8  A    between atoms: C13_18  and  O3_19
REMARK    9  A    between atoms: O3_19  and  C14_20
REMARK   10  A    between atoms: C14_20  and  C15_21
REMARK   11  A    between atoms: C15_21  and  O4_22
REMARK   12  A    between atoms: C15_21  and  C16_24
REMARK   13  A    between atoms: C16_24  and  N2_25
ROOT
HETATM    1  C1  UNL     1      36.819  17.761  24.572  1.00  0.00     0.014 C
HETATM    2  C2  UNL     1      36.256  17.025  25.345  1.00  0.00    -0.092 C
HETATM    3  C3  UNL     1      35.547  16.095  26.282  1.00  0.00     0.155 C
HETATM    4  C4  UNL     1      34.163  15.933  25.682  1.00  0.00     0.046 C
ENDROOT
BRANCH   3   5
HETATM    5  N1  UNL     1      36.319  14.907  26.331  1.00  0.00    -0.385 N
ATOM      6  H1  UNL     1      37.222  14.903  26.807  1.00  0.00     0.160 HD
BRANCH   5   7
HETATM    7  C5  UNL     1      35.836  13.737  25.721  1.00  0.00     0.090 C
BRANCH   7   8
HETATM    8  C6  UNL     1      36.504  13.213  24.494  1.00  0.00     0.180 C
BRANCH   8   9
HETATM    9  O1  UNL     1      35.798  13.856  23.421  1.00  0.00    -0.388 OA
ATOM     10  H1  UNL     1      35.549  13.137  22.852  1.00  0.00     0.210 HD
ENDBRANCH   8   9
BRANCH   8  11
HETATM   11  C7  UNL     1      37.909  13.863  24.334  1.00  0.00     0.213 C
BRANCH  11  12
HETATM   12  O2  UNL     1      38.164  13.989  22.980  1.00  0.00    -0.348 OA
BRANCH  12  13
HETATM   13  C8  UNL     1      39.324  14.084  22.290  1.00  0.00     0.078 A
HETATM   14  C9  UNL     1      39.873  15.277  21.864  1.00  0.00     0.044 A
HETATM   15  C10 UNL     1      41.061  15.366  21.148  1.00  0.00    -0.057 A
HETATM   16  C11 UNL     1      41.627  16.673  20.677  1.00  0.00     0.048 C
HETATM   17  C12 UNL     1      41.697  14.178  20.866  1.00  0.00     0.044 A
HETATM   18  C13 UNL     1      41.196  12.968  21.265  1.00  0.00     0.078 A
HETATM   19  C17 UNL     1      40.021  12.925  21.972  1.00  0.00     0.005 A
HETATM   20  C18 UNL     1      39.497  11.595  22.425  1.00  0.00     0.054 C
BRANCH  18  21
HETATM   21  O3  UNL     1      41.894  11.809  20.934  1.00  0.00    -0.348 OA
BRANCH  21  22
HETATM   22  C14 UNL     1      41.989  11.360  19.589  1.00  0.00     0.209 C
BRANCH  22  23
HETATM   23  C15 UNL     1      41.643   9.898  19.511  1.00  0.00     0.167 C
BRANCH  23  24
HETATM   24  O4  UNL     1      41.064   9.519  18.323  1.00  0.00    -0.392 OA
ATOM     25  H4  UNL     1      41.385   8.693  17.980  1.00  0.00     0.210 HD
ENDBRANCH  23  24
BRANCH  23  26
HETATM   26  C16 UNL     1      42.902   9.061  19.766  1.00  0.00     0.263 C
BRANCH  26  27
HETATM   27  N2  UNL     1      44.065   9.848  19.419  1.00  0.00    -0.077 N
ATOM     28  H23 UNL     1      44.704   9.964  20.206  1.00  0.00     0.274 HD
ATOM     29  H22 UNL     1      44.699   9.350  18.794  1.00  0.00     0.274 HD
ATOM     30  H21 UNL     1      43.758  10.740  19.033  1.00  0.00     0.274 HD
ENDBRANCH  26  27
ENDBRANCH  23  26
ENDBRANCH  22  23
ENDBRANCH  21  22
ENDBRANCH  18  21
ENDBRANCH  12  13
ENDBRANCH  11  12
ENDBRANCH   8  11
ENDBRANCH   7   8
ENDBRANCH   5   7
ENDBRANCH   3   5
TORSDOF 13
ENDMDL