MODEL 4
REMARK VINA RESULT: -7.353714259      1.852      2.399
REMARK  11 active torsions:
REMARK  status: ('A' for Active; 'I' for Inactive)
REMARK    1  A    between atoms: O1_2  and  C2_3
REMARK    2  A    between atoms: C2_3  and  C3_4
REMARK    3  A    between atoms: C3_4  and  C4_5
REMARK    4  A    between atoms: C3_4  and  O2_9
REMARK    5  A    between atoms: C4_5  and  C5_6
REMARK    6  A    between atoms: O2_9  and  C8_10
REMARK       I    between atoms: C8_10  and  N1_12
REMARK    7  A    between atoms: N1_12  and  C9_14
REMARK    8  A    between atoms: C9_14  and  C10_15
REMARK    9  A    between atoms: C9_14  and  C11_17
REMARK   10  A    between atoms: C11_17  and  N2_18
REMARK       I    between atoms: N2_18  and  C12_20
REMARK   11  A    between atoms: C12_20  and  C13_22
ROOT
HETATM    1  C9  UNL     1      41.493  15.966  19.905  1.00  0.00     0.166 C
ENDROOT
BRANCH   1   2
HETATM    2  N1  UNL     1      40.776  15.911  21.153  1.00  0.00    -0.324 N
HETATM    3  C8  UNL     1      39.578  16.618  21.378  1.00  0.00     0.361 C
HETATM    4  O3  UNL     1      39.131  17.317  20.443  1.00  0.00    -0.238 OA
ATOM      5  H1  UNL     1      41.152  15.336  21.907  1.00  0.00     0.165 HD
BRANCH   3   6
HETATM    6  O2  UNL     1      38.868  16.593  22.551  1.00  0.00    -0.296 OA
BRANCH   6   7
HETATM    7  C3  UNL     1      37.927  15.604  22.920  1.00  0.00     0.157 C
BRANCH   7   8
HETATM    8  C2  UNL     1      36.716  15.808  22.079  1.00  0.00     0.199 C
BRANCH   8   9
HETATM    9  O1  UNL     1      35.873  16.814  22.361  1.00  0.00    -0.393 OA
HETATM   10  C1  UNL     1      35.708  17.894  21.588  1.00  0.00     0.201 C
ENDBRANCH   8   9
ENDBRANCH   7   8
BRANCH   7  11
HETATM   11  C4  UNL     1      38.447  14.254  23.128  1.00  0.00     0.038 C
BRANCH  11  12
HETATM   12  C5  UNL     1      37.885  13.347  24.126  1.00  0.00    -0.020 C
HETATM   13  C6  UNL     1      37.202  12.198  23.342  1.00  0.00     0.009 C
HETATM   14  C7  UNL     1      36.910  13.800  25.125  1.00  0.00     0.009 C
ENDBRANCH  11  12
ENDBRANCH   7  11
ENDBRANCH   6   7
ENDBRANCH   3   6
ENDBRANCH   1   2
BRANCH   1  15
HETATM   15  C10 UNL     1      42.958  15.959  20.163  1.00  0.00     0.258 C
HETATM   16  O4  UNL     1      43.412  15.494  21.195  1.00  0.00    -0.305 OA
ENDBRANCH   1  15
BRANCH   1  17
HETATM   17  C11 UNL     1      41.148  14.794  19.040  1.00  0.00     0.155 C
BRANCH  17  18
HETATM   18  N2  UNL     1      41.938  13.642  19.416  1.00  0.00    -0.353 N
HETATM   19  C12 UNL     1      41.471  12.668  20.344  1.00  0.00     0.277 C
HETATM   20  O5  UNL     1      40.337  12.785  20.871  1.00  0.00    -0.265 OA
ATOM     21  H2  UNL     1      42.863  13.524  19.002  1.00  0.00     0.162 HD
BRANCH  19  22
HETATM   22  C13 UNL     1      42.284  11.517  20.707  1.00  0.00     0.162 A
HETATM   23  C14 UNL     1      42.218  10.798  21.891  1.00  0.00     0.134 A
HETATM   24  N3  UNL     1      43.128   9.817  21.842  1.00  0.00    -0.329 N
HETATM   25  C15 UNL     1      43.739   9.934  20.649  1.00  0.00     0.222 A
ATOM     26  H3  UNL     1      43.319   9.121  22.562  1.00  0.00     0.168 HD
HETATM   27  N4  UNL     1      44.684   9.124  20.283  1.00  0.00    -0.365 N
HETATM   28  O6  UNL     1      43.224  10.943  19.999  1.00  0.00    -0.273 OA
ATOM     29  H42 UNL     1      45.086   8.336  20.790  1.00  0.00     0.159 HD
ATOM     30  H41 UNL     1      45.147   9.214  19.379  1.00  0.00     0.159 HD
ENDBRANCH  19  22
ENDBRANCH  17  18
ENDBRANCH   1  17
TORSDOF 11
ENDMDL