MODEL 1
REMARK VINA RESULT: -8.530850397      0.000      0.000
REMARK  11 active torsions:
REMARK  status: ('A' for Active; 'I' for Inactive)
REMARK    1  A    between atoms: O1_2  and  C2_3
REMARK    2  A    between atoms: C5_6  and  C6_7
REMARK    3  A    between atoms: C6_7  and  C7_8
REMARK    4  A    between atoms: C7_8  and  N1_9
REMARK    5  A    between atoms: N1_9  and  C8_11
REMARK    6  A    between atoms: C8_11  and  C9_12
REMARK    7  A    between atoms: C9_12  and  O2_13
REMARK    8  A    between atoms: C9_12  and  C10_15
REMARK    9  A    between atoms: C10_15  and  O3_16
REMARK   10  A    between atoms: O3_16  and  C11_17
REMARK   11  A    between atoms: C14_22  and  C15_23
ROOT
HETATM    1  C9  UNL     1      42.680  11.040  21.990  1.00  0.00     0.180 C
ENDROOT
BRANCH   1   2
HETATM    2  C8  UNL     1      41.694  10.823  20.876  1.00  0.00     0.089 C
BRANCH   2   3
HETATM    3  N1  UNL     1      40.414  11.349  21.135  1.00  0.00    -0.399 N
ATOM      4  H1  UNL     1      39.678  11.242  20.438  1.00  0.00     0.158 HD
BRANCH   3   5
HETATM    5  C7  UNL     1      40.135  12.019  22.335  1.00  0.00     0.123 C
BRANCH   5   6
HETATM    6  C6  UNL     1      39.817  13.499  21.990  1.00  0.00     0.058 C
BRANCH   6   7
HETATM    7  C5  UNL     1      38.756  13.964  22.918  1.00  0.00    -0.057 A
HETATM    8  C4  UNL     1      38.186  13.097  23.833  1.00  0.00     0.010 A
HETATM    9  C3  UNL     1      37.199  13.491  24.710  1.00  0.00     0.037 A
HETATM   10  C2  UNL     1      36.750  14.794  24.690  1.00  0.00     0.068 A
HETATM   11  C18 UNL     1      37.297  15.678  23.791  1.00  0.00     0.037 A
HETATM   12  C17 UNL     1      38.296  15.256  22.912  1.00  0.00     0.010 A
BRANCH  10  13
HETATM   13  O1  UNL     1      35.761  15.186  25.570  1.00  0.00    -0.356 OA
HETATM   14  C1  UNL     1      35.777  16.495  26.089  1.00  0.00     0.210 C
ENDBRANCH  10  13
ENDBRANCH   6   7
ENDBRANCH   5   6
ENDBRANCH   3   5
ENDBRANCH   2   3
ENDBRANCH   1   2
BRANCH   1  15
HETATM   15  O2  UNL     1      43.211   9.806  22.327  1.00  0.00    -0.388 OA
ATOM     16  H2  UNL     1      44.125   9.806  22.069  1.00  0.00     0.210 HD
ENDBRANCH   1  15
BRANCH   1  17
HETATM   17  C10 UNL     1      43.785  11.965  21.560  1.00  0.00     0.212 C
BRANCH  17  18
HETATM   18  O3  UNL     1      43.576  13.281  21.586  1.00  0.00    -0.348 OA
BRANCH  18  19
HETATM   19  C11 UNL     1      43.268  14.286  20.769  1.00  0.00     0.072 A
HETATM   20  C12 UNL     1      43.641  15.603  20.924  1.00  0.00     0.053 A
HETATM   21  C13 UNL     1      43.245  16.532  19.991  1.00  0.00     0.091 A
HETATM   22  N2  UNL     1      42.502  16.204  18.927  1.00  0.00    -0.363 N
HETATM   23  C14 UNL     1      42.103  14.927  18.718  1.00  0.00     0.075 A
ATOM     24  H2  UNL     1      42.231  16.928  18.263  1.00  0.00     0.165 HD
HETATM   25  C16 UNL     1      42.496  13.996  19.646  1.00  0.00     0.069 A
BRANCH  23  26
HETATM   26  C15 UNL     1      41.291  14.588  17.548  1.00  0.00     0.137 C
HETATM   27  N3  UNL     1      40.520  13.569  17.593  1.00  0.00    -0.386 N
ATOM     28  H32 UNL     1      40.488  13.014  18.448  1.00  0.00     0.157 HD
ATOM     29  H31 UNL     1      39.955  13.333  16.777  1.00  0.00     0.157 HD
HETATM   30  N4  UNL     1      41.336  15.357  16.364  1.00  0.00    -0.081 NA
ENDBRANCH  23  26
ENDBRANCH  18  19
ENDBRANCH  17  18
ENDBRANCH   1  17
TORSDOF 11
ENDMDL