MODEL 1
REMARK VINA RESULT: -7.641704074      0.000      0.000
REMARK  11 active torsions:
REMARK  status: ('A' for Active; 'I' for Inactive)
REMARK    1  A    between atoms: O1_2  and  C2_3
REMARK    2  A    between atoms: C2_3  and  C3_4
REMARK    3  A    between atoms: C3_4  and  N1_5
REMARK    4  A    between atoms: N1_5  and  C4_8
REMARK    5  A    between atoms: C4_8  and  C5_9
REMARK    6  A    between atoms: C5_9  and  O2_10
REMARK    7  A    between atoms: C5_9  and  C6_12
REMARK    8  A    between atoms: C6_12  and  O3_13
REMARK    9  A    between atoms: O3_13  and  C7_14
REMARK   10  A    between atoms: C10_17  and  C11_18
REMARK   11  A    between atoms: C11_18  and  C12_19
ROOT
HETATM    1  C7  UNL     1      40.133  14.308  21.642  1.00  0.00     0.110 A
HETATM    2  C8  UNL     1      39.804  15.597  21.960  1.00  0.00     0.045 A
HETATM    3  C9  UNL     1      38.521  15.831  22.316  1.00  0.00     0.018 A
HETATM    4  C10 UNL     1      37.664  14.775  22.330  1.00  0.00    -0.011 A
HETATM    5  S1  UNL     1      38.673  13.467  21.843  1.00  0.00    -0.070 SA
ENDROOT
BRANCH   1   6
HETATM    6  O3  UNL     1      41.385  13.794  21.242  1.00  0.00    -0.341 OA
BRANCH   6   7
HETATM    7  C6  UNL     1      41.543  12.444  20.817  1.00  0.00     0.209 C
BRANCH   7   8
HETATM    8  C5  UNL     1      41.745  11.534  21.989  1.00  0.00     0.168 C
BRANCH   8   9
HETATM    9  C4  UNL     1      43.183  11.108  22.117  1.00  0.00     0.266 C
BRANCH   9  10
HETATM   10  N1  UNL     1      43.296   9.712  21.863  1.00  0.00    -0.071 N
ATOM     11  H12 UNL     1      42.384   9.301  21.661  1.00  0.00     0.277 HD
ATOM     12  H11 UNL     1      43.522   9.201  22.717  1.00  0.00     0.277 HD
BRANCH  10  13
HETATM   13  C3  UNL     1      44.249   9.408  20.807  1.00  0.00     0.258 C
BRANCH  13  14
HETATM   14  C2  UNL     1      43.504   9.523  19.495  1.00  0.00     0.194 C
BRANCH  14  15
HETATM   15  O1  UNL     1      42.327   8.820  19.585  1.00  0.00    -0.394 OA
HETATM   16  C1  UNL     1      41.329   9.232  18.733  1.00  0.00     0.201 C
ENDBRANCH  14  15
ENDBRANCH  13  14
ENDBRANCH  10  13
ENDBRANCH   9  10
ENDBRANCH   8   9
BRANCH   8  17
HETATM   17  O2  UNL     1      40.963  10.389  21.921  1.00  0.00    -0.392 OA
ATOM     18  H2  UNL     1      40.103  10.600  22.266  1.00  0.00     0.210 HD
ENDBRANCH   8  17
ENDBRANCH   7   8
ENDBRANCH   6   7
ENDBRANCH   1   6
BRANCH   4  19
HETATM   19  C11 UNL     1      36.192  14.713  22.678  1.00  0.00     0.088 C
BRANCH  19  20
HETATM   20  C12 UNL     1      35.917  15.355  23.974  1.00  0.00    -0.010 A
HETATM   21  C13 UNL     1      35.377  16.651  23.989  1.00  0.00     0.012 A
HETATM   22  C14 UNL     1      35.060  17.264  25.176  1.00  0.00     0.018 A
HETATM   23  C15 UNL     1      35.265  16.623  26.376  1.00  0.00     0.089 A
HETATM   24  N2  UNL     1      35.781  15.390  26.335  1.00  0.00    -0.352 N
HETATM   25  C16 UNL     1      36.112  14.742  25.179  1.00  0.00     0.105 A
ATOM     26  H2  UNL     1      35.937  14.905  27.218  1.00  0.00     0.166 HD
HETATM   27  N3  UNL     1      36.652  13.569  25.277  1.00  0.00    -0.385 N
ATOM     28  H32 UNL     1      36.899  13.086  24.414  1.00  0.00     0.157 HD
ATOM     29  H31 UNL     1      36.797  13.111  26.177  1.00  0.00     0.157 HD
ENDBRANCH  19  20
ENDBRANCH   4  19
TORSDOF 11
ENDMDL