MODEL 4
REMARK VINA RESULT: -7.083627637      1.713      3.472
REMARK  6 active torsions:
REMARK  status: ('A' for Active; 'I' for Inactive)
REMARK    1  A    between atoms: C3_3  and  O1_4
REMARK    2  A    between atoms: O1_4  and  C4_5
REMARK    3  A    between atoms: C4_5  and  C5_7
REMARK    4  A    between atoms: C5_7  and  N1_8
REMARK    5  A    between atoms: N1_8  and  C6_10
REMARK    6  A    between atoms: C6_10  and  C7_11
ROOT
HETATM    1  O1  UNL     1      10.002  17.800  16.558  1.00  0.00    -0.310 OA
ENDROOT
BRANCH   1   2
HETATM    2  C3  UNL     1       8.702  17.396  16.986  1.00  0.00     0.144 C
HETATM    3  C2  UNL     1       8.451  15.938  16.736  1.00  0.00     0.020 C
HETATM    4  C1  UNL     1       8.006  15.223  17.993  1.00  0.00     0.013 C
HETATM    5  C18 UNL     1       7.587  15.655  15.549  1.00  0.00    -0.038 C
HETATM    6  C16 UNL     1       6.526  16.675  15.299  1.00  0.00    -0.005 C
HETATM    7  C19 UNL     1       6.862  14.326  15.767  1.00  0.00     0.015 C
HETATM    8  C20 UNL     1       8.455  15.424  14.305  1.00  0.00     0.015 C
HETATM    9  C15 UNL     1       6.921  17.691  14.243  1.00  0.00     0.006 C
HETATM   10  C17 UNL     1       6.325  17.607  16.498  1.00  0.00     0.017 C
HETATM   11  C14 UNL     1       7.845  18.623  14.958  1.00  0.00     0.012 C
HETATM   12  C12 UNL     1       7.680  18.323  16.437  1.00  0.00    -0.017 C
HETATM   13  C13 UNL     1       7.654  19.604  17.218  1.00  0.00     0.018 C
ENDBRANCH   1   2
BRANCH   1  14
HETATM   14  C4  UNL     1      11.136  17.595  17.310  1.00  0.00     0.298 C
HETATM   15  O2  UNL     1      11.965  16.744  16.931  1.00  0.00    -0.259 OA
BRANCH  14  16
HETATM   16  C5  UNL     1      11.412  18.366  18.583  1.00  0.00     0.170 C
BRANCH  16  17
HETATM   17  N1  UNL     1      10.614  19.508  18.725  1.00  0.00    -0.373 N
ATOM     18  H1  UNL     1      10.283  19.956  17.870  1.00  0.00     0.164 HD
BRANCH  17  19
HETATM   19  C6  UNL     1      10.238  20.078  19.925  1.00  0.00     0.065 C
BRANCH  19  20
HETATM   20  C7  UNL     1       9.984  19.283  21.144  1.00  0.00     0.028 C
HETATM   21  C8  UNL     1       9.122  18.069  21.063  1.00  0.00     0.036 C
HETATM   22  C9  UNL     1       7.702  18.389  20.620  1.00  0.00     0.168 C
HETATM   23  O3  UNL     1       7.347  19.681  20.935  1.00  0.00    -0.391 OA
HETATM   24  C10 UNL     1       7.840  20.157  22.125  1.00  0.00     0.168 C
HETATM   25  C11 UNL     1       9.340  20.160  22.243  1.00  0.00     0.036 C
ENDBRANCH  19  20
ENDBRANCH  17  19
ENDBRANCH  16  17
ENDBRANCH  14  16
ENDBRANCH   1  14
TORSDOF 6
ENDMDL