MODEL 5
REMARK VINA RESULT: -7.291405832      0.961      1.305
REMARK  6 active torsions:
REMARK  status: ('A' for Active; 'I' for Inactive)
REMARK    1  A    between atoms: C3_5  and  N2_6
REMARK    2  A    between atoms: N2_6  and  C4_8
REMARK    3  A    between atoms: C4_8  and  C5_9
REMARK    4  A    between atoms: C5_9  and  C6_10
REMARK    5  A    between atoms: C6_10  and  N3_11
REMARK    6  A    between atoms: C12_19  and  C13_20
ROOT
HETATM    1  C1  UNL     1       7.955  14.516  14.196  1.00  0.00     0.069 C
HETATM    2  C2  UNL     1       8.286  15.701  15.100  1.00  0.00     0.021 A
HETATM    3  N1  UNL     1       9.099  15.597  16.125  1.00  0.00    -0.340 N
ATOM      4  H1  UNL     1       9.541  14.706  16.351  1.00  0.00     0.168 HD
HETATM    5  C3  UNL     1       9.335  16.678  16.863  1.00  0.00     0.145 A
HETATM    6  S1  UNL     1       8.387  17.874  16.099  1.00  0.00    -0.057 SA
HETATM    7  C12 UNL     1       7.725  16.920  14.851  1.00  0.00     0.012 A
ENDROOT
BRANCH   5   8
HETATM    8  N2  UNL     1      10.109  16.792  17.923  1.00  0.00    -0.370 N
ATOM      9  H2  UNL     1      10.862  17.479  17.959  1.00  0.00     0.161 HD
BRANCH   8  10
HETATM   10  C4  UNL     1       9.848  15.909  19.023  1.00  0.00     0.123 C
BRANCH  10  11
HETATM   11  C5  UNL     1       8.505  16.242  19.632  1.00  0.00     0.050 C
BRANCH  11  12
HETATM   12  C6  UNL     1       8.618  16.784  21.025  1.00  0.00     0.274 C
BRANCH  12  13
HETATM   13  N3  UNL     1       7.972  18.057  21.080  1.00  0.00     0.097 N
HETATM   14  C7  UNL     1       7.487  18.521  19.795  1.00  0.00     0.299 C
HETATM   15  C8  UNL     1       6.350  19.503  20.110  1.00  0.00     0.198 C
HETATM   16  O1  UNL     1       6.527  20.086  21.364  1.00  0.00    -0.387 OA
HETATM   17  C9  UNL     1       7.871  20.370  21.623  1.00  0.00     0.203 C
HETATM   18  C10 UNL     1       8.655  19.066  21.821  1.00  0.00     0.242 C
HETATM   19  C11 UNL     1      10.054  19.338  21.309  1.00  0.00     0.045 C
ENDBRANCH  12  13
ENDBRANCH  11  12
ENDBRANCH  10  11
ENDBRANCH   8  10
ENDBRANCH   5   8
BRANCH   7  20
HETATM   20  C13 UNL     1       6.779  17.345  13.780  1.00  0.00     0.028 C
HETATM   21  C14 UNL     1       7.149  16.621  12.525  1.00  0.00     0.010 C
HETATM   22  C15 UNL     1       8.345  17.163  11.824  1.00  0.00     0.001 C
HETATM   23  C16 UNL     1       8.420  18.650  11.756  1.00  0.00     0.000 C
HETATM   24  C17 UNL     1       8.174  19.277  13.118  1.00  0.00     0.001 C
HETATM   25  C18 UNL     1       6.778  18.813  13.542  1.00  0.00     0.010 C
ENDBRANCH   7  20
TORSDOF 6
ENDMDL