MODEL 1
REMARK VINA RESULT: -7.677014575      0.000      0.000
REMARK  6 active torsions:
REMARK  status: ('A' for Active; 'I' for Inactive)
REMARK    1  A    between atoms: O1_2  and  C2_3
REMARK    2  A    between atoms: C2_3  and  C3_5
REMARK    3  A    between atoms: C6_8  and  C7_9
REMARK    4  A    between atoms: C7_9  and  C8_10
REMARK    5  A    between atoms: C8_10  and  N1_11
REMARK       I    between atoms: N1_11  and  C9_13
REMARK    6  A    between atoms: C9_13  and  C10_15
ROOT
HETATM    1  C3  UNL     1       9.062  18.882  20.188  1.00  0.00     0.081 C
HETATM    2  C4  UNL     1      10.263  19.351  19.407  1.00  0.00     0.026 C
HETATM    3  C5  UNL     1      10.263  18.332  18.254  1.00  0.00     0.039 C
HETATM    4  C6  UNL     1       9.297  17.264  18.652  1.00  0.00     0.065 C
HETATM    5  C16 UNL     1       9.373  17.369  20.186  1.00  0.00     0.061 C
HETATM    6  O4  UNL     1       8.010  17.763  18.443  1.00  0.00    -0.369 OA
HETATM    7  C17 UNL     1       7.848  18.850  19.314  1.00  0.00     0.071 C
HETATM    8  C18 UNL     1       7.633  20.075  18.500  1.00  0.00     0.047 C
HETATM    9  C19 UNL     1       6.600  18.574  20.119  1.00  0.00     0.047 C
ENDROOT
BRANCH   4  10
HETATM   10  C7  UNL     1       9.523  15.913  18.151  1.00  0.00     0.057 C
BRANCH  10  11
HETATM   11  C8  UNL     1       9.733  15.906  16.673  1.00  0.00     0.125 C
BRANCH  11  12
HETATM   12  N1  UNL     1       8.478  16.125  15.944  1.00  0.00    -0.361 N
HETATM   13  C9  UNL     1       8.364  17.356  15.241  1.00  0.00     0.221 C
HETATM   14  O3  UNL     1       9.272  18.224  15.229  1.00  0.00    -0.273 OA
ATOM     15  H1  UNL     1       7.729  15.433  15.941  1.00  0.00     0.162 HD
BRANCH  13  16
HETATM   16  C10 UNL     1       7.103  17.602  14.496  1.00  0.00     0.078 C
HETATM   17  C11 UNL     1       7.177  18.819  13.628  1.00  0.00     0.014 C
HETATM   18  C12 UNL     1       8.120  18.700  12.475  1.00  0.00     0.001 C
HETATM   19  C13 UNL     1       8.067  17.387  11.764  1.00  0.00     0.000 C
HETATM   20  C14 UNL     1       8.027  16.211  12.721  1.00  0.00     0.001 C
HETATM   21  C15 UNL     1       6.851  16.345  13.660  1.00  0.00     0.014 C
ENDBRANCH  13  16
ENDBRANCH  11  12
ENDBRANCH  10  11
ENDBRANCH   4  10
BRANCH   1  22
HETATM   22  C2  UNL     1       8.910  19.404  21.513  1.00  0.00     0.270 C
HETATM   23  O2  UNL     1       8.643  18.592  22.465  1.00  0.00    -0.264 OA
BRANCH  22  24
HETATM   24  O1  UNL     1       9.029  20.720  21.855  1.00  0.00    -0.326 OA
HETATM   25  C1  UNL     1      10.236  21.250  22.374  1.00  0.00     0.213 C
ENDBRANCH  22  24
ENDBRANCH   1  22
TORSDOF 6
ENDMDL