MODEL 5
REMARK VINA RESULT: -4.046812742      2.283      5.686
REMARK  7 active torsions:
REMARK  status: ('A' for Active; 'I' for Inactive)
REMARK    1  A    between atoms: C2_2  and  O1_3
REMARK    2  A    between atoms: O1_3  and  C3_4
REMARK       I    between atoms: C3_4  and  N1_6
REMARK    3  A    between atoms: N1_6  and  C4_7
REMARK    4  A    between atoms: N1_6  and  C13_22
REMARK    5  A    between atoms: C5_10  and  N3_11
REMARK       I    between atoms: N3_11  and  C6_13
REMARK    6  A    between atoms: C8_17  and  C9_18
REMARK    7  A    between atoms: C13_22  and  C15_24
ROOT
HETATM    1  C4  UNL     1       8.456  18.528  18.619  1.00  0.00     0.128 A
HETATM    2  N2  UNL     1       8.983  18.607  17.401  1.00  0.00    -0.321 N
ATOM      3  H2  UNL     1       9.925  18.258  17.219  1.00  0.00     0.169 HD
HETATM    4  C5  UNL     1       8.267  19.143  16.435  1.00  0.00     0.153 A
HETATM    5  S1  UNL     1       6.805  19.567  17.190  1.00  0.00    -0.054 SA
HETATM    6  C8  UNL     1       7.196  19.012  18.779  1.00  0.00     0.035 A
ENDROOT
BRANCH   1   7
HETATM    7  N1  UNL     1       9.203  17.978  19.760  1.00  0.00    -0.274 N
HETATM    8  C3  UNL     1       9.093  16.619  20.127  1.00  0.00     0.368 C
HETATM    9  O2  UNL     1       9.725  16.215  21.134  1.00  0.00    -0.238 OA
BRANCH   8  10
HETATM   10  O1  UNL     1       8.332  15.685  19.449  1.00  0.00    -0.304 OA
BRANCH  10  11
HETATM   11  C2  UNL     1       8.898  15.021  18.349  1.00  0.00     0.176 C
HETATM   12  C1  UNL     1       8.070  15.216  17.084  1.00  0.00     0.034 C
ENDBRANCH  10  11
ENDBRANCH   8  10
BRANCH   7  13
HETATM   13  C13 UNL     1      10.089  18.845  20.504  1.00  0.00     0.092 C
HETATM   14  C14 UNL     1      10.683  19.900  19.586  1.00  0.00     0.033 C
BRANCH  13  15
HETATM   15  C15 UNL     1       9.489  19.450  21.736  1.00  0.00     0.021 C
HETATM   16  C16 UNL     1      10.200  20.757  22.020  1.00  0.00     0.007 C
ENDBRANCH  13  15
ENDBRANCH   7  13
ENDBRANCH   1   7
BRANCH   6  17
HETATM   17  C9  UNL     1       6.288  19.055  19.986  1.00  0.00     0.030 C
HETATM   18  C10 UNL     1       6.741  20.078  20.993  1.00  0.00     0.010 C
HETATM   19  C11 UNL     1       5.656  21.024  20.616  1.00  0.00     0.001 C
HETATM   20  C12 UNL     1       5.085  19.956  19.720  1.00  0.00     0.010 C
ENDBRANCH   6  17
BRANCH   4  21
HETATM   21  N3  UNL     1       8.630  19.297  15.175  1.00  0.00    -0.307 N
HETATM   22  C6  UNL     1       7.966  18.605  14.146  1.00  0.00     0.219 C
HETATM   23  C7  UNL     1       8.345  18.867  12.750  1.00  0.00     0.117 C
HETATM   24  O3  UNL     1       7.075  17.783  14.417  1.00  0.00    -0.274 OA
ATOM     25  H3  UNL     1       9.399  19.926  14.945  1.00  0.00     0.171 HD
ENDBRANCH   4  21
TORSDOF 7
ENDMDL