MODEL 3
REMARK VINA RESULT: -7.301195339      1.802      6.514
REMARK  8 active torsions:
REMARK  status: ('A' for Active; 'I' for Inactive)
REMARK    1  A    between atoms: C3_3  and  C4_4
REMARK    2  A    between atoms: C4_4  and  C5_5
REMARK    3  A    between atoms: C5_5  and  C6_6
REMARK    4  A    between atoms: C6_6  and  C7_8
REMARK    5  A    between atoms: C9_10  and  O2_11
REMARK    6  A    between atoms: C18_21  and  O3_22
REMARK    7  A    between atoms: O3_22  and  C19_23
REMARK    8  A    between atoms: C19_23  and  C20_25
ROOT
HETATM    1  C7  UNL     1       8.957  17.310  18.845  1.00  0.00     0.062 A
HETATM    2  C8  UNL     1       9.948  16.526  18.065  1.00  0.00     0.029 C
HETATM    3  C9  UNL     1       9.940  16.455  16.612  1.00  0.00     0.059 C
HETATM    4  C10 UNL     1       9.632  17.554  15.709  1.00  0.00     0.017 C
HETATM    5  C11 UNL     1       8.362  18.212  15.554  1.00  0.00     0.041 C
HETATM    6  C12 UNL     1       8.303  19.606  16.226  1.00  0.00     0.017 C
HETATM    7  C13 UNL     1       7.982  19.508  17.685  1.00  0.00     0.007 A
HETATM    8  C14 UNL     1       8.898  18.807  18.582  1.00  0.00    -0.011 A
HETATM    9  C15 UNL     1      10.192  19.455  18.694  1.00  0.00     0.018 C
HETATM   10  C16 UNL     1       8.067  17.984  17.971  1.00  0.00    -0.005 A
HETATM   11  C17 UNL     1       6.869  17.489  17.428  1.00  0.00     0.045 C
HETATM   12  C18 UNL     1       7.080  17.511  15.923  1.00  0.00     0.140 C
ENDROOT
BRANCH   1  13
HETATM   13  C6  UNL     1       8.526  16.846  20.179  1.00  0.00     0.170 C
HETATM   14  O1  UNL     1       8.738  15.587  20.417  1.00  0.00    -0.291 OA
BRANCH  13  15
HETATM   15  C5  UNL     1       7.901  17.598  21.256  1.00  0.00     0.106 C
BRANCH  15  16
HETATM   16  C4  UNL     1       8.325  18.700  21.757  1.00  0.00    -0.125 C
BRANCH  16  17
HETATM   17  C3  UNL     1       8.782  19.949  22.091  1.00  0.00     0.051 C
HETATM   18  C2  UNL     1      10.106  20.253  22.128  1.00  0.00    -0.023 C
HETATM   19  C1  UNL     1      10.498  21.618  22.496  1.00  0.00     0.036 C
ENDBRANCH  16  17
ENDBRANCH  15  16
ENDBRANCH  13  15
ENDBRANCH   1  13
BRANCH   3  20
HETATM   20  O2  UNL     1       9.492  15.191  16.115  1.00  0.00    -0.361 OA
ATOM     21  H2  UNL     1       9.746  15.036  15.213  1.00  0.00     0.217 HD
ENDBRANCH   3  20
BRANCH  12  22
HETATM   22  O3  UNL     1       6.901  16.273  15.315  1.00  0.00    -0.315 OA
BRANCH  22  23
HETATM   23  C19 UNL     1       7.224  16.023  14.009  1.00  0.00     0.258 C
HETATM   24  O4  UNL     1       7.921  15.020  13.736  1.00  0.00    -0.265 OA
BRANCH  23  25
HETATM   25  C20 UNL     1       6.771  16.913  12.886  1.00  0.00     0.106 C
HETATM   26  C21 UNL     1       7.923  17.382  12.066  1.00  0.00     0.015 C
ENDBRANCH  23  25
ENDBRANCH  22  23
ENDBRANCH  12  22
TORSDOF 8
ENDMDL