MODEL 5
REMARK VINA RESULT: -6.330809479      3.382      6.674
REMARK  5 active torsions:
REMARK  status: ('A' for Active; 'I' for Inactive)
REMARK    1  A    between atoms: O1_2  and  C2_3
REMARK       I    between atoms: C2_3  and  N1_5
REMARK    2  A    between atoms: N1_5  and  C3_7
REMARK    3  A    between atoms: C3_7  and  C5_9
REMARK       I    between atoms: C5_9  and  N2_11
REMARK    4  A    between atoms: C11_17  and  C12_18
REMARK    5  A    between atoms: C12_18  and  C13_19
ROOT
HETATM    1  C5  UNL     1       7.804  15.714  16.504  1.00  0.00     0.243 C
HETATM    2  O3  UNL     1       7.984  14.491  16.821  1.00  0.00    -0.271 OA
HETATM    3  N2  UNL     1       8.606  16.684  17.113  1.00  0.00    -0.341 N
HETATM    4  C6  UNL     1       9.591  16.381  18.139  1.00  0.00     0.083 C
HETATM    5  C7  UNL     1       9.371  15.099  18.865  1.00  0.00     0.032 C
HETATM    6  C8  UNL     1      10.913  16.309  17.399  1.00  0.00     0.025 C
HETATM    7  C9  UNL     1      11.041  17.518  16.527  1.00  0.00     0.004 C
HETATM    8  C10 UNL     1      10.060  18.581  16.886  1.00  0.00     0.025 C
HETATM    9  C11 UNL     1       8.597  18.109  16.743  1.00  0.00     0.088 C
ENDROOT
BRANCH   1  10
HETATM   10  C3  UNL     1       6.744  15.961  15.503  1.00  0.00     0.175 C
HETATM   11  C4  UNL     1       5.635  14.910  15.732  1.00  0.00     0.042 C
BRANCH  10  12
HETATM   12  N1  UNL     1       7.196  15.861  14.144  1.00  0.00    -0.324 N
HETATM   13  C2  UNL     1       7.188  17.017  13.319  1.00  0.00     0.360 C
HETATM   14  O2  UNL     1       6.794  18.138  13.749  1.00  0.00    -0.239 OA
ATOM     15  H1  UNL     1       7.521  14.967  13.775  1.00  0.00     0.165 HD
BRANCH  13  16
HETATM   16  O1  UNL     1       7.618  16.991  11.979  1.00  0.00    -0.309 OA
HETATM   17  C1  UNL     1       8.388  18.083  11.489  1.00  0.00     0.215 C
ENDBRANCH  13  16
ENDBRANCH  10  12
ENDBRANCH   1  10
BRANCH   9  18
HETATM   18  C12 UNL     1       7.793  18.957  17.671  1.00  0.00     0.040 C
BRANCH  18  19
HETATM   19  C13 UNL     1       8.067  18.528  19.104  1.00  0.00     0.051 C
HETATM   20  C14 UNL     1       7.127  19.088  20.141  1.00  0.00     0.034 C
HETATM   21  C15 UNL     1       8.200  19.095  21.191  1.00  0.00     0.002 C
HETATM   22  C16 UNL     1       8.004  20.181  22.229  1.00  0.00     0.026 C
HETATM   23  C17 UNL     1       8.497  17.777  21.865  1.00  0.00     0.026 C
HETATM   24  S1  UNL     1       9.380  19.528  19.887  1.00  0.00    -0.155 SA
ENDBRANCH  18  19
ENDBRANCH   9  18
TORSDOF 5
ENDMDL