MODEL 2
REMARK VINA RESULT: -7.154361755      2.497      6.414
REMARK  6 active torsions:
REMARK  status: ('A' for Active; 'I' for Inactive)
REMARK    1  A    between atoms: C2_2  and  C4_4
REMARK    2  A    between atoms: C4_4  and  C5_5
REMARK    3  A    between atoms: C7_7  and  O1_8
REMARK    4  A    between atoms: O1_8  and  C8_9
REMARK    5  A    between atoms: C18_21  and  N2_22
REMARK    6  A    between atoms: N2_22  and  C19_24
ROOT
HETATM    1  C19 UNL     1       7.276  20.129  21.924  1.00  0.00     0.262 C
HETATM    2  C20 UNL     1       8.652  20.570  22.048  1.00  0.00     0.079 C
HETATM    3  N3  UNL     1       9.750  20.925  22.145  1.00  0.00    -0.196 NA
ENDROOT
BRANCH   1   4
HETATM    4  N2  UNL     1       6.831  20.185  20.561  1.00  0.00    -0.214 N
ATOM      5  H2  UNL     1       6.298  21.000  20.259  1.00  0.00     0.178 HD
BRANCH   4   6
HETATM    6  C18 UNL     1       7.073  19.254  19.700  1.00  0.00     0.681 A
HETATM    7  N1  UNL     1       6.657  19.368  18.427  1.00  0.00    -0.171 N
HETATM    8  C7  UNL     1       6.894  18.409  17.496  1.00  0.00     0.159 A
ATOM      9  H1  UNL     1       6.145  20.205  18.150  1.00  0.00     0.186 HD
HETATM   10  C6  UNL     1       7.589  17.301  17.929  1.00  0.00     0.082 A
HETATM   11  C5  UNL     1       8.031  17.146  19.222  1.00  0.00     0.031 A
HETATM   12  N4  UNL     1       7.749  18.155  20.082  1.00  0.00    -0.195 N
ATOM     13  H4  UNL     1       8.059  18.079  21.050  1.00  0.00     0.184 HD
BRANCH   8  14
HETATM   14  O1  UNL     1       6.448  18.561  16.184  1.00  0.00    -0.329 OA
BRANCH  14  15
HETATM   15  C8  UNL     1       6.840  17.655  15.209  1.00  0.00     0.138 C
HETATM   16  C9  UNL     1       6.263  18.095  13.860  1.00  0.00     0.016 C
HETATM   17  C10 UNL     1       6.413  16.912  12.936  1.00  0.00     0.012 C
HETATM   18  C14 UNL     1       6.999  19.307  13.385  1.00  0.00     0.012 C
HETATM   19  C11 UNL     1       7.886  16.604  12.821  1.00  0.00    -0.013 C
HETATM   20  C12 UNL     1       8.554  17.796  12.192  1.00  0.00     0.009 C
HETATM   21  C17 UNL     1       8.513  16.257  14.138  1.00  0.00     0.012 C
HETATM   22  C13 UNL     1       8.465  18.962  13.122  1.00  0.00    -0.013 C
HETATM   23  C15 UNL     1       9.049  18.605  14.490  1.00  0.00     0.012 C
HETATM   24  C16 UNL     1       8.308  17.442  15.090  1.00  0.00     0.016 C
ENDBRANCH  14  15
ENDBRANCH   8  14
BRANCH  11  25
HETATM   25  C4  UNL     1       8.781  15.952  19.695  1.00  0.00     0.061 C
BRANCH  25  26
HETATM   26  C2  UNL     1       9.539  15.284  18.565  1.00  0.00    -0.017 C
HETATM   27  C1  UNL     1       8.488  14.756  17.594  1.00  0.00     0.010 C
HETATM   28  C3  UNL     1      10.349  16.329  17.848  1.00  0.00     0.010 C
ENDBRANCH  25  26
ENDBRANCH  11  25
ENDBRANCH   4   6
ENDBRANCH   1   4
TORSDOF 6
ENDMDL