MODEL 4
REMARK VINA RESULT: -4.648952061      2.295      4.027
REMARK  7 active torsions:
REMARK  status: ('A' for Active; 'I' for Inactive)
REMARK    1  A    between atoms: O1_2  and  C2_3
REMARK    2  A    between atoms: C2_3  and  C3_4
REMARK    3  A    between atoms: C3_4  and  O2_5
REMARK    4  A    between atoms: O2_5  and  C4_6
REMARK    5  A    between atoms: C9_11  and  O3_12
REMARK    6  A    between atoms: N1_22  and  C18_23
REMARK    7  A    between atoms: C18_23  and  C19_24
ROOT
HETATM    1  C4  UNL     1       7.242  16.996  12.321  1.00  0.00     0.102 A
HETATM    2  C5  UNL     1       7.167  16.686  13.701  1.00  0.00     0.048 A
HETATM    3  C6  UNL     1       7.887  17.382  14.654  1.00  0.00    -0.040 A
HETATM    4  C7  UNL     1       8.688  18.402  14.196  1.00  0.00    -0.048 A
HETATM    5  C8  UNL     1       8.786  18.729  12.862  1.00  0.00     0.047 A
HETATM    6  C9  UNL     1       8.090  18.061  11.909  1.00  0.00     0.099 A
HETATM    7  C10 UNL     1       9.360  19.053  15.393  1.00  0.00     0.045 C
HETATM    8  C11 UNL     1       8.321  18.814  16.377  1.00  0.00     0.005 C
HETATM    9  C12 UNL     1       8.602  18.680  17.821  1.00  0.00     0.041 C
HETATM   10  C13 UNL     1       7.496  17.734  18.243  1.00  0.00     0.224 C
HETATM   11  C14 UNL     1       6.834  17.228  16.946  1.00  0.00     0.050 C
HETATM   12  C15 UNL     1       8.042  17.325  16.086  1.00  0.00    -0.005 C
HETATM   13  C16 UNL     1       9.103  16.429  16.545  1.00  0.00     0.045 C
HETATM   14  C17 UNL     1       9.118  16.019  17.989  1.00  0.00     0.274 C
HETATM   15  N1  UNL     1       8.146  16.569  18.851  1.00  0.00     0.093 N
ENDROOT
BRANCH   1  16
HETATM   16  O2  UNL     1       6.582  16.355  11.449  1.00  0.00    -0.346 OA
BRANCH  16  17
HETATM   17  C3  UNL     1       5.984  15.746  10.471  1.00  0.00     0.201 C
BRANCH  17  18
HETATM   18  C2  UNL     1       4.504  16.103  10.238  1.00  0.00     0.193 C
BRANCH  18  19
HETATM   19  O1  UNL     1       4.389  16.394   8.866  1.00  0.00    -0.394 OA
HETATM   20  C1  UNL     1       3.056  16.665   8.567  1.00  0.00     0.201 C
ENDBRANCH  18  19
ENDBRANCH  17  18
ENDBRANCH  16  17
ENDBRANCH   1  16
BRANCH   6  21
HETATM   21  O3  UNL     1       8.136  18.331  10.555  1.00  0.00    -0.358 OA
ATOM     22  H3  UNL     1       8.407  17.621   9.986  1.00  0.00     0.217 HD
ENDBRANCH   6  21
BRANCH  15  23
HETATM   23  C18 UNL     1       8.718  17.058  20.066  1.00  0.00     0.277 C
BRANCH  23  24
HETATM   24  C19 UNL     1       7.917  17.832  21.019  1.00  0.00     0.014 A
HETATM   25  C20 UNL     1       8.710  18.710  21.957  1.00  0.00     0.007 A
HETATM   26  C21 UNL     1       7.613  19.247  21.089  1.00  0.00     0.007 A
ENDBRANCH  23  24
ENDBRANCH  15  23
TORSDOF 7
ENDMDL