MODEL 5
REMARK VINA RESULT: -6.077479961      2.132      3.058
REMARK  5 active torsions:
REMARK  status: ('A' for Active; 'I' for Inactive)
REMARK       I    between atoms: C1_2  and  N1_3
REMARK       I    between atoms: C1_2  and  N3_14
REMARK    1  A    between atoms: N1_3  and  C2_5
REMARK    2  A    between atoms: C2_5  and  C3_6
REMARK    3  A    between atoms: C3_6  and  C4_7
REMARK    4  A    between atoms: C4_7  and  N2_8
REMARK    5  A    between atoms: C15_20  and  C16_21
ROOT
HETATM    1  O1  UNL     1       5.222  17.493  17.721  1.00  0.00    -0.247 OA
HETATM    2  C1  UNL     1       6.279  18.043  17.257  1.00  0.00     0.318 C
HETATM    3  N1  UNL     1       6.703  19.201  17.939  1.00  0.00    -0.343 N
ATOM      4  H1  UNL     1       7.544  19.676  17.610  1.00  0.00     0.164 HD
HETATM    5  N3  UNL     1       6.897  17.455  16.149  1.00  0.00    -0.323 N
HETATM    6  C10 UNL     1       6.253  16.249  15.658  1.00  0.00     0.128 C
HETATM    7  C11 UNL     1       7.149  15.042  15.833  1.00  0.00     0.020 C
HETATM    8  C12 UNL     1       8.262  15.361  16.816  1.00  0.00     0.002 C
HETATM    9  C13 UNL     1       9.381  16.043  16.062  1.00  0.00     0.002 C
HETATM   10  C14 UNL     1       9.346  17.534  16.173  1.00  0.00     0.032 C
HETATM   11  C15 UNL     1       8.065  18.085  15.637  1.00  0.00     0.146 C
ENDROOT
BRANCH  11  12
HETATM   12  C16 UNL     1       8.129  17.978  14.127  1.00  0.00     0.073 A
HETATM   13  N4  UNL     1       7.972  16.892  13.385  1.00  0.00    -0.361 N
HETATM   14  C17 UNL     1       8.067  16.969  12.100  1.00  0.00     0.096 A
ATOM     15  H4  UNL     1       7.776  15.994  13.830  1.00  0.00     0.165 HD
HETATM   16  C18 UNL     1       8.330  18.199  11.551  1.00  0.00     0.068 A
HETATM   17  S1  UNL     1       8.426  19.178  12.950  1.00  0.00    -0.085 SA
ENDBRANCH  11  12
BRANCH   3  18
HETATM   18  C2  UNL     1       6.008  19.747  19.078  1.00  0.00     0.126 C
BRANCH  18  19
HETATM   19  C3  UNL     1       6.240  18.971  20.351  1.00  0.00     0.050 C
BRANCH  19  20
HETATM   20  C4  UNL     1       7.534  18.250  20.258  1.00  0.00     0.274 C
BRANCH  20  21
HETATM   21  N2  UNL     1       8.604  18.844  21.016  1.00  0.00     0.088 N
HETATM   22  C5  UNL     1       8.001  19.957  21.769  1.00  0.00     0.272 C
HETATM   23  C6  UNL     1       9.030  20.428  22.740  1.00  0.00     0.030 C
HETATM   24  C7  UNL     1      10.301  20.892  22.082  1.00  0.00     0.003 C
HETATM   25  C8  UNL     1      10.705  20.077  20.901  1.00  0.00     0.030 C
HETATM   26  C9  UNL     1       9.595  19.448  20.149  1.00  0.00     0.272 C
ENDBRANCH  20  21
ENDBRANCH  19  20
ENDBRANCH  18  19
ENDBRANCH   3  18
TORSDOF 5
ENDMDL