MODEL 1
REMARK VINA RESULT: -7.185872499      0.000      0.000
REMARK  6 active torsions:
REMARK  status: ('A' for Active; 'I' for Inactive)
REMARK    1  A    between atoms: C2_3  and  N2_4
REMARK    2  A    between atoms: C7_9  and  C8_10
REMARK    3  A    between atoms: C8_10  and  C9_11
REMARK    4  A    between atoms: C9_11  and  N3_12
REMARK       I    between atoms: N3_12  and  C10_14
REMARK    5  A    between atoms: C10_14  and  O2_16
REMARK    6  A    between atoms: O2_16  and  C11_17
ROOT
HETATM    1  N1  UNL     1       5.838  19.391  17.867  1.00  0.00    -0.195 NA
HETATM    2  C1  UNL     1       6.163  19.236  18.982  1.00  0.00     0.089 C
HETATM    3  C2  UNL     1       6.551  19.023  20.375  1.00  0.00     0.396 C
ENDROOT
BRANCH   3   4
HETATM    4  N2  UNL     1       7.861  19.630  20.611  1.00  0.00     0.105 N
HETATM    5  C3  UNL     1       7.900  19.978  22.012  1.00  0.00     0.274 C
HETATM    6  C4  UNL     1       9.256  20.207  22.560  1.00  0.00     0.030 C
HETATM    7  C5  UNL     1      10.339  20.369  21.542  1.00  0.00     0.004 C
HETATM    8  C6  UNL     1      10.224  19.474  20.357  1.00  0.00     0.036 C
HETATM    9  C7  UNL     1       8.926  18.754  20.227  1.00  0.00     0.225 C
BRANCH   9  10
HETATM   10  C8  UNL     1       8.888  17.427  20.928  1.00  0.00     0.055 C
BRANCH  10  11
HETATM   11  C9  UNL     1       8.785  16.262  20.007  1.00  0.00     0.127 C
BRANCH  11  12
HETATM   12  N3  UNL     1       9.139  16.588  18.639  1.00  0.00    -0.337 N
HETATM   13  C10 UNL     1       8.879  15.623  17.601  1.00  0.00     0.361 C
HETATM   14  O1  UNL     1       8.356  14.516  17.849  1.00  0.00    -0.238 OA
ATOM     15  H3  UNL     1       9.566  17.488  18.415  1.00  0.00     0.164 HD
BRANCH  13  16
HETATM   16  O2  UNL     1       9.185  15.858  16.276  1.00  0.00    -0.293 OA
BRANCH  16  17
HETATM   17  C11 UNL     1       8.474  16.617  15.368  1.00  0.00     0.073 C
HETATM   18  C12 UNL     1       7.085  16.990  15.769  1.00  0.00     0.043 C
HETATM   19  C13 UNL     1       6.441  17.749  14.630  1.00  0.00    -0.011 C
HETATM   20  C14 UNL     1       7.131  19.084  14.475  1.00  0.00     0.009 C
HETATM   21  C18 UNL     1       6.443  16.949  13.352  1.00  0.00     0.009 C
HETATM   22  C15 UNL     1       8.578  18.791  14.123  1.00  0.00    -0.011 C
HETATM   23  C16 UNL     1       8.562  18.083  12.786  1.00  0.00     0.009 C
HETATM   24  C20 UNL     1       9.235  17.940  15.195  1.00  0.00     0.043 C
HETATM   25  C17 UNL     1       7.882  16.753  12.936  1.00  0.00    -0.011 C
HETATM   26  C19 UNL     1       8.557  15.937  14.016  1.00  0.00     0.043 C
ENDBRANCH  16  17
ENDBRANCH  13  16
ENDBRANCH  11  12
ENDBRANCH  10  11
ENDBRANCH   9  10
ENDBRANCH   3   4
TORSDOF 6
ENDMDL