MODEL 1
REMARK VINA RESULT: -6.239247069      0.000      0.000
REMARK  9 active torsions:
REMARK  status: ('A' for Active; 'I' for Inactive)
REMARK    1  A    between atoms: C2_2  and  C3_3
REMARK    2  A    between atoms: C3_3  and  N1_4
REMARK    3  A    between atoms: N1_4  and  C4_6
REMARK    4  A    between atoms: N4_18  and  C10_19
REMARK    5  A    between atoms: N5_22  and  C13_23
REMARK    6  A    between atoms: C13_23  and  C14_24
REMARK    7  A    between atoms: C14_24  and  O1_25
REMARK    8  A    between atoms: O1_25  and  C15_26
REMARK    9  A    between atoms: C15_26  and  C16_27
ROOT
HETATM    1  C4  UNL     1      -7.183  19.422 -20.747  1.00  0.00     0.117 A
HETATM    2  N2  UNL     1      -6.202  20.286 -20.463  1.00  0.00    -0.338 N
ATOM      3  H2  UNL     1      -5.737  20.815 -21.200  1.00  0.00     0.168 HD
HETATM    4  C5  UNL     1      -5.845  20.439 -19.160  1.00  0.00     0.183 A
HETATM    5  N3  UNL     1      -6.445  19.752 -18.173  1.00  0.00    -0.338 N
ATOM      6  H3  UNL     1      -6.140  19.903 -17.212  1.00  0.00     0.168 HD
HETATM    7  C6  UNL     1      -7.431  18.876 -18.412  1.00  0.00     0.126 A
HETATM    8  C7  UNL     1      -7.809  18.710 -19.740  1.00  0.00     0.077 A
HETATM    9  C8  UNL     1      -8.819  17.774 -19.695  1.00  0.00     0.090 A
HETATM   10 CL1  UNL     1      -9.675  17.176 -21.095  1.00  0.00    -0.080 Cl
HETATM   11  C9  UNL     1      -9.053  17.382 -18.395  1.00  0.00     0.130 A
HETATM   12 CL2  UNL     1     -10.228  16.223 -17.817  1.00  0.00    -0.062 Cl
HETATM   13  N4  UNL     1      -8.200  18.063 -17.628  1.00  0.00    -0.316 N
ENDROOT
BRANCH  13  14
HETATM   14  C10 UNL     1      -8.072  17.988 -16.191  1.00  0.00     0.096 C
HETATM   15  C11 UNL     1      -6.627  17.861 -15.753  1.00  0.00     0.045 C
HETATM   16  C12 UNL     1      -6.436  18.324 -14.322  1.00  0.00     0.124 C
HETATM   17  N5  UNL     1      -7.592  18.088 -13.545  1.00  0.00    -0.391 N
HETATM   18  C21 UNL     1      -8.777  18.765 -13.993  1.00  0.00     0.124 C
HETATM   19  C22 UNL     1      -8.692  19.136 -15.457  1.00  0.00     0.045 C
BRANCH  17  20
HETATM   20  C13 UNL     1      -7.462  17.970 -12.146  1.00  0.00     0.084 C
BRANCH  20  21
HETATM   21  C14 UNL     1      -7.803  16.630 -11.548  1.00  0.00     0.211 C
BRANCH  21  22
HETATM   22  O1  UNL     1      -8.314  15.689 -12.309  1.00  0.00    -0.386 OA
BRANCH  22  23
HETATM   23  C15 UNL     1      -7.765  14.943 -13.240  1.00  0.00     0.172 C
BRANCH  23  24
HETATM   24  C16 UNL     1      -8.175  15.008 -14.665  1.00  0.00     0.009 C
HETATM   25  C17 UNL     1      -9.424  14.307 -15.012  1.00  0.00     0.007 C
HETATM   26  C18 UNL     1      -9.076  13.255 -16.058  1.00  0.00     0.000 C
HETATM   27  C19 UNL     1      -7.832  13.840 -16.706  1.00  0.00     0.000 C
HETATM   28  C20 UNL     1      -7.088  14.547 -15.613  1.00  0.00     0.007 C
ENDBRANCH  23  24
ENDBRANCH  22  23
ENDBRANCH  21  22
ENDBRANCH  20  21
ENDBRANCH  17  20
ENDBRANCH  13  14
BRANCH   1  29
HETATM   29  N1  UNL     1      -7.545  19.257 -21.961  1.00  0.00    -0.375 N
ATOM     30  H1  UNL     1      -7.246  18.422 -22.464  1.00  0.00     0.161 HD
BRANCH  29  31
HETATM   31  C3  UNL     1      -8.367  20.230 -22.631  1.00  0.00     0.121 C
BRANCH  31  32
HETATM   32  C2  UNL     1      -9.686  20.471 -21.920  1.00  0.00     0.015 C
HETATM   33  C1  UNL     1     -10.244  21.814 -22.362  1.00  0.00     0.006 C
ENDBRANCH  31  32
ENDBRANCH  29  31
ENDBRANCH   1  29
TORSDOF 9
ENDMDL