MODEL 4
REMARK VINA RESULT: -6.342298531      1.617      2.105
REMARK  9 active torsions:
REMARK  status: ('A' for Active; 'I' for Inactive)
REMARK    1  A    between atoms: C2_2  and  C3_3
REMARK    2  A    between atoms: C2_2  and  C17_28
REMARK       I    between atoms: C3_3  and  N1_5
REMARK    3  A    between atoms: N1_5  and  C4_6
REMARK    4  A    between atoms: N1_5  and  C14_25
REMARK    5  A    between atoms: C4_6  and  C5_7
REMARK    6  A    between atoms: C5_7  and  O2_8
REMARK    7  A    between atoms: O2_8  and  C6_9
REMARK    8  A    between atoms: C6_9  and  C7_13
REMARK    9  A    between atoms: C8_16  and  N4_17
ROOT
HETATM    1  O2  UNL     1      -5.955  16.770 -15.776  1.00  0.00    -0.333 OA
ENDROOT
BRANCH   1   2
HETATM    2  C5  UNL     1      -6.233  15.362 -15.866  1.00  0.00     0.197 C
BRANCH   2   3
HETATM    3  C4  UNL     1      -7.260  15.078 -14.765  1.00  0.00     0.153 C
BRANCH   3   4
HETATM    4  N1  UNL     1      -8.168  16.173 -14.560  1.00  0.00    -0.345 N
HETATM    5  C3  UNL     1      -9.268  16.378 -15.404  1.00  0.00     0.224 C
HETATM    6  O1  UNL     1     -10.027  17.362 -15.117  1.00  0.00    -0.273 OA
BRANCH   5   7
HETATM    7  C2  UNL     1      -9.641  15.579 -16.588  1.00  0.00     0.078 C
HETATM    8  C1  UNL     1     -10.188  16.417 -17.721  1.00  0.00     0.020 C
BRANCH   7   9
HETATM    9  C17 UNL     1     -10.597  14.430 -16.260  1.00  0.00    -0.002 C
HETATM   10  C18 UNL     1      -9.935  13.106 -16.234  1.00  0.00     0.005 C
HETATM   11  C19 UNL     1     -10.711  11.988 -16.883  1.00  0.00     0.000 C
HETATM   12  C20 UNL     1     -12.145  12.134 -16.367  1.00  0.00     0.000 C
HETATM   13  C21 UNL     1     -12.714  13.315 -17.093  1.00  0.00     0.000 C
HETATM   14  C22 UNL     1     -11.870  14.529 -17.025  1.00  0.00     0.005 C
ENDBRANCH   7   9
ENDBRANCH   5   7
BRANCH   4  15
HETATM   15  C14 UNL     1      -7.928  17.072 -13.453  1.00  0.00     0.087 A
HETATM   16  C15 UNL     1      -6.863  16.539 -12.459  1.00  0.00     0.027 A
HETATM   17  C16 UNL     1      -8.291  16.786 -12.070  1.00  0.00     0.027 A
ENDBRANCH   4  15
ENDBRANCH   3   4
ENDBRANCH   2   3
ENDBRANCH   1   2
BRANCH   1  18
HETATM   18  C6  UNL     1      -5.759  17.546 -16.882  1.00  0.00     0.165 C
HETATM   19  N2  UNL     1      -4.568  17.689 -17.339  1.00  0.00    -0.378 N
ATOM     20  H22 UNL     1      -3.788  17.226 -16.874  1.00  0.00     0.158 HD
ATOM     21  H21 UNL     1      -4.422  18.269 -18.166  1.00  0.00     0.158 HD
BRANCH  18  22
HETATM   22  C7  UNL     1      -6.892  18.220 -17.557  1.00  0.00     0.106 A
HETATM   23  N3  UNL     1      -7.129  17.970 -18.851  1.00  0.00    -0.336 N
HETATM   24  C8  UNL     1      -8.141  18.534 -19.572  1.00  0.00     0.125 A
ATOM     25  H3  UNL     1      -6.511  17.315 -19.330  1.00  0.00     0.168 HD
HETATM   26  C11 UNL     1      -8.933  19.404 -18.873  1.00  0.00     0.079 A
HETATM   27 CL1  UNL     1     -10.269  20.205 -19.655  1.00  0.00    -0.080 Cl
HETATM   28  C12 UNL     1      -8.744  19.707 -17.530  1.00  0.00     0.054 A
HETATM   29  C13 UNL     1      -7.695  19.087 -16.888  1.00  0.00     0.066 A
HETATM   30 CL2  UNL     1      -7.439  19.455 -15.194  1.00  0.00    -0.082 Cl
BRANCH  24  31
HETATM   31  N4  UNL     1      -8.323  18.218 -20.933  1.00  0.00    -0.375 N
HETATM   32  C9  UNL     1      -8.533  16.789 -21.244  1.00  0.00     0.150 C
HETATM   33  C10 UNL     1      -8.333  19.107 -22.048  1.00  0.00     0.150 C
ENDBRANCH  24  31
ENDBRANCH  18  22
ENDBRANCH   1  18
TORSDOF 9
ENDMDL