MODEL 2
REMARK VINA RESULT: -5.271864448      0.936      1.607
REMARK  8 active torsions:
REMARK  status: ('A' for Active; 'I' for Inactive)
REMARK    1  A    between atoms: C2_2  and  C4_4
REMARK    2  A    between atoms: C4_4  and  C5_5
REMARK    3  A    between atoms: C5_5  and  O1_6
REMARK    4  A    between atoms: O1_6  and  C6_7
REMARK    5  A    between atoms: C7_8  and  C8_9
REMARK    6  A    between atoms: C8_9  and  N1_10
REMARK    7  A    between atoms: C11_13  and  N2_14
REMARK    8  A    between atoms: C15_18  and  C16_19
ROOT
HETATM    1  N1  UNL     1      -6.706  16.732 -17.532  1.00  0.00    -0.406 N
HETATM    2  C9  UNL     1      -7.094  18.188 -17.444  1.00  0.00     0.119 C
HETATM    3  C10 UNL     1      -7.278  18.635 -18.872  1.00  0.00     0.044 C
HETATM    4  C11 UNL     1      -8.276  17.741 -19.571  1.00  0.00     0.082 C
HETATM    5  C18 UNL     1      -8.877  16.843 -18.537  1.00  0.00     0.044 C
HETATM    6  C19 UNL     1      -7.743  15.958 -17.969  1.00  0.00     0.119 C
ENDROOT
BRANCH   1   7
HETATM    7  C8  UNL     1      -5.837  16.518 -16.424  1.00  0.00     0.185 C
BRANCH   7   8
HETATM    8  C7  UNL     1      -6.461  16.814 -15.104  1.00  0.00     0.107 A
HETATM    9  C6  UNL     1      -7.104  16.003 -14.269  1.00  0.00     0.125 A
HETATM   10  C21 UNL     1      -7.587  16.780 -13.195  1.00  0.00     0.115 A
HETATM   11  C20 UNL     1      -7.152  18.039 -13.503  1.00  0.00     0.169 A
HETATM   12 CL2  UNL     1      -8.585  16.177 -11.898  1.00  0.00    -0.077 Cl
HETATM   13  O4  UNL     1      -6.498  18.019 -14.618  1.00  0.00    -0.296 OA
HETATM   14 CL1  UNL     1      -7.437  19.492 -12.529  1.00  0.00    -0.054 Cl
BRANCH   9  15
HETATM   15  O1  UNL     1      -7.373  14.613 -14.268  1.00  0.00    -0.347 OA
BRANCH  15  16
HETATM   16  C5  UNL     1      -8.249  14.022 -15.130  1.00  0.00     0.176 C
BRANCH  16  17
HETATM   17  C4  UNL     1      -9.541  14.670 -15.373  1.00  0.00     0.030 C
BRANCH  17  18
HETATM   18  C2  UNL     1     -10.297  13.976 -16.520  1.00  0.00    -0.021 C
HETATM   19  C1  UNL     1     -10.723  12.592 -16.261  1.00  0.00     0.009 C
HETATM   20  C3  UNL     1     -11.550  14.829 -16.813  1.00  0.00     0.009 C
ENDBRANCH  17  18
ENDBRANCH  16  17
ENDBRANCH  15  16
ENDBRANCH   9  15
ENDBRANCH   7   8
ENDBRANCH   1   7
BRANCH   4  21
HETATM   21  N2  UNL     1      -9.144  18.435 -20.442  1.00  0.00    -0.407 N
HETATM   22  C12 UNL     1     -10.527  18.445 -20.114  1.00  0.00     0.117 C
HETATM   23  C13 UNL     1     -11.057  19.745 -19.636  1.00  0.00     0.020 C
HETATM   24  C14 UNL     1     -10.259  20.951 -19.925  1.00  0.00     0.019 C
HETATM   25  C15 UNL     1      -9.292  20.827 -21.074  1.00  0.00     0.104 C
HETATM   26  C17 UNL     1      -8.618  19.520 -21.192  1.00  0.00     0.132 C
BRANCH  25  27
HETATM   27  C16 UNL     1      -9.911  21.317 -22.348  1.00  0.00     0.178 C
HETATM   28  O2  UNL     1     -10.763  20.635 -22.951  1.00  0.00    -0.648 OA
HETATM   29  O3  UNL     1      -9.558  22.537 -22.899  1.00  0.00    -0.648 OA
ENDBRANCH  25  27
ENDBRANCH   4  21
TORSDOF 8
ENDMDL