MODEL 2
REMARK VINA RESULT: -6.847999610      2.088      5.789
REMARK  11 active torsions:
REMARK  status: ('A' for Active; 'I' for Inactive)
REMARK    1  A    between atoms: C2_2  and  C3_3
REMARK    2  A    between atoms: C4_4  and  O1_5
REMARK    3  A    between atoms: C6_8  and  O2_9
REMARK    4  A    between atoms: O2_9  and  C7_10
REMARK    5  A    between atoms: C7_10  and  C8_11
REMARK    6  A    between atoms: C8_11  and  N1_12
REMARK    7  A    between atoms: N1_12  and  C10_14
REMARK    8  A    between atoms: C10_14  and  C11_15
REMARK    9  A    between atoms: C11_15  and  O4_17
REMARK   10  A    between atoms: O4_17  and  C12_18
REMARK   11  A    between atoms: C21_28  and  C22_29
ROOT
HETATM    1  C7  UNL     1      -7.754  19.165 -13.970  1.00  0.00     0.220 C
ENDROOT
BRANCH   1   2
HETATM    2  O2  UNL     1      -8.525  19.018 -15.102  1.00  0.00    -0.346 OA
BRANCH   2   3
HETATM    3  C6  UNL     1      -8.162  18.982 -16.422  1.00  0.00     0.072 A
HETATM    4  C5  UNL     1      -6.867  18.773 -16.806  1.00  0.00     0.073 A
HETATM    5  C4  UNL     1      -6.579  18.756 -18.167  1.00  0.00     0.075 A
HETATM    6  C3  UNL     1      -7.580  18.947 -19.143  1.00  0.00    -0.016 A
HETATM    7  C21 UNL     1      -8.873  19.155 -18.769  1.00  0.00    -0.008 A
HETATM    8  C20 UNL     1      -9.125  19.166 -17.400  1.00  0.00     0.048 A
BRANCH   5   9
HETATM    9  O1  UNL     1      -5.255  18.540 -18.520  1.00  0.00    -0.360 OA
ATOM     10  H1  UNL     1      -4.604  19.227 -18.447  1.00  0.00     0.217 HD
ENDBRANCH   5   9
BRANCH   6  11
HETATM   11  C2  UNL     1      -7.184  18.891 -20.537  1.00  0.00     0.037 C
HETATM   12  C1  UNL     1      -6.567  20.180 -21.047  1.00  0.00     0.010 C
ENDBRANCH   6  11
BRANCH   7  13
HETATM   13  C22 UNL     1      -9.937  19.384 -19.724  1.00  0.00     0.124 C
HETATM   14  C23 UNL     1     -10.157  20.724 -20.299  1.00  0.00     0.057 C
HETATM   15  C24 UNL     1      -9.962  18.300 -20.829  1.00  0.00     0.057 C
HETATM   16  F1  UNL     1     -11.150  19.115 -19.041  1.00  0.00    -0.238 F
ENDBRANCH   7  13
ENDBRANCH   2   3
ENDBRANCH   1   2
BRANCH   1  17
HETATM   17  C8  UNL     1      -7.934  18.100 -12.942  1.00  0.00     0.089 C
BRANCH  17  18
HETATM   18  N1  UNL     1      -7.517  16.818 -13.286  1.00  0.00    -0.367 N
HETATM   19  C9  UNL     1      -8.005  15.681 -12.643  1.00  0.00     0.154 C
BRANCH  18  20
HETATM   20  C10 UNL     1      -6.451  16.586 -14.163  1.00  0.00     0.172 C
BRANCH  20  21
HETATM   21  C11 UNL     1      -6.722  15.622 -15.233  1.00  0.00     0.299 C
HETATM   22  O3  UNL     1      -6.021  14.626 -15.391  1.00  0.00    -0.259 OA
BRANCH  21  23
HETATM   23  O4  UNL     1      -7.712  15.654 -16.163  1.00  0.00    -0.310 OA
BRANCH  23  24
HETATM   24  C12 UNL     1      -8.458  14.738 -16.773  1.00  0.00     0.155 C
HETATM   25  C13 UNL     1      -9.662  14.580 -15.810  1.00  0.00     0.017 C
HETATM   26  C14 UNL     1     -10.721  13.711 -16.375  1.00  0.00     0.012 C
HETATM   27  C18 UNL     1     -10.243  15.980 -16.108  1.00  0.00     0.014 C
HETATM   28  C15 UNL     1     -11.548  14.573 -17.351  1.00  0.00    -0.013 C
HETATM   29  C16 UNL     1     -12.771  15.130 -16.726  1.00  0.00     0.010 C
HETATM   30  C17 UNL     1     -10.479  15.654 -17.596  1.00  0.00     0.011 C
HETATM   31  C19 UNL     1      -9.221  14.961 -18.006  1.00  0.00     0.116 C
HETATM   32 CL1  UNL     1      -8.404  15.678 -19.377  1.00  0.00    -0.122 Cl
ENDBRANCH  23  24
ENDBRANCH  21  23
ENDBRANCH  20  21
ENDBRANCH  18  20
ENDBRANCH  17  18
ENDBRANCH   1  17
TORSDOF 11
ENDMDL