MODEL 5
REMARK VINA RESULT: -4.400306079      3.817      6.655
REMARK  9 active torsions:
REMARK  status: ('A' for Active; 'I' for Inactive)
REMARK    1  A    between atoms: C2_2  and  N1_3
REMARK    2  A    between atoms: N1_3  and  C3_4
REMARK       I    between atoms: N1_3  and  C5_6
REMARK    3  A    between atoms: C5_6  and  C6_8
REMARK    4  A    between atoms: C6_8  and  S1_9
REMARK    5  A    between atoms: S1_9  and  C7_10
REMARK    6  A    between atoms: C10_15  and  C11_16
REMARK    7  A    between atoms: C12_17  and  C13_18
REMARK    8  A    between atoms: C13_18  and  C14_20
REMARK    9  A    between atoms: C14_20  and  C15_21
ROOT
HETATM    1  C7  UNL     1      -8.501  13.977 -15.542  1.00  0.00     0.148 A
HETATM    2  N2  UNL     1      -8.202  14.694 -16.655  1.00  0.00    -0.334 N
ATOM      3  H2  UNL     1      -8.476  14.332 -17.569  1.00  0.00     0.168 HD
HETATM    4  C8  UNL     1      -7.557  15.865 -16.581  1.00  0.00     0.076 A
HETATM    5  C9  UNL     1      -7.126  16.801 -17.540  1.00  0.00     0.070 A
HETATM    6  C10 UNL     1      -6.508  17.846 -16.936  1.00  0.00     0.078 A
HETATM    7  O2  UNL     1      -6.565  17.534 -15.608  1.00  0.00    -0.303 OA
HETATM    8  C18 UNL     1      -7.156  16.418 -15.401  1.00  0.00     0.170 A
HETATM    9  C19 UNL     1      -7.461  15.683 -14.247  1.00  0.00     0.283 A
HETATM   10  O3  UNL     1      -7.114  16.149 -13.142  1.00  0.00    -0.265 OA
HETATM   11  N3  UNL     1      -8.108  14.520 -14.384  1.00  0.00    -0.301 N
ATOM     12  H3  UNL     1      -8.320  14.002 -13.531  1.00  0.00     0.171 HD
ENDROOT
BRANCH   1  13
HETATM   13  S1  UNL     1      -9.362  12.421 -15.675  1.00  0.00    -0.084 SA
BRANCH  13  14
HETATM   14  C6  UNL     1     -10.666  12.424 -16.889  1.00  0.00     0.185 C
BRANCH  14  15
HETATM   15  C5  UNL     1     -11.846  13.145 -16.372  1.00  0.00     0.229 C
HETATM   16  N1  UNL     1     -12.113  14.513 -16.701  1.00  0.00    -0.352 N
HETATM   17  O1  UNL     1     -12.644  12.546 -15.621  1.00  0.00    -0.273 OA
BRANCH  16  18
HETATM   18  C2  UNL     1     -13.276  15.201 -16.184  1.00  0.00     0.121 C
HETATM   19  C1  UNL     1     -13.879  16.150 -17.177  1.00  0.00     0.026 C
ENDBRANCH  16  18
BRANCH  16  20
HETATM   20  C3  UNL     1     -11.223  15.261 -17.567  1.00  0.00     0.121 C
HETATM   21  C4  UNL     1     -10.832  16.592 -17.010  1.00  0.00     0.026 C
ENDBRANCH  16  20
ENDBRANCH  14  15
ENDBRANCH  13  14
ENDBRANCH   1  13
BRANCH   6  22
HETATM   22  C11 UNL     1      -5.885  19.077 -17.377  1.00  0.00     0.039 C
HETATM   23  C12 UNL     1      -5.702  19.761 -18.403  1.00  0.00     0.026 C
BRANCH  23  24
HETATM   24  C13 UNL     1      -6.028  19.711 -19.777  1.00  0.00     0.032 C
HETATM   25 CL1  UNL     1      -5.476  20.929 -20.968  1.00  0.00    -0.085 Cl
BRANCH  24  26
HETATM   26  C14 UNL     1      -6.751  18.706 -20.289  1.00  0.00     0.022 C
BRANCH  26  27
HETATM   27  C15 UNL     1      -8.112  18.754 -20.749  1.00  0.00     0.049 C
HETATM   28  C16 UNL     1      -9.059  19.075 -19.607  1.00  0.00     0.036 C
HETATM   29  C17 UNL     1      -8.464  17.317 -21.255  1.00  0.00     0.036 C
HETATM   30 CL2  UNL     1      -8.440  19.780 -22.152  1.00  0.00    -0.116 Cl
ENDBRANCH  26  27
ENDBRANCH  24  26
ENDBRANCH  23  24
ENDBRANCH   6  22
TORSDOF 9
ENDMDL