MODEL 4
REMARK VINA RESULT: -6.339175829      3.374      6.411
REMARK  8 active torsions:
REMARK  status: ('A' for Active; 'I' for Inactive)
REMARK    1  A    between atoms: C2_2  and  C3_3
REMARK    2  A    between atoms: C2_2  and  C19_29
REMARK    3  A    between atoms: C3_3  and  N1_4
REMARK    4  A    between atoms: C4_5  and  S1_6
REMARK    5  A    between atoms: S1_6  and  C5_7
REMARK    6  A    between atoms: C5_7  and  C6_8
REMARK       I    between atoms: C6_8  and  N2_10
REMARK    7  A    between atoms: N2_10  and  C7_12
REMARK    8  A    between atoms: C7_12  and  C8_13
ROOT
HETATM    1  N1  UNL     1      -9.595  16.112 -17.521  1.00  0.00    -0.322 N
HETATM    2  C4  UNL     1      -8.684  15.145 -17.714  1.00  0.00     0.148 A
HETATM    3  N4  UNL     1      -7.925  15.558 -18.758  1.00  0.00    -0.335 N
ATOM      4  H4  UNL     1      -7.141  15.034 -19.147  1.00  0.00     0.168 HD
HETATM    5  C13 UNL     1      -8.342  16.751 -19.212  1.00  0.00     0.063 A
HETATM    6  C14 UNL     1      -7.906  17.580 -20.240  1.00  0.00     0.057 A
HETATM    7  C15 UNL     1      -8.576  18.770 -20.444  1.00  0.00     0.058 A
HETATM    8 CL1  UNL     1      -8.010  19.807 -21.751  1.00  0.00    -0.082 Cl
HETATM    9  C16 UNL     1      -9.656  19.156 -19.665  1.00  0.00     0.058 A
HETATM   10 CL2  UNL     1     -10.463  20.685 -19.981  1.00  0.00    -0.082 Cl
HETATM   11  C17 UNL     1     -10.064  18.314 -18.655  1.00  0.00     0.057 A
HETATM   12  C18 UNL     1      -9.413  17.120 -18.428  1.00  0.00     0.065 A
ENDROOT
BRANCH   2  13
HETATM   13  S1  UNL     1      -8.475  13.580 -16.831  1.00  0.00    -0.084 SA
BRANCH  13  14
HETATM   14  C5  UNL     1      -8.534  13.941 -15.046  1.00  0.00     0.185 C
BRANCH  14  15
HETATM   15  C6  UNL     1      -7.477  14.932 -14.684  1.00  0.00     0.227 C
HETATM   16  O1  UNL     1      -6.331  14.875 -15.199  1.00  0.00    -0.273 OA
HETATM   17  N2  UNL     1      -7.730  15.969 -13.750  1.00  0.00    -0.358 N
ATOM     18  H2  UNL     1      -8.656  16.023 -13.327  1.00  0.00     0.162 HD
BRANCH  17  19
HETATM   19  C7  UNL     1      -6.756  16.942 -13.371  1.00  0.00     0.158 C
BRANCH  19  20
HETATM   20  C8  UNL     1      -6.750  18.187 -14.228  1.00  0.00     0.240 C
HETATM   21  C9  UNL     1      -6.245  17.889 -15.631  1.00  0.00     0.039 C
HETATM   22  C10 UNL     1      -7.050  18.812 -16.509  1.00  0.00     0.032 C
HETATM   23  C11 UNL     1      -8.247  19.197 -15.697  1.00  0.00     0.272 C
HETATM   24  N3  UNL     1      -8.142  18.557 -14.422  1.00  0.00     0.090 N
HETATM   25  C12 UNL     1      -8.621  19.415 -13.357  1.00  0.00     0.310 C
ENDBRANCH  19  20
ENDBRANCH  17  19
ENDBRANCH  14  15
ENDBRANCH  13  14
ENDBRANCH   2  13
BRANCH   1  26
HETATM   26  C3  UNL     1     -10.596  16.119 -16.508  1.00  0.00     0.165 C
BRANCH  26  27
HETATM   27  C2  UNL     1     -11.719  15.160 -16.710  1.00  0.00    -0.067 C
HETATM   28  C1  UNL     1     -12.911  15.681 -16.886  1.00  0.00     0.016 C
BRANCH  27  29
HETATM   29  C19 UNL     1     -11.533  13.702 -16.719  1.00  0.00     0.015 A
HETATM   30  C20 UNL     1     -12.478  12.800 -17.454  1.00  0.00     0.010 A
HETATM   31  C21 UNL     1     -12.482  12.781 -15.971  1.00  0.00     0.010 A
ENDBRANCH  27  29
ENDBRANCH  26  27
ENDBRANCH   1  26
TORSDOF 8
ENDMDL