MODEL 1
REMARK VINA RESULT: -7.783241749      0.000      0.000
REMARK  9 active torsions:
REMARK  status: ('A' for Active; 'I' for Inactive)
REMARK    1  A    between atoms: C1_2  and  O2_3
REMARK       I    between atoms: C1_2  and  N1_13
REMARK    2  A    between atoms: O2_3  and  C2_4
REMARK    3  A    between atoms: C2_4  and  C3_5
REMARK    4  A    between atoms: N1_13  and  C9_14
REMARK    5  A    between atoms: N1_13  and  C17_25
REMARK    6  A    between atoms: C9_14  and  C10_15
REMARK    7  A    between atoms: C10_15  and  C11_16
REMARK    8  A    between atoms: C11_16  and  C12_17
REMARK    9  A    between atoms: C12_17  and  N2_18
ROOT
HETATM    1  O1  UNL     1      -6.927  19.733 -18.957  1.00  0.00    -0.238 OA
HETATM    2  C1  UNL     1      -7.099  18.494 -19.106  1.00  0.00     0.363 C
HETATM    3  N1  UNL     1      -8.054  17.993 -20.067  1.00  0.00    -0.323 N
ENDROOT
BRANCH   3   4
HETATM    4  C9  UNL     1      -8.211  16.571 -20.196  1.00  0.00     0.129 C
BRANCH   4   5
HETATM    5  C10 UNL     1      -9.370  16.098 -19.369  1.00  0.00     0.022 C
BRANCH   5   6
HETATM    6  C11 UNL     1      -8.957  15.596 -18.026  1.00  0.00     0.032 C
BRANCH   6   7
HETATM    7  C12 UNL     1      -9.750  16.117 -16.871  1.00  0.00     0.272 C
BRANCH   7   8
HETATM    8  N2  UNL     1     -10.482  15.002 -16.315  1.00  0.00     0.091 N
HETATM    9  C13 UNL     1      -9.666  13.865 -16.071  1.00  0.00     0.291 C
HETATM   10  C14 UNL     1     -10.274  12.552 -16.476  1.00  0.00     0.144 C
HETATM   11  N3  UNL     1     -11.663  12.409 -16.200  1.00  0.00    -0.418 N
HETATM   12  C15 UNL     1     -12.401  13.639 -16.119  1.00  0.00     0.144 C
ATOM     13  H3  UNL     1     -12.103  11.498 -16.070  1.00  0.00     0.153 HD
HETATM   14  C16 UNL     1     -11.745  14.740 -16.928  1.00  0.00     0.291 C
ENDBRANCH   7   8
ENDBRANCH   6   7
ENDBRANCH   5   6
ENDBRANCH   4   5
ENDBRANCH   3   4
BRANCH   3  15
HETATM   15  C17 UNL     1      -8.838  18.880 -20.885  1.00  0.00     0.089 C
HETATM   16  C18 UNL     1      -7.968  19.746 -21.722  1.00  0.00     0.025 C
HETATM   17  C19 UNL     1      -8.667  20.943 -22.310  1.00  0.00     0.002 C
HETATM   18  C20 UNL     1     -10.153  20.930 -22.018  1.00  0.00     0.000 C
HETATM   19  C21 UNL     1     -10.287  20.919 -20.510  1.00  0.00     0.002 C
HETATM   20  C22 UNL     1      -9.823  19.599 -20.003  1.00  0.00     0.025 C
ENDBRANCH   3  15
BRANCH   2  21
HETATM   21  O2  UNL     1      -6.361  17.633 -18.336  1.00  0.00    -0.299 OA
BRANCH  21  22
HETATM   22  C2  UNL     1      -5.670  18.020 -17.175  1.00  0.00     0.219 C
BRANCH  22  23
HETATM   23  C3  UNL     1      -6.322  17.553 -15.930  1.00  0.00    -0.032 A
HETATM   24  C4  UNL     1      -6.300  16.195 -15.668  1.00  0.00     0.011 A
HETATM   25  C5  UNL     1      -6.909  15.726 -14.508  1.00  0.00     0.026 A
HETATM   26  C6  UNL     1      -7.525  16.600 -13.633  1.00  0.00     0.055 A
HETATM   27 CL1  UNL     1      -8.297  16.002 -12.158  1.00  0.00    -0.083 Cl
HETATM   28  C7  UNL     1      -7.557  17.959 -13.876  1.00  0.00     0.056 A
HETATM   29 CL2  UNL     1      -8.342  19.026 -12.752  1.00  0.00    -0.083 Cl
HETATM   30  C8  UNL     1      -6.941  18.402 -15.042  1.00  0.00     0.035 A
ENDBRANCH  22  23
ENDBRANCH  21  22
ENDBRANCH   2  21
TORSDOF 9
ENDMDL