MODEL 1
REMARK VINA RESULT: -7.778466860      0.000      0.000
REMARK  9 active torsions:
REMARK  status: ('A' for Active; 'I' for Inactive)
REMARK    1  A    between atoms: C4_4  and  C5_5
REMARK    2  A    between atoms: C5_5  and  C6_6
REMARK    3  A    between atoms: C6_6  and  C7_7
REMARK    4  A    between atoms: C9_9  and  C10_10
REMARK    5  A    between atoms: C10_10  and  O1_11
REMARK    6  A    between atoms: O1_11  and  C11_12
REMARK    7  A    between atoms: C12_13  and  N1_14
REMARK    8  A    between atoms: N2_18  and  C15_19
REMARK    9  A    between atoms: C15_19  and  C16_20
ROOT
HETATM    1  C11 UNL     1      -7.450  19.220 -20.483  1.00  0.00     0.163 A
HETATM    2  C12 UNL     1      -8.746  18.846 -20.280  1.00  0.00     0.142 A
HETATM    3  N3  UNL     1      -9.733  19.517 -20.978  1.00  0.00    -0.344 N
ATOM      4  H3  UNL     1     -10.706  19.248 -20.836  1.00  0.00     0.167 HD
HETATM    5  C20 UNL     1      -9.455  20.506 -21.831  1.00  0.00     0.011 A
HETATM    6  C21 UNL     1     -10.560  21.178 -22.544  1.00  0.00     0.068 C
HETATM    7  C22 UNL     1      -8.166  20.907 -22.058  1.00  0.00     0.082 A
HETATM    8  C23 UNL     1      -7.164  20.260 -21.380  1.00  0.00     0.210 A
HETATM    9  O3  UNL     1      -5.950  20.583 -21.545  1.00  0.00    -0.285 OA
ENDROOT
BRANCH   2  10
HETATM   10  N1  UNL     1      -9.082  17.816 -19.400  1.00  0.00    -0.358 N
HETATM   11  C13 UNL     1      -8.324  16.600 -19.501  1.00  0.00     0.153 C
HETATM   12  C14 UNL     1      -9.028  15.316 -19.270  1.00  0.00     0.221 C
HETATM   13  O2  UNL     1      -9.270  14.872 -18.004  1.00  0.00    -0.273 OA
HETATM   14  N2  UNL     1     -10.125  15.605 -17.254  1.00  0.00    -0.246 N
HETATM   15  C18 UNL     1     -10.370  16.913 -17.605  1.00  0.00     0.115 C
HETATM   16  C19 UNL     1     -10.141  18.078 -18.435  1.00  0.00     0.171 C
BRANCH  14  17
HETATM   17  C15 UNL     1     -11.118  14.951 -16.545  1.00  0.00     0.154 C
BRANCH  17  18
HETATM   18  C16 UNL     1     -11.284  13.481 -16.720  1.00  0.00     0.209 C
HETATM   19  C17 UNL     1     -12.395  13.052 -15.747  1.00  0.00     0.076 C
HETATM   20  F1  UNL     1     -11.714  13.108 -17.967  1.00  0.00    -0.220 F
HETATM   21 CL1  UNL     1      -9.814  12.651 -16.209  1.00  0.00    -0.077 Cl
ENDBRANCH  17  18
ENDBRANCH  14  17
ENDBRANCH   2  10
BRANCH   1  22
HETATM   22  O1  UNL     1      -6.397  18.615 -19.836  1.00  0.00    -0.340 OA
BRANCH  22  23
HETATM   23  C10 UNL     1      -5.998  19.181 -18.560  1.00  0.00     0.203 C
BRANCH  23  24
HETATM   24  C9  UNL     1      -5.859  18.115 -17.607  1.00  0.00     0.002 C
HETATM   25  C7  UNL     1      -6.417  17.872 -16.479  1.00  0.00    -0.085 C
HETATM   26  C8  UNL     1      -5.942  16.538 -15.765  1.00  0.00     0.043 C
BRANCH  25  27
HETATM   27  C6  UNL     1      -7.410  18.542 -15.675  1.00  0.00     0.037 C
BRANCH  27  28
HETATM   28  C5  UNL     1      -8.406  17.712 -14.977  1.00  0.00     0.031 C
BRANCH  28  29
HETATM   29  C4  UNL     1      -7.985  17.671 -13.506  1.00  0.00    -0.024 C
HETATM   30  C2  UNL     1      -7.853  16.490 -12.939  1.00  0.00    -0.091 C
HETATM   31  C1  UNL     1      -7.444  16.428 -11.508  1.00  0.00     0.042 C
HETATM   32  C3  UNL     1      -8.096  15.238 -13.679  1.00  0.00     0.042 C
ENDBRANCH  28  29
ENDBRANCH  27  28
ENDBRANCH  25  27
ENDBRANCH  23  24
ENDBRANCH  22  23
ENDBRANCH   1  22
TORSDOF 9
ENDMDL