MODEL 4
REMARK VINA RESULT: -6.693618856      1.930      4.193
REMARK  9 active torsions:
REMARK  status: ('A' for Active; 'I' for Inactive)
REMARK    1  A    between atoms: N1_4  and  C4_5
REMARK    2  A    between atoms: C4_5  and  C5_6
REMARK    3  A    between atoms: C5_6  and  C6_7
REMARK    4  A    between atoms: C6_7  and  C7_8
REMARK    5  A    between atoms: C7_8  and  C8_9
REMARK    6  A    between atoms: C8_9  and  C9_10
REMARK    7  A    between atoms: C9_10  and  N2_11
REMARK    8  A    between atoms: N3_14  and  C12_15
REMARK    9  A    between atoms: C16_20  and  O1_21
ROOT
HETATM    1  N2  UNL     1     -10.819  16.130 -17.468  1.00  0.00     0.091 N
HETATM    2  C10 UNL     1     -10.325  17.203 -16.664  1.00  0.00     0.292 C
HETATM    3  C11 UNL     1      -9.467  18.156 -17.458  1.00  0.00     0.153 C
HETATM    4  N3  UNL     1      -9.433  17.853 -18.853  1.00  0.00    -0.376 N
HETATM    5  C18 UNL     1      -9.360  16.495 -19.355  1.00  0.00     0.153 C
HETATM    6  C19 UNL     1      -9.726  15.563 -18.223  1.00  0.00     0.292 C
ENDROOT
BRANCH   1   7
HETATM    7  C9  UNL     1     -11.539  15.138 -16.721  1.00  0.00     0.272 C
BRANCH   7   8
HETATM    8  C8  UNL     1     -11.052  13.745 -16.957  1.00  0.00     0.030 C
BRANCH   8   9
HETATM    9  C7  UNL     1     -10.456  13.085 -15.739  1.00  0.00     0.002 C
BRANCH   9  10
HETATM   10  C6  UNL     1      -9.016  12.803 -15.994  1.00  0.00     0.002 C
BRANCH  10  11
HETATM   11  C5  UNL     1      -8.117  13.987 -15.707  1.00  0.00     0.030 C
BRANCH  11  12
HETATM   12  C4  UNL     1      -8.517  14.740 -14.486  1.00  0.00     0.272 C
BRANCH  12  13
HETATM   13  N1  UNL     1      -8.046  16.095 -14.444  1.00  0.00     0.093 N
HETATM   14  C3  UNL     1      -7.721  16.569 -13.124  1.00  0.00     0.303 C
HETATM   15  C2  UNL     1      -7.349  18.051 -13.296  1.00  0.00     0.146 C
HETATM   16  C1  UNL     1      -8.567  18.725 -13.886  1.00  0.00     0.041 C
HETATM   17  O2  UNL     1      -6.216  18.197 -14.047  1.00  0.00    -0.378 OA
HETATM   18  C21 UNL     1      -6.165  17.502 -15.221  1.00  0.00     0.146 C
HETATM   19  C20 UNL     1      -6.824  16.164 -15.225  1.00  0.00     0.303 C
HETATM   20  C22 UNL     1      -6.653  18.322 -16.411  1.00  0.00     0.041 C
ENDBRANCH  12  13
ENDBRANCH  11  12
ENDBRANCH  10  11
ENDBRANCH   9  10
ENDBRANCH   8   9
ENDBRANCH   7   8
ENDBRANCH   1   7
BRANCH   4  21
HETATM   21  C12 UNL     1      -9.471  18.904 -19.805  1.00  0.00     0.055 A
HETATM   22  C13 UNL     1     -10.459  19.890 -19.759  1.00  0.00     0.033 A
HETATM   23  C14 UNL     1     -10.517  20.914 -20.680  1.00  0.00     0.029 A
HETATM   24  C15 UNL     1      -9.587  21.002 -21.688  1.00  0.00     0.069 A
HETATM   25 CL1  UNL     1      -9.687  22.324 -22.851  1.00  0.00    -0.081 Cl
HETATM   26  C16 UNL     1      -8.609  20.047 -21.753  1.00  0.00     0.111 A
HETATM   27  C17 UNL     1      -8.553  19.014 -20.824  1.00  0.00     0.095 A
HETATM   28 CL2  UNL     1      -7.276  17.833 -20.956  1.00  0.00    -0.079 Cl
BRANCH  26  29
HETATM   29  O1  UNL     1      -7.680  20.156 -22.782  1.00  0.00    -0.357 OA
ATOM     30  H1  UNL     1      -7.986  20.507 -23.610  1.00  0.00     0.217 HD
ENDBRANCH  26  29
ENDBRANCH   4  21
TORSDOF 9
ENDMDL