MODEL 3
REMARK VINA RESULT: -5.402860520      3.568      6.722
REMARK  9 active torsions:
REMARK  status: ('A' for Active; 'I' for Inactive)
REMARK    1  A    between atoms: C2_2  and  N1_4
REMARK       I    between atoms: N1_4  and  C4_6
REMARK    2  A    between atoms: C4_6  and  C5_8
REMARK    3  A    between atoms: N2_11  and  C8_12
REMARK    4  A    between atoms: C8_12  and  C9_13
REMARK    5  A    between atoms: C11_17  and  S1_18
REMARK    6  A    between atoms: S1_18  and  C12_19
REMARK    7  A    between atoms: C12_19  and  C13_20
REMARK    8  A    between atoms: N4_24  and  C15_25
REMARK    9  A    between atoms: C15_25  and  C16_26
ROOT
HETATM    1  C9  UNL     1      -7.883  14.919 -15.709  1.00  0.00     0.046 A
HETATM    2  C10 UNL     1      -8.657  14.593 -14.592  1.00  0.00     0.117 A
HETATM    3  N3  UNL     1      -8.251  15.398 -13.626  1.00  0.00    -0.345 N
ATOM      4  H3  UNL     1      -8.636  15.395 -12.682  1.00  0.00     0.167 HD
HETATM    5  C11 UNL     1      -7.283  16.210 -14.033  1.00  0.00     0.146 A
HETATM    6  N4  UNL     1      -7.040  15.919 -15.346  1.00  0.00    -0.328 N
ENDROOT
BRANCH   1   7
HETATM    7  C8  UNL     1      -8.004  14.278 -17.018  1.00  0.00     0.175 C
BRANCH   7   8
HETATM    8  N2  UNL     1      -8.861  14.907 -17.965  1.00  0.00    -0.406 N
HETATM    9  C7  UNL     1      -9.859  15.772 -17.449  1.00  0.00     0.118 C
HETATM   10  C6  UNL     1      -9.393  17.216 -17.710  1.00  0.00     0.034 C
HETATM   11  C5  UNL     1      -9.677  17.398 -19.201  1.00  0.00     0.088 C
HETATM   12  C20 UNL     1      -8.831  16.405 -19.951  1.00  0.00    -0.020 C
HETATM   13  C19 UNL     1      -8.187  15.354 -19.132  1.00  0.00     0.126 C
HETATM   14  C21 UNL     1      -9.650  15.801 -21.094  1.00  0.00     0.017 C
HETATM   15  C22 UNL     1      -7.708  17.213 -20.623  1.00  0.00     0.017 C
BRANCH  11  16
HETATM   16  C4  UNL     1      -9.504  18.793 -19.616  1.00  0.00     0.223 C
HETATM   17  N1  UNL     1      -9.626  19.218 -20.964  1.00  0.00    -0.357 N
ATOM     18  H1  UNL     1      -9.845  18.528 -21.682  1.00  0.00     0.162 HD
HETATM   19  O1  UNL     1      -9.235  19.664 -18.751  1.00  0.00    -0.273 OA
BRANCH  17  20
HETATM   20  C2  UNL     1      -9.448  20.604 -21.352  1.00  0.00     0.076 C
HETATM   21  C1  UNL     1     -10.482  21.030 -22.364  1.00  0.00     0.032 C
HETATM   22  C3  UNL     1      -8.056  20.724 -21.953  1.00  0.00     0.032 C
ENDBRANCH  17  20
ENDBRANCH  11  16
ENDBRANCH   7   8
ENDBRANCH   1   7
BRANCH   6  23
HETATM   23  C15 UNL     1      -6.041  16.599 -16.149  1.00  0.00     0.135 C
BRANCH  23  24
HETATM   24  C16 UNL     1      -6.618  17.602 -17.086  1.00  0.00     0.004 A
HETATM   25  C17 UNL     1      -5.614  18.335 -18.002  1.00  0.00     0.007 A
HETATM   26  C18 UNL     1      -6.223  19.042 -16.850  1.00  0.00     0.007 A
ENDBRANCH  23  24
ENDBRANCH   6  23
BRANCH   5  27
HETATM   27  S1  UNL     1      -6.410  17.456 -13.133  1.00  0.00    -0.088 SA
BRANCH  27  28
HETATM   28  C12 UNL     1      -7.070  19.101 -13.300  1.00  0.00     0.160 C
BRANCH  28  29
HETATM   29  C13 UNL     1      -8.553  19.219 -13.279  1.00  0.00     0.248 C
HETATM   30  C14 UNL     1      -9.078  18.765 -14.649  1.00  0.00     0.091 C
HETATM   31  F1  UNL     1      -9.199  18.420 -12.370  1.00  0.00    -0.206 F
HETATM   32  F2  UNL     1      -8.963  20.552 -13.161  1.00  0.00    -0.206 F
ENDBRANCH  28  29
ENDBRANCH  27  28
ENDBRANCH   5  27
TORSDOF 9
ENDMDL