MODEL 2
REMARK VINA RESULT: -6.427847109      2.222      7.031
REMARK  7 active torsions:
REMARK  status: ('A' for Active; 'I' for Inactive)
REMARK    1  A    between atoms: C2_4  and  N2_6
REMARK    2  A    between atoms: C4_8  and  N3_9
REMARK    3  A    between atoms: C4_8  and  O5_28
REMARK    4  A    between atoms: C5_11  and  N4_12
REMARK    5  A    between atoms: C5_11  and  O3_24
REMARK    6  A    between atoms: O3_24  and  C14_25
REMARK    7  A    between atoms: O5_28  and  C16_29
ROOT
HETATM    1  N3  UNL     1       9.212  16.447  16.893  1.00  0.00    -0.287 N
ATOM      2  H3  UNL     1       9.663  16.255  15.999  1.00  0.00     0.173 HD
HETATM    3  C5  UNL     1       9.913  16.398  17.950  1.00  0.00     0.234 C
ENDROOT
BRANCH   3   4
HETATM    4  N4  UNL     1       9.386  16.645  19.246  1.00  0.00    -0.319 N
HETATM    5  C6  UNL     1       9.580  17.726  19.871  1.00  0.00     0.082 C
HETATM    6  C7  UNL     1      10.368  18.791  19.286  1.00  0.00     0.037 C
HETATM    7  C13 UNL     1       9.037  17.991  21.215  1.00  0.00     0.191 C
HETATM    8  C8  UNL     1      10.609  19.940  19.885  1.00  0.00     0.054 C
HETATM    9  C9  UNL     1      10.059  20.163  21.208  1.00  0.00     0.165 C
HETATM   10  O1  UNL     1      10.614  20.988  22.014  1.00  0.00    -0.292 OA
HETATM   11  C10 UNL     1       8.843  19.413  21.603  1.00  0.00     0.084 C
HETATM   12  C11 UNL     1       8.527  19.563  23.064  1.00  0.00     0.032 C
HETATM   13  C12 UNL     1       7.687  20.030  20.806  1.00  0.00     0.032 C
HETATM   14  O2  UNL     1       8.768  17.018  21.962  1.00  0.00    -0.289 OA
ATOM     15  H4  UNL     1       8.827  15.918  19.692  1.00  0.00     0.169 HD
ENDBRANCH   3   4
BRANCH   3  16
HETATM   16  O3  UNL     1      11.260  16.084  17.822  1.00  0.00    -0.246 OA
BRANCH  16  17
HETATM   17  C14 UNL     1      11.716  14.811  17.559  1.00  0.00     0.262 C
HETATM   18  C15 UNL     1      12.499  14.100  18.578  1.00  0.00     0.126 C
HETATM   19  O4  UNL     1      11.428  14.313  16.425  1.00  0.00    -0.265 OA
ENDBRANCH  16  17
ENDBRANCH   3  16
BRANCH   1  20
HETATM   20  C4  UNL     1       7.808  16.761  16.903  1.00  0.00     0.228 C
HETATM   21  N2  UNL     1       7.053  16.511  15.894  1.00  0.00    -0.312 N
ATOM     22  H2  UNL     1       6.067  16.762  15.973  1.00  0.00     0.170 HD
BRANCH  21  23
HETATM   23  C2  UNL     1       7.474  15.923  14.696  1.00  0.00     0.075 C
HETATM   24  N1  UNL     1       7.557  16.636  13.624  1.00  0.00    -0.384 N
HETATM   25  C1  UNL     1       7.982  16.103  12.350  1.00  0.00     0.147 C
ATOM     26  H1  UNL     1       7.310  17.625  13.678  1.00  0.00     0.160 HD
HETATM   27  C3  UNL     1       7.841  14.487  14.586  1.00  0.00     0.089 C
ENDBRANCH  21  23
BRANCH  20  28
HETATM   28  O5  UNL     1       7.198  17.352  18.009  1.00  0.00    -0.312 OA
BRANCH  28  29
HETATM   29  C16 UNL     1       6.492  18.556  17.916  1.00  0.00     0.060 C
HETATM   30  C17 UNL     1       5.355  18.356  16.924  1.00  0.00     0.046 C
HETATM   31  C18 UNL     1       5.922  19.030  19.213  1.00  0.00     0.046 C
HETATM   32  C19 UNL     1       7.355  19.677  17.341  1.00  0.00     0.046 C
ENDBRANCH  28  29
ENDBRANCH  20  28
ENDBRANCH   1  20
TORSDOF 7
ENDMDL