MODEL 5
REMARK VINA RESULT: -7.574692915      2.483      5.720
REMARK  2 active torsions:
REMARK  status: ('A' for Active; 'I' for Inactive)
REMARK    1  A    between atoms: C18_21  and  O4_23
REMARK    2  A    between atoms: C21_25  and  O5_26
ROOT
HETATM    1  C1  UNL     1       5.758  20.233  20.393  1.00  0.00     0.015 C
HETATM    2  C2  UNL     1       6.970  19.823  20.207  1.00  0.00    -0.080 C
HETATM    3  C3  UNL     1       8.132  20.008  21.128  1.00  0.00     0.039 C
HETATM    4  C4  UNL     1       8.791  18.692  21.342  1.00  0.00    -0.006 C
HETATM    5  C5  UNL     1      10.031  18.436  20.472  1.00  0.00     0.016 C
HETATM    6  C6  UNL     1       9.626  17.770  19.200  1.00  0.00    -0.022 C
HETATM    7  C7  UNL     1      10.329  18.573  18.143  1.00  0.00     0.021 C
HETATM    8  C8  UNL     1      10.305  17.718  16.940  1.00  0.00     0.049 C
HETATM    9  C9  UNL     1       8.983  17.126  16.526  1.00  0.00     0.267 C
HETATM   10  O1  UNL     1       7.964  17.959  16.703  1.00  0.00    -0.361 OA
HETATM   11  C10 UNL     1       6.731  17.648  17.085  1.00  0.00     0.172 C
HETATM   12  C11 UNL     1       6.138  18.540  18.200  1.00  0.00     0.040 C
HETATM   13  C12 UNL     1       7.398  19.056  18.945  1.00  0.00    -0.015 C
HETATM   14  C13 UNL     1       7.754  20.248  18.200  1.00  0.00     0.020 C
HETATM   15  C14 UNL     1       8.150  17.899  19.341  1.00  0.00     0.011 C
HETATM   16  C15 UNL     1       7.870  17.634  20.830  1.00  0.00    -0.008 C
HETATM   17  C16 UNL     1       8.120  16.419  21.516  1.00  0.00     0.011 C
HETATM   18  O2  UNL     1       8.801  15.820  16.928  1.00  0.00    -0.330 OA
HETATM   19  C17 UNL     1       9.199  15.463  18.164  1.00  0.00     0.276 C
HETATM   20  O3  UNL     1       9.944  14.242  18.086  1.00  0.00    -0.322 OA
HETATM   21  C18 UNL     1      10.716  14.172  16.945  1.00  0.00     0.189 C
HETATM   22  C19 UNL     1      11.746  13.063  17.214  1.00  0.00     0.082 C
HETATM   23  C21 UNL     1      11.339  15.493  16.743  1.00  0.00     0.185 C
HETATM   24  C22 UNL     1      11.102  16.588  17.629  1.00  0.00     0.042 C
HETATM   25  C23 UNL     1      10.151  16.415  18.844  1.00  0.00     0.021 C
HETATM   26  C24 UNL     1      10.961  15.670  19.816  1.00  0.00     0.022 C
ENDROOT
BRANCH  21  27
HETATM   27  O4  UNL     1       9.885  13.714  15.936  1.00  0.00    -0.358 OA
HETATM   28  C20 UNL     1       9.245  12.533  16.149  1.00  0.00     0.205 C
ENDBRANCH  21  27
BRANCH  23  29
HETATM   29  O5  UNL     1      12.741  15.268  16.655  1.00  0.00    -0.390 OA
ATOM     30  H5  UNL     1      12.919  15.022  15.755  1.00  0.00     0.210 HD
ENDBRANCH  23  29
TORSDOF 2
ENDMDL