MODEL 2
REMARK VINA RESULT: -4.562329990      1.229      1.572
REMARK  1 active torsions:
REMARK  status: ('A' for Active; 'I' for Inactive)
REMARK    1  A    between atoms: C20_23  and  O4_24
ROOT
HETATM    1  C1  UNL     1       9.936  20.777  22.787  1.00  0.00     0.010 C
HETATM    2  C2  UNL     1       8.971  20.767  21.671  1.00  0.00    -0.013 C
HETATM    3  C3  UNL     1       7.732  19.875  21.859  1.00  0.00     0.012 C
HETATM    4  C4  UNL     1       7.819  19.558  20.462  1.00  0.00     0.020 C
HETATM    5  C5  UNL     1       7.746  18.150  19.925  1.00  0.00     0.127 C
HETATM    6  C6  UNL     1       8.372  17.248  20.946  1.00  0.00     0.033 C
HETATM    7  C7  UNL     1       9.765  17.660  21.276  1.00  0.00     0.007 C
HETATM    8  C8  UNL     1      10.259  18.866  20.530  1.00  0.00    -0.009 C
HETATM    9  C9  UNL     1      10.934  18.572  19.232  1.00  0.00     0.014 C
HETATM   10  C10 UNL     1      10.622  17.298  18.591  1.00  0.00     0.048 C
HETATM   11  C11 UNL     1      11.562  16.740  17.574  1.00  0.00     0.176 C
HETATM   12  O1  UNL     1      10.390  16.300  16.894  1.00  0.00    -0.376 OA
HETATM   13  C12 UNL     1       9.820  17.446  17.305  1.00  0.00     0.097 C
HETATM   14  C13 UNL     1      10.011  18.696  16.538  1.00  0.00     0.047 C
HETATM   15  C14 UNL     1       9.502  18.350  15.143  1.00  0.00     0.072 C
HETATM   16  C15 UNL     1       8.077  17.866  15.261  1.00  0.00     0.168 C
HETATM   17  C16 UNL     1       7.498  18.014  16.632  1.00  0.00     0.109 C
HETATM   18  C17 UNL     1       8.348  17.411  17.742  1.00  0.00     0.094 C
HETATM   19  C18 UNL     1       7.892  16.028  18.030  1.00  0.00     0.049 C
HETATM   20  O2  UNL     1       8.362  18.292  18.754  1.00  0.00    -0.372 OA
HETATM   21  O3  UNL     1       7.338  18.730  14.437  1.00  0.00    -0.352 OA
HETATM   22  C19 UNL     1       6.147  18.149  14.022  1.00  0.00     0.206 C
HETATM   23  C20 UNL     1       6.589  17.091  13.006  1.00  0.00     0.176 C
HETATM   24  C21 UNL     1       7.576  16.212  13.683  1.00  0.00     0.085 C
HETATM   25  C22 UNL     1       8.766  16.031  12.731  1.00  0.00     0.048 C
HETATM   26  C23 UNL     1       6.935  14.817  13.788  1.00  0.00     0.048 C
HETATM   27  O5  UNL     1       8.025  16.561  14.888  1.00  0.00    -0.342 OA
HETATM   28  C24 UNL     1       9.259  19.980  20.442  1.00  0.00    -0.000 C
ENDROOT
BRANCH  23  29
HETATM   29  O4  UNL     1       7.126  17.807  11.931  1.00  0.00    -0.390 OA
ATOM     30  H4  UNL     1       7.577  17.163  11.397  1.00  0.00     0.210 HD
ENDBRANCH  23  29
TORSDOF 1
ENDMDL