MODEL 2
REMARK VINA RESULT: -7.515585443      2.053      6.224
REMARK  3 active torsions:
REMARK  status: ('A' for Active; 'I' for Inactive)
REMARK    1  A    between atoms: C11_12  and  O2_13
REMARK    2  A    between atoms: C18_21  and  O3_22
REMARK    3  A    between atoms: O3_22  and  C19_23
REMARK       I    between atoms: C19_23  and  N1_25
ROOT
HETATM    1  C1  UNL     1       6.498  17.775  13.223  1.00  0.00     0.039 C
HETATM    2  C2  UNL     1       6.691  18.507  14.543  1.00  0.00     0.120 C
HETATM    3  C3  UNL     1       6.697  17.592  15.722  1.00  0.00     0.076 C
HETATM    4  C4  UNL     1       8.085  17.818  16.332  1.00  0.00     0.189 C
HETATM    5  C5  UNL     1       8.778  18.643  15.336  1.00  0.00     0.210 C
HETATM    6  O1  UNL     1       7.817  19.283  14.572  1.00  0.00    -0.384 OA
HETATM    7  C6  UNL     1       8.663  16.482  16.627  1.00  0.00     0.032 C
HETATM    8  C7  UNL     1       9.013  15.659  15.442  1.00  0.00     0.008 C
HETATM    9  C8  UNL     1      10.446  15.135  15.482  1.00  0.00     0.013 C
HETATM   10  C9  UNL     1      10.669  14.367  16.753  1.00  0.00    -0.010 C
HETATM   11  C10 UNL     1      10.047  12.976  16.637  1.00  0.00     0.018 C
HETATM   12  C11 UNL     1      12.139  14.156  17.020  1.00  0.00     0.127 C
HETATM   13  C12 UNL     1      12.172  13.908  18.507  1.00  0.00     0.033 C
HETATM   14  C13 UNL     1      11.234  15.016  19.007  1.00  0.00     0.013 C
HETATM   15  C14 UNL     1      10.135  15.089  17.973  1.00  0.00    -0.030 C
HETATM   16  C15 UNL     1       8.916  14.423  18.523  1.00  0.00     0.016 C
HETATM   17  C16 UNL     1       9.865  16.540  17.556  1.00  0.00     0.005 C
HETATM   18  C17 UNL     1       9.624  17.410  18.750  1.00  0.00     0.070 C
HETATM   19  C18 UNL     1       9.094  18.738  18.312  1.00  0.00     0.369 C
HETATM   20  N2  UNL     1       7.898  18.546  17.548  1.00  0.00     0.126 N
HETATM   21  C22 UNL     1       7.247  19.818  17.379  1.00  0.00     0.314 C
ENDROOT
BRANCH  19  22
HETATM   22  O3  UNL     1       8.714  19.448  19.501  1.00  0.00    -0.267 OA
BRANCH  22  23
HETATM   23  C19 UNL     1       9.646  20.203  20.199  1.00  0.00     0.364 C
HETATM   24  O4  UNL     1      10.728  20.509  19.640  1.00  0.00    -0.238 OA
HETATM   25  N1  UNL     1       9.394  20.633  21.526  1.00  0.00    -0.337 N
HETATM   26  C20 UNL     1      10.386  21.417  22.219  1.00  0.00     0.154 C
HETATM   27  C21 UNL     1       8.125  20.262  22.152  1.00  0.00     0.154 C
ENDBRANCH  22  23
ENDBRANCH  19  22
BRANCH  12  28
HETATM   28  O2  UNL     1      12.638  13.014  16.399  1.00  0.00    -0.395 OA
ATOM     29  H2  UNL     1      13.575  13.059  16.249  1.00  0.00     0.210 HD
ENDBRANCH  12  28
TORSDOF 3
ENDMDL