MODEL 4
REMARK VINA RESULT: -6.982864229      1.811      4.372
REMARK  2 active torsions:
REMARK  status: ('A' for Active; 'I' for Inactive)
REMARK    1  A    between atoms: C11_14  and  O4_15
REMARK    2  A    between atoms: C20_26  and  C21_27
ROOT
HETATM    1  C1  UNL     1       8.068  15.164  14.666  1.00  0.00     0.018 C
HETATM    2  C2  UNL     1       8.766  16.433  15.169  1.00  0.00     0.077 C
HETATM    3  C3  UNL     1       8.493  17.584  14.133  1.00  0.00     0.169 C
HETATM    4  O1  UNL     1       9.390  18.562  14.525  1.00  0.00    -0.330 OA
HETATM    5  C4  UNL     1       9.352  18.873  15.898  1.00  0.00     0.417 C
HETATM    6  O2  UNL     1       8.051  18.500  16.161  1.00  0.00    -0.301 OA
HETATM    7  C5  UNL     1       8.024  17.086  16.236  1.00  0.00     0.180 C
HETATM    8  O3  UNL     1       6.741  17.005  15.591  1.00  0.00    -0.341 OA
HETATM    9  C6  UNL     1       7.055  17.745  14.412  1.00  0.00     0.084 C
HETATM   10  C7  UNL     1       6.297  17.016  13.281  1.00  0.00     0.048 C
HETATM   11  C8  UNL     1       6.495  19.129  14.399  1.00  0.00     0.048 C
HETATM   12  C9  UNL     1       8.006  16.755  17.631  1.00  0.00     0.060 C
HETATM   13  C10 UNL     1       7.047  17.841  18.223  1.00  0.00     0.050 C
HETATM   14  C11 UNL     1       7.645  19.178  18.511  1.00  0.00     0.076 C
HETATM   15  C12 UNL     1       6.984  19.660  19.836  1.00  0.00     0.017 C
HETATM   16  C13 UNL     1       5.511  19.609  19.773  1.00  0.00     0.013 C
HETATM   17  C14 UNL     1       7.641  18.837  20.805  1.00  0.00     0.008 C
HETATM   18  C15 UNL     1       8.786  18.458  20.332  1.00  0.00     0.020 C
HETATM   19  C16 UNL     1       9.028  19.036  18.877  1.00  0.00     0.044 A
HETATM   20  C17 UNL     1      10.161  19.741  19.126  1.00  0.00    -0.012 A
HETATM   21  C18 UNL     1      10.894  18.912  18.498  1.00  0.00     0.009 A
HETATM   22  C19 UNL     1       9.831  18.085  18.119  1.00  0.00     0.102 A
HETATM   23  O5  UNL     1      10.022  18.105  16.718  1.00  0.00    -0.322 OA
HETATM   24  C20 UNL     1       9.266  16.785  18.464  1.00  0.00     0.042 C
ENDROOT
BRANCH  24  25
HETATM   25  C21 UNL     1      10.102  15.602  18.663  1.00  0.00    -0.044 C
HETATM   26  C22 UNL     1       9.448  14.313  18.111  1.00  0.00     0.015 C
HETATM   27  C23 UNL     1      11.401  15.617  17.842  1.00  0.00     0.015 C
HETATM   28  C24 UNL     1      10.439  15.148  20.054  1.00  0.00     0.015 C
ENDBRANCH  24  25
BRANCH  14  29
HETATM   29  O4  UNL     1       7.205  20.266  17.767  1.00  0.00    -0.388 OA
ATOM     30  H4  UNL     1       7.049  21.086  18.221  1.00  0.00     0.210 HD
ENDBRANCH  14  29
TORSDOF 2
ENDMDL