MODEL 3
REMARK VINA RESULT: -4.413204574      0.808      1.115
REMARK  4 active torsions:
REMARK  status: ('A' for Active; 'I' for Inactive)
REMARK    1  A    between atoms: C3_3  and  O1_4
REMARK    2  A    between atoms: C12_14  and  O2_16
REMARK       I    between atoms: N1_24  and  C19_25
REMARK    3  A    between atoms: C19_25  and  O5_27
REMARK    4  A    between atoms: O5_27  and  C20_28
ROOT
HETATM    1  C1  UNL     1       6.296  14.204  16.075  1.00  0.00     0.102 C
HETATM    2  C2  UNL     1       7.453  14.557  15.894  1.00  0.00    -0.128 C
HETATM    3  C3  UNL     1       8.838  14.983  15.683  1.00  0.00     0.193 C
HETATM    4  C4  UNL     1       9.754  14.113  16.432  1.00  0.00     0.075 C
HETATM    5  C5  UNL     1      10.079  14.612  17.818  1.00  0.00     0.013 C
HETATM    6  C6  UNL     1      10.694  15.947  17.673  1.00  0.00     0.014 C
HETATM    7  C7  UNL     1      11.968  15.934  16.849  1.00  0.00     0.012 C
HETATM    8  C8  UNL     1       9.678  16.920  17.084  1.00  0.00     0.083 C
HETATM    9  C9  UNL     1      10.367  18.267  16.869  1.00  0.00     0.072 C
HETATM   10  C10 UNL     1      10.067  18.488  18.332  1.00  0.00    -0.042 C
HETATM   11  C11 UNL     1      10.294  19.073  19.483  1.00  0.00     0.019 C
HETATM   12  C12 UNL     1       9.503  18.769  20.707  1.00  0.00     0.103 C
HETATM   13  C13 UNL     1       8.583  19.902  20.987  1.00  0.00     0.053 C
HETATM   14  C14 UNL     1       8.876  17.410  20.637  1.00  0.00     0.089 C
HETATM   15  C15 UNL     1       7.543  17.449  21.342  1.00  0.00     0.049 C
HETATM   16  C16 UNL     1       9.731  16.493  21.543  1.00  0.00     0.049 C
HETATM   17  O3  UNL     1       8.904  16.803  19.427  1.00  0.00    -0.360 OA
HETATM   18  C17 UNL     1       8.923  17.513  18.286  1.00  0.00     0.108 C
HETATM   19  C18 UNL     1       7.573  18.059  17.950  1.00  0.00     0.054 C
HETATM   20  N1  UNL     1       8.978  16.438  15.982  1.00  0.00    -0.272 N
HETATM   21  C19 UNL     1       8.308  17.203  14.990  1.00  0.00     0.367 C
HETATM   22  O4  UNL     1       8.217  18.449  14.927  1.00  0.00    -0.238 OA
ENDROOT
BRANCH   3  23
HETATM   23  O1  UNL     1       9.079  14.768  14.305  1.00  0.00    -0.361 OA
ATOM     24  H1  UNL     1       8.272  14.394  13.971  1.00  0.00     0.213 HD
ENDBRANCH   3  23
BRANCH  21  25
HETATM   25  O5  UNL     1       7.626  16.598  13.897  1.00  0.00    -0.294 OA
BRANCH  25  26
HETATM   26  C20 UNL     1       7.251  17.354  12.747  1.00  0.00     0.061 C
HETATM   27  C21 UNL     1       8.421  18.166  12.228  1.00  0.00     0.046 C
HETATM   28  C22 UNL     1       6.181  18.333  13.159  1.00  0.00     0.046 C
HETATM   29  C23 UNL     1       6.742  16.387  11.701  1.00  0.00     0.046 C
ENDBRANCH  25  26
ENDBRANCH  21  25
BRANCH  12  30
HETATM   30  O2  UNL     1      10.462  18.806  21.762  1.00  0.00    -0.383 OA
ATOM     31  H2  UNL     1       9.958  18.609  22.542  1.00  0.00     0.211 HD
ENDBRANCH  12  30
TORSDOF 4
ENDMDL