MODEL 4
REMARK VINA RESULT: -7.240871991      2.232      5.779
REMARK  2 active torsions:
REMARK  status: ('A' for Active; 'I' for Inactive)
REMARK    1  A    between atoms: C5_5  and  O1_6
REMARK    2  A    between atoms: C5_5  and  N1_8
ROOT
HETATM    1  C1  UNL     1       9.895  15.422  20.979  1.00  0.00     0.013 C
HETATM    2  C2  UNL     1      10.008  16.667  20.088  1.00  0.00     0.026 C
HETATM    3  C3  UNL     1      10.265  17.857  20.911  1.00  0.00     0.012 C
HETATM    4  C4  UNL     1       9.119  18.640  21.381  1.00  0.00     0.072 C
HETATM    5  C5  UNL     1       7.892  18.697  20.402  1.00  0.00     0.267 C
HETATM    6  C8  UNL     1       8.470  18.291  19.094  1.00  0.00     0.125 C
HETATM    7  C9  UNL     1       8.017  18.757  17.788  1.00  0.00     0.142 C
HETATM    8  O2  UNL     1       9.040  19.437  17.055  1.00  0.00    -0.382 OA
HETATM    9  C10 UNL     1      10.247  18.833  17.016  1.00  0.00     0.200 C
HETATM   10  C11 UNL     1      10.237  17.438  16.455  1.00  0.00     0.149 C
HETATM   11  C12 UNL     1       9.406  17.594  15.200  1.00  0.00     0.040 C
HETATM   12  C13 UNL     1       7.993  17.989  15.387  1.00  0.00     0.007 C
HETATM   13  C14 UNL     1       7.224  17.251  14.305  1.00  0.00    -0.043 C
HETATM   14  C15 UNL     1       8.151  17.144  13.072  1.00  0.00     0.015 C
HETATM   15  C16 UNL     1       6.032  18.021  13.775  1.00  0.00     0.015 C
HETATM   16  C17 UNL     1       6.917  15.842  14.709  1.00  0.00     0.010 C
HETATM   17  C18 UNL     1       7.531  15.401  16.007  1.00  0.00     0.012 C
HETATM   18  C19 UNL     1       7.584  16.357  17.117  1.00  0.00     0.065 C
HETATM   19  C20 UNL     1       7.434  17.802  16.776  1.00  0.00    -0.004 C
HETATM   20  C21 UNL     1       5.928  18.060  16.759  1.00  0.00     0.019 C
HETATM   21  C22 UNL     1       8.859  16.214  17.868  1.00  0.00     0.237 C
HETATM   22  O3  UNL     1       8.757  15.106  18.707  1.00  0.00    -0.196 OA
HETATM   23  O4  UNL     1       7.920  15.878  19.428  1.00  0.00    -0.220 OA
HETATM   24  C23 UNL     1       8.833  16.858  19.211  1.00  0.00     0.169 C
HETATM   25  O5  UNL     1      10.003  16.393  17.219  1.00  0.00    -0.342 OA
ENDROOT
BRANCH   5  26
HETATM   26  O1  UNL     1       6.982  17.844  20.971  1.00  0.00    -0.362 OA
ATOM     27  H1  UNL     1       6.173  18.037  20.511  1.00  0.00     0.212 HD
ENDBRANCH   5  26
BRANCH   5  28
HETATM   28  N1  UNL     1       7.355  20.049  20.522  1.00  0.00     0.115 N
HETATM   29  C6  UNL     1       7.557  20.471  21.955  1.00  0.00     0.313 C
HETATM   30  C7  UNL     1       5.875  20.058  20.525  1.00  0.00     0.313 C
ENDBRANCH   5  28
TORSDOF 2
ENDMDL