MODEL 3
REMARK VINA RESULT: 0.158667916      2.073      7.194
REMARK  1 active torsions:
REMARK  status: ('A' for Active; 'I' for Inactive)
REMARK    1  A    between atoms: O1_1  and  C1_3
ROOT
HETATM    1  C1  UNL     1       9.899  17.332  19.551  1.00  0.00     0.122 C
HETATM    2  C2  UNL     1      10.474  17.702  20.878  1.00  0.00     0.032 C
HETATM    3  C3  UNL     1      10.748  19.146  21.080  1.00  0.00     0.002 C
HETATM    4  C4  UNL     1       9.571  20.052  21.093  1.00  0.00     0.000 C
HETATM    5  C5  UNL     1       8.353  19.510  21.797  1.00  0.00     0.000 C
HETATM    6  C6  UNL     1       7.153  20.318  21.356  1.00  0.00     0.000 C
HETATM    7  C7  UNL     1       6.239  19.453  20.536  1.00  0.00     0.000 C
HETATM    8  C8  UNL     1       5.470  20.213  19.487  1.00  0.00     0.000 C
HETATM    9  C9  UNL     1       6.305  20.932  18.504  1.00  0.00     0.002 C
HETATM   10  C10 UNL     1       6.167  20.570  17.087  1.00  0.00     0.030 C
HETATM   11  C11 UNL     1       5.882  19.147  16.771  1.00  0.00     0.272 C
HETATM   12  N1  UNL     1       7.018  18.299  17.080  1.00  0.00     0.090 N
HETATM   13  C12 UNL     1       8.133  18.569  16.207  1.00  0.00     0.272 C
HETATM   14  C13 UNL     1       9.390  18.903  16.984  1.00  0.00     0.031 C
HETATM   15  C14 UNL     1      10.256  17.696  17.090  1.00  0.00     0.009 C
HETATM   16  C15 UNL     1      10.889  17.504  18.442  1.00  0.00     0.016 C
HETATM   17  C16 UNL     1      11.892  16.400  18.371  1.00  0.00     0.033 C
HETATM   18  C17 UNL     1      11.382  15.101  17.861  1.00  0.00     0.168 C
HETATM   19  O2  UNL     1      12.140  14.586  16.797  1.00  0.00    -0.389 OA
HETATM   20  C18 UNL     1      11.520  13.362  16.464  1.00  0.00     0.193 C
HETATM   21  C19 UNL     1      10.355  13.544  15.543  1.00  0.00     0.193 C
HETATM   22  O3  UNL     1       9.139  13.386  16.213  1.00  0.00    -0.387 OA
HETATM   23  C20 UNL     1       8.090  13.191  15.349  1.00  0.00     0.193 C
HETATM   24  C21 UNL     1       6.908  14.099  15.618  1.00  0.00     0.193 C
HETATM   25  O4  UNL     1       7.256  15.414  15.326  1.00  0.00    -0.387 OA
HETATM   26  C22 UNL     1       6.321  16.319  15.793  1.00  0.00     0.198 C
HETATM   27  C23 UNL     1       6.665  16.902  17.127  1.00  0.00     0.298 C
ENDROOT
BRANCH   1  28
HETATM   28  O1  UNL     1       9.468  15.988  19.662  1.00  0.00    -0.395 OA
ATOM     29  H1  UNL     1       9.786  15.539  18.888  1.00  0.00     0.210 HD
ENDBRANCH   1  28
TORSDOF 1
ENDMDL