MODEL 4
REMARK VINA RESULT: -6.732206578      2.861      6.379
REMARK  2 active torsions:
REMARK  status: ('A' for Active; 'I' for Inactive)
REMARK    1  A    between atoms: N1_1  and  C1_4
REMARK    2  A    between atoms: C4_14  and  C5_15
ROOT
HETATM    1  C1  UNL     1      10.962  46.723  36.927  1.00  0.00     0.716 A
HETATM    2  N2  UNL     1      11.491  46.966  38.140  1.00  0.00    -0.139 N
ATOM      3  H2  UNL     1      11.103  47.717  38.709  1.00  0.00     0.189 HD
HETATM    4  C2  UNL     1      12.529  46.237  38.628  1.00  0.00     0.352 A
HETATM    5  O1  UNL     1      12.986  46.511  39.775  1.00  0.00    -0.246 OA
HETATM    6  N3  UNL     1      13.045  45.248  37.888  1.00  0.00    -0.138 N
ATOM      7  H3  UNL     1      13.824  44.695  38.244  1.00  0.00     0.189 HD
HETATM    8  C3  UNL     1      12.529  44.984  36.663  1.00  0.00     0.724 A
HETATM    9  N4  UNL     1      12.795  44.100  35.693  1.00  0.00    -0.172 N
ATOM     10  H4  UNL     1      13.530  43.395  35.741  1.00  0.00     0.186 HD
HETATM   11  C4  UNL     1      11.967  44.264  34.649  1.00  0.00     0.147 A
HETATM   12  N6  UNL     1      11.165  45.288  34.994  1.00  0.00    -0.248 N
ATOM     13  H6  UNL     1      10.417  45.669  34.415  1.00  0.00     0.190 HD
HETATM   14  N7  UNL     1      11.499  45.730  36.213  1.00  0.00     0.092 N
ENDROOT
BRANCH  11  15
HETATM   15  C5  UNL     1      11.974  43.478  33.427  1.00  0.00     0.012 A
HETATM   16  C6  UNL     1      12.522  42.216  33.347  1.00  0.00     0.032 A
HETATM   17  C7  UNL     1      12.519  41.483  32.174  1.00  0.00     0.088 A
HETATM   18  N5  UNL     1      11.949  42.058  31.091  1.00  0.00    -0.375 N
HETATM   19  C8  UNL     1      11.401  43.275  31.098  1.00  0.00     0.088 A
ATOM     20  H5  UNL     1      11.937  41.532  30.217  1.00  0.00     0.164 HD
HETATM   21  C9  UNL     1      11.409  44.008  32.289  1.00  0.00     0.032 A
ENDBRANCH  11  15
BRANCH   1  22
HETATM   22  N1  UNL     1       9.975  47.440  36.501  1.00  0.00    -0.232 N
ATOM     23  H12 UNL     1       9.545  47.305  35.586  1.00  0.00     0.174 HD
ATOM     24  H11 UNL     1       9.594  48.180  37.091  1.00  0.00     0.174 HD
ENDBRANCH   1  22
TORSDOF 2
ENDMDL