MODEL 4
REMARK VINA RESULT: -6.372420570      3.076      4.492
REMARK  1 active torsions:
REMARK  status: ('A' for Active; 'I' for Inactive)
REMARK    1  A    between atoms: N1_1  and  C1_4
ROOT
HETATM    1  C1  UNL     1      14.816  48.264  39.447  1.00  0.00     0.679 A
HETATM    2  N2  UNL     1      15.611  47.961  38.413  1.00  0.00    -0.154 N
ATOM      3  H2  UNL     1      16.528  48.403  38.340  1.00  0.00     0.187 HD
HETATM    4  C2  UNL     1      15.222  47.082  37.469  1.00  0.00     0.288 A
HETATM    5  O1  UNL     1      15.972  46.808  36.508  1.00  0.00    -0.265 OA
HETATM    6  C3  UNL     1      13.993  46.464  37.533  1.00  0.00     0.130 A
HETATM    7  N3  UNL     1      13.578  45.572  36.589  1.00  0.00    -0.334 N
ATOM      8  H3  UNL     1      14.192  45.350  35.806  1.00  0.00     0.168 HD
HETATM    9  C4  UNL     1      12.372  44.980  36.671  1.00  0.00     0.135 A
HETATM   10  N4  UNL     1      11.948  44.099  35.751  1.00  0.00    -0.336 N
ATOM     11  H4  UNL     1      12.562  43.875  34.968  1.00  0.00     0.168 HD
HETATM   12  C5  UNL     1      10.744  43.497  35.819  1.00  0.00     0.199 A
HETATM   13  N5  UNL     1       9.913  43.773  36.840  1.00  0.00    -0.296 N
ATOM     14  H5  UNL     1       8.998  43.327  36.906  1.00  0.00     0.187 HD
HETATM   15  N6  UNL     1      10.317  44.640  37.760  1.00  0.00    -0.296 N
ATOM     16  H6  UNL     1       9.690  44.851  38.537  1.00  0.00     0.187 HD
HETATM   17  C6  UNL     1      11.513  45.255  37.715  1.00  0.00     0.094 A
HETATM   18  C7  UNL     1      11.939  46.159  38.667  1.00  0.00     0.067 A
HETATM   19  C8  UNL     1      13.177  46.778  38.598  1.00  0.00     0.084 A
HETATM   20  N7  UNL     1      13.615  47.656  39.505  1.00  0.00    -0.190 N
ATOM     21  H7  UNL     1      13.003  47.880  40.290  1.00  0.00     0.184 HD
ENDROOT
BRANCH   1  22
HETATM   22  N1  UNL     1      15.188  49.115  40.366  1.00  0.00    -0.234 N
ATOM     23  H12 UNL     1      15.866  48.854  41.083  1.00  0.00     0.174 HD
ATOM     24  H11 UNL     1      14.813  50.062  40.397  1.00  0.00     0.174 HD
ENDBRANCH   1  22
TORSDOF 1
ENDMDL