MODEL 2
REMARK VINA RESULT: -5.866165504      2.170      5.137
REMARK  2 active torsions:
REMARK  status: ('A' for Active; 'I' for Inactive)
REMARK    1  A    between atoms: N1_1  and  N2_4
REMARK    2  A    between atoms: N4_9  and  C2_10
ROOT
HETATM    1  N2  UNL     1      11.718  44.916  37.352  1.00  0.00    -0.182 N
HETATM    2  C1  UNL     1      12.861  45.481  36.937  1.00  0.00     0.216 A
HETATM    3  S1  UNL     1      13.708  46.559  37.814  1.00  0.00    -0.037 SA
HETATM    4  N3  UNL     1      13.126  44.988  35.723  1.00  0.00    -0.263 N
ATOM      5  H3  UNL     1      13.939  45.243  35.161  1.00  0.00     0.190 HD
HETATM    6  N4  UNL     1      12.198  44.133  35.346  1.00  0.00    -0.196 N
HETATM    7  C7  UNL     1      11.326  44.092  36.364  1.00  0.00     0.369 A
HETATM    8  O2  UNL     1      10.280  43.381  36.394  1.00  0.00    -0.242 OA
ENDROOT
BRANCH   6   9
HETATM    9  C2  UNL     1      12.196  43.441  34.108  1.00  0.00     0.129 A
HETATM   10  C3  UNL     1      12.774  42.198  33.928  1.00  0.00     0.039 A
HETATM   11  C4  UNL     1      12.748  41.561  32.708  1.00  0.00     0.020 A
HETATM   12  C5  UNL     1      12.141  42.144  31.616  1.00  0.00     0.091 A
HETATM   13  N5  UNL     1      11.583  43.348  31.796  1.00  0.00    -0.332 N
HETATM   14  C6  UNL     1      11.602  43.976  32.976  1.00  0.00     0.274 A
ATOM     15  H5  UNL     1      11.126  43.802  31.004  1.00  0.00     0.168 HD
HETATM   16  O1  UNL     1      11.068  45.124  33.143  1.00  0.00    -0.266 OA
ENDBRANCH   6   9
BRANCH   1  17
HETATM   17  N1  UNL     1      11.046  45.131  38.577  1.00  0.00    -0.332 N
ATOM     18  H12 UNL     1      10.062  44.941  38.767  1.00  0.00     0.177 HD
ATOM     19  H11 UNL     1      11.436  45.503  39.442  1.00  0.00     0.177 HD
ENDBRANCH   1  17
TORSDOF 2
ENDMDL