MODEL 5
REMARK VINA RESULT: -6.224829346      1.492      2.434
REMARK  2 active torsions:
REMARK  status: ('A' for Active; 'I' for Inactive)
REMARK    1  A    between atoms: N1_1  and  C1_4
REMARK    2  A    between atoms: C3_6  and  N2_7
ROOT
HETATM    1  N2  UNL     1      11.576  44.469  35.952  1.00  0.00    -0.205 N
HETATM    2  N3  UNL     1      10.532  44.158  36.700  1.00  0.00    -0.231 N
ATOM      3  H3  UNL     1       9.803  43.550  36.329  1.00  0.00     0.209 HD
HETATM    4  N4  UNL     1      10.432  44.633  37.925  1.00  0.00    -0.268 N
ATOM      5  H4  UNL     1       9.620  44.383  38.488  1.00  0.00     0.190 HD
HETATM    6  C4  UNL     1      11.360  45.429  38.447  1.00  0.00     0.153 A
HETATM    7  N5  UNL     1      11.467  46.019  39.647  1.00  0.00    -0.284 N
ATOM      8  H5  UNL     1      10.803  45.950  40.418  1.00  0.00     0.188 HD
HETATM    9  N6  UNL     1      12.578  46.697  39.644  1.00  0.00    -0.309 N
ATOM     10  H6  UNL     1      12.913  47.247  40.435  1.00  0.00     0.186 HD
HETATM   11  C5  UNL     1      13.234  46.585  38.471  1.00  0.00     0.128 A
HETATM   12  C6  UNL     1      12.467  45.771  37.683  1.00  0.00     0.097 A
HETATM   13  C7  UNL     1      12.561  45.268  36.403  1.00  0.00     0.283 A
HETATM   14  O1  UNL     1      13.534  45.547  35.680  1.00  0.00    -0.265 OA
ENDROOT
BRANCH   1  15
HETATM   15  C3  UNL     1      11.696  43.955  34.610  1.00  0.00     0.066 A
HETATM   16  C2  UNL     1      12.197  42.696  34.353  1.00  0.00     0.079 A
HETATM   17  C1  UNL     1      12.298  42.237  33.056  1.00  0.00     0.100 A
HETATM   18  N7  UNL     1      11.922  42.973  31.994  1.00  0.00    -0.353 N
HETATM   19  C9  UNL     1      11.431  44.202  32.226  1.00  0.00     0.092 A
ATOM     20  H7  UNL     1      12.006  42.611  31.045  1.00  0.00     0.166 HD
HETATM   21  C8  UNL     1      11.314  44.698  33.510  1.00  0.00     0.049 A
BRANCH  17  22
HETATM   22  N1  UNL     1      12.773  41.046  32.829  1.00  0.00    -0.385 N
ATOM     23  H12 UNL     1      13.673  40.977  32.353  1.00  0.00     0.157 HD
ATOM     24  H11 UNL     1      12.243  40.226  33.125  1.00  0.00     0.157 HD
ENDBRANCH  17  22
ENDBRANCH   1  15
TORSDOF 2
ENDMDL