MODEL 1
REMARK VINA RESULT: -6.376280780      0.000      0.000
REMARK  1 active torsions:
REMARK  status: ('A' for Active; 'I' for Inactive)
REMARK    1  A    between atoms: C4_10  and  N4_11
ROOT
HETATM    1  O1  UNL     1      10.012  42.489  36.938  1.00  0.00    -0.264 OA
HETATM    2  C1  UNL     1      10.828  42.873  36.063  1.00  0.00     0.291 A
HETATM    3  N1  UNL     1      10.850  42.298  34.848  1.00  0.00    -0.329 N
ATOM      4  H1  UNL     1      10.203  41.541  34.627  1.00  0.00     0.168 HD
HETATM    5  C2  UNL     1      11.735  42.727  33.920  1.00  0.00     0.111 A
HETATM    6  C3  UNL     1      12.627  43.750  34.191  1.00  0.00     0.136 A
HETATM    7  N2  UNL     1      12.597  44.324  35.420  1.00  0.00    -0.230 N
HETATM    8  N3  UNL     1      13.297  45.299  35.979  1.00  0.00    -0.124 N
ATOM      9  H3  UNL     1      14.042  45.813  35.508  1.00  0.00     0.206 HD
HETATM   10  C4  UNL     1      12.902  45.526  37.243  1.00  0.00     0.697 A
HETATM   11  N6  UNL     1      11.910  44.644  37.468  1.00  0.00    -0.168 N
ATOM     12  H6  UNL     1      11.389  44.550  38.339  1.00  0.00     0.186 HD
HETATM   13  C9  UNL     1      11.715  43.900  36.349  1.00  0.00     0.211 A
ENDROOT
BRANCH  10  14
HETATM   14  N4  UNL     1      13.404  46.483  38.171  1.00  0.00    -0.213 N
HETATM   15  C5  UNL     1      12.691  46.843  39.370  1.00  0.00     0.168 C
HETATM   16  C6  UNL     1      13.100  48.188  39.912  1.00  0.00     0.252 C
HETATM   17  N5  UNL     1      14.518  48.338  40.057  1.00  0.00    -0.072 N
HETATM   18  C7  UNL     1      15.280  47.341  39.338  1.00  0.00     0.252 C
ATOM     19  H52 UNL     1      14.811  49.278  39.789  1.00  0.00     0.277 HD
ATOM     20  H51 UNL     1      14.781  48.353  41.042  1.00  0.00     0.277 HD
HETATM   21  C8  UNL     1      14.672  47.143  37.942  1.00  0.00     0.168 C
ENDBRANCH  10  14
TORSDOF 1
ENDMDL