MODEL 1
REMARK VINA RESULT: -6.546014924      0.000      0.000
REMARK  1 active torsions:
REMARK  status: ('A' for Active; 'I' for Inactive)
REMARK    1  A    between atoms: C7_16  and  N5_17
ROOT
HETATM    1  N1  UNL     1      15.064  47.477  37.913  1.00  0.00    -0.080 NA
HETATM    2  C1  UNL     1      13.954  46.605  37.801  1.00  0.00     0.151 A
HETATM    3  N2  UNL     1      13.796  45.778  36.755  1.00  0.00    -0.327 N
ATOM      4  H2  UNL     1      14.496  45.775  36.014  1.00  0.00     0.168 HD
HETATM    5  C2  UNL     1      12.722  44.940  36.657  1.00  0.00     0.137 A
HETATM    6  N3  UNL     1      12.590  44.121  35.595  1.00  0.00    -0.303 N
ATOM      7  H3  UNL     1      13.311  44.145  34.874  1.00  0.00     0.171 HD
HETATM    8  C3  UNL     1      11.579  43.291  35.440  1.00  0.00     0.315 A
HETATM    9  O1  UNL     1      11.503  42.556  34.442  1.00  0.00    -0.262 OA
HETATM   10  C4  UNL     1      10.592  43.250  36.420  1.00  0.00     0.314 A
HETATM   11  O2  UNL     1       9.653  42.459  36.248  1.00  0.00    -0.262 OA
HETATM   12  N4  UNL     1      10.713  44.067  37.488  1.00  0.00    -0.316 N
ATOM     13  H4  UNL     1       9.995  44.046  38.213  1.00  0.00     0.169 HD
HETATM   14  C5  UNL     1      11.744  44.897  37.622  1.00  0.00     0.082 A
HETATM   15  C6  UNL     1      11.871  45.738  38.723  1.00  0.00     0.073 A
HETATM   16  C7  UNL     1      12.968  46.570  38.789  1.00  0.00     0.146 A
ENDROOT
BRANCH  16  17
HETATM   17  N5  UNL     1      13.128  47.448  39.907  1.00  0.00    -0.112 N
HETATM   18  O3  UNL     1      12.586  48.580  39.928  1.00  0.00    -0.532 OA
HETATM   19  O4  UNL     1      13.875  47.111  41.009  1.00  0.00    -0.532 OA
ENDBRANCH  16  17
TORSDOF 1
ENDMDL