MODEL 3
REMARK VINA RESULT: -5.000686874      1.525      1.575
REMARK  4 active torsions:
REMARK  status: ('A' for Active; 'I' for Inactive)
REMARK    1  A    between atoms: C2_2  and  C4_4
REMARK    2  A    between atoms: N2_9  and  N3_10
REMARK    3  A    between atoms: C6_13  and  N4_14
REMARK    4  A    between atoms: C7_17  and  C8_18
ROOT
HETATM    1  C8  UNL     1      12.760  46.732  39.476  1.00  0.00     0.267 C
HETATM    2  O2  UNL     1      12.307  47.837  39.691  1.00  0.00    -0.275 OA
HETATM    3  C9  UNL     1      13.284  45.928  40.561  1.00  0.00     0.144 C
HETATM    4  N5  UNL     1      13.685  45.262  41.415  1.00  0.00    -0.188 NA
ENDROOT
BRANCH   1   5
HETATM    5  C7  UNL     1      12.812  46.111  38.188  1.00  0.00     0.097 A
HETATM    6  C4  UNL     1      13.882  46.270  37.362  1.00  0.00     0.056 A
HETATM    7  N1  UNL     1      13.778  45.656  36.125  1.00  0.00    -0.306 N
HETATM    8  C5  UNL     1      12.700  44.956  35.759  1.00  0.00     0.347 A
ATOM      9  H1  UNL     1      14.554  45.740  35.469  1.00  0.00     0.171 HD
HETATM   10  O1  UNL     1      12.623  44.383  34.633  1.00  0.00    -0.245 OA
HETATM   11  N2  UNL     1      11.639  44.818  36.606  1.00  0.00    -0.195 N
HETATM   12  C6  UNL     1      11.668  45.378  37.819  1.00  0.00     0.142 A
BRANCH   6  13
HETATM   13  C2  UNL     1      15.121  46.965  37.706  1.00  0.00    -0.060 C
HETATM   14  C1  UNL     1      16.013  45.967  38.485  1.00  0.00     0.045 C
HETATM   15  C3  UNL     1      15.768  47.951  36.902  1.00  0.00     0.045 C
ENDBRANCH   6  13
BRANCH  11  16
HETATM   16  N3  UNL     1      10.464  44.146  36.229  1.00  0.00    -0.333 N
ATOM     17  H32 UNL     1       9.627  44.709  36.078  1.00  0.00     0.177 HD
ATOM     18  H31 UNL     1      10.443  43.139  36.065  1.00  0.00     0.177 HD
ENDBRANCH  11  16
BRANCH  12  19
HETATM   19  N4  UNL     1      10.664  45.350  38.661  1.00  0.00    -0.383 N
ATOM     20  H42 UNL     1       9.737  45.146  38.288  1.00  0.00     0.157 HD
ATOM     21  H41 UNL     1      10.765  45.463  39.671  1.00  0.00     0.157 HD
ENDBRANCH  12  19
ENDBRANCH   1   5
TORSDOF 4
ENDMDL