MODEL 1
REMARK VINA RESULT: -6.370388383      0.000      0.000
REMARK  3 active torsions:
REMARK  status: ('A' for Active; 'I' for Inactive)
REMARK    1  A    between atoms: C2_3  and  N3_6
REMARK    2  A    between atoms: N3_6  and  C4_7
REMARK    3  A    between atoms: C5_10  and  N5_11
ROOT
HETATM    1  N1  UNL     1      12.865  42.628  33.563  1.00  0.00    -0.193 NA
HETATM    2  C1  UNL     1      12.209  43.301  34.230  1.00  0.00     0.114 C
HETATM    3  C2  UNL     1      11.379  44.184  35.074  1.00  0.00     0.376 C
HETATM    4  C3  UNL     1      10.539  43.284  35.946  1.00  0.00     0.114 C
HETATM    5  N2  UNL     1       9.912  42.590  36.623  1.00  0.00    -0.193 NA
ENDROOT
BRANCH   3   6
HETATM    6  N3  UNL     1      12.052  45.077  35.798  1.00  0.00    -0.395 NA
BRANCH   6   7
HETATM    7  C4  UNL     1      12.839  45.570  36.588  1.00  0.00     0.205 A
HETATM    8  N4  UNL     1      14.092  45.971  36.141  1.00  0.00    -0.164 N
HETATM    9  C5  UNL     1      14.996  46.515  36.952  1.00  0.00     0.679 A
ATOM     10  H4  UNL     1      14.326  45.846  35.156  1.00  0.00     0.187 HD
HETATM   11  N6  UNL     1      14.745  46.705  38.259  1.00  0.00    -0.176 N
HETATM   12  C6  UNL     1      13.565  46.350  38.788  1.00  0.00     0.138 A
ATOM     13  H6  UNL     1      15.459  47.124  38.855  1.00  0.00     0.186 HD
HETATM   14  N7  UNL     1      13.338  46.551  40.100  1.00  0.00    -0.337 N
HETATM   15  C9  UNL     1      12.628  45.786  37.943  1.00  0.00     0.082 A
HETATM   16  C7  UNL     1      12.134  46.178  40.590  1.00  0.00     0.181 A
ATOM     17  H7  UNL     1      14.047  46.969  40.702  1.00  0.00     0.168 HD
HETATM   18  N8  UNL     1      11.203  45.634  39.826  1.00  0.00    -0.361 N
HETATM   19  C8  UNL     1      11.420  45.425  38.496  1.00  0.00     0.109 A
ATOM     20  H8  UNL     1      10.308  45.368  40.237  1.00  0.00     0.166 HD
BRANCH   9  21
HETATM   21  N5  UNL     1      16.155  46.876  36.489  1.00  0.00    -0.234 N
ATOM     22  H52 UNL     1      16.243  47.051  35.488  1.00  0.00     0.174 HD
ATOM     23  H51 UNL     1      16.950  46.980  37.120  1.00  0.00     0.174 HD
ENDBRANCH   9  21
ENDBRANCH   6   7
ENDBRANCH   3   6
TORSDOF 3
ENDMDL