MODEL 3
REMARK VINA RESULT: -6.359984957      1.499      1.778
REMARK  2 active torsions:
REMARK  status: ('A' for Active; 'I' for Inactive)
REMARK    1  A    between atoms: C3_6  and  C4_7
REMARK    2  A    between atoms: C8_18  and  N6_19
ROOT
HETATM    1  N1  UNL     1      14.918  46.450  38.486  1.00  0.00    -0.188 NA
HETATM    2  C1  UNL     1      14.023  46.233  37.783  1.00  0.00     0.137 C
HETATM    3  C2  UNL     1      12.918  45.970  36.887  1.00  0.00     0.204 A
HETATM    4  N2  UNL     1      13.056  45.073  35.872  1.00  0.00    -0.317 N
ATOM      5  H2  UNL     1      13.946  44.590  35.750  1.00  0.00     0.169 HD
HETATM    6  C3  UNL     1      12.045  44.811  35.026  1.00  0.00     0.151 A
HETATM    7  N5  UNL     1      10.889  45.481  35.233  1.00  0.00    -0.174 N
ATOM      8  H5  UNL     1      10.100  45.307  34.610  1.00  0.00     0.186 HD
HETATM    9  C8  UNL     1      10.745  46.368  36.233  1.00  0.00     0.679 A
HETATM   10  N7  UNL     1      11.756  46.628  37.076  1.00  0.00    -0.167 N
ATOM     11  H7  UNL     1      11.649  47.301  37.836  1.00  0.00     0.186 HD
ENDROOT
BRANCH   6  12
HETATM   12  C4  UNL     1      12.170  43.853  33.930  1.00  0.00     0.095 A
HETATM   13  C5  UNL     1      11.413  43.963  32.802  1.00  0.00     0.121 A
HETATM   14  N3  UNL     1      11.526  43.084  31.790  1.00  0.00    -0.368 N
HETATM   15  C6  UNL     1      12.408  42.070  31.895  1.00  0.00     0.162 A
ATOM     16  H3  UNL     1      10.950  43.185  30.954  1.00  0.00     0.164 HD
HETATM   17  C7  UNL     1      13.188  41.930  33.023  1.00  0.00     0.261 A
HETATM   18  O1  UNL     1      14.013  40.971  33.103  1.00  0.00    -0.267 OA
HETATM   19  N4  UNL     1      13.041  42.831  34.004  1.00  0.00    -0.318 N
ATOM     20  H4  UNL     1      13.614  42.737  34.843  1.00  0.00     0.169 HD
ENDBRANCH   6  12
BRANCH   9  21
HETATM   21  N6  UNL     1       9.636  46.997  36.415  1.00  0.00    -0.234 N
ATOM     22  H62 UNL     1       8.851  46.761  35.807  1.00  0.00     0.174 HD
ATOM     23  H61 UNL     1       9.543  47.707  37.142  1.00  0.00     0.174 HD
ENDBRANCH   9  21
TORSDOF 2
ENDMDL