MODEL 2
REMARK VINA RESULT: -5.771568989      2.731      5.695
REMARK  4 active torsions:
REMARK  status: ('A' for Active; 'I' for Inactive)
REMARK       I    between atoms: N1_2  and  C2_4
REMARK       I    between atoms: C2_4  and  N2_6
REMARK    1  A    between atoms: N2_6  and  N3_8
REMARK    2  A    between atoms: N3_8  and  C3_10
REMARK    3  A    between atoms: C3_10  and  O2_12
REMARK    4  A    between atoms: O2_12  and  N4_13
ROOT
HETATM    1  N4  UNL     1      13.796  45.880  36.205  1.00  0.00    -0.238 N
ATOM      2  H4  UNL     1      14.087  45.829  35.229  1.00  0.00     0.196 HD
HETATM    3  C4  UNL     1      14.482  46.545  37.071  1.00  0.00     0.215 C
HETATM    4  C5  UNL     1      15.687  47.240  36.684  1.00  0.00     0.131 C
HETATM    5  N5  UNL     1      16.661  47.784  36.365  1.00  0.00    -0.189 NA
HETATM    6  C6  UNL     1      14.090  46.628  38.448  1.00  0.00     0.131 C
HETATM    7  N6  UNL     1      13.779  46.714  39.574  1.00  0.00    -0.189 NA
ENDROOT
BRANCH   1   8
HETATM    8  O2  UNL     1      12.664  45.244  36.640  1.00  0.00    -0.204 OA
BRANCH   8   9
HETATM    9  C3  UNL     1      11.408  45.569  36.180  1.00  0.00     0.254 C
HETATM   10  S1  UNL     1      10.706  46.938  36.668  1.00  0.00    -0.029 SA
BRANCH   9  11
HETATM   11  N3  UNL     1      10.750  44.702  35.290  1.00  0.00    -0.265 N
ATOM     12  H3  UNL     1       9.870  44.972  34.848  1.00  0.00     0.190 HD
BRANCH  11  13
HETATM   13  N2  UNL     1      11.341  43.449  35.025  1.00  0.00    -0.249 N
HETATM   14  C2  UNL     1      11.810  43.120  33.732  1.00  0.00     0.334 C
HETATM   15  N1  UNL     1      12.407  41.851  33.471  1.00  0.00    -0.346 N
HETATM   16  O1  UNL     1      11.682  43.987  32.825  1.00  0.00    -0.246 OA
HETATM   17  C1  UNL     1      12.888  41.508  32.158  1.00  0.00     0.151 C
ATOM     18  H1  UNL     1      12.493  41.173  34.229  1.00  0.00     0.163 HD
ATOM     19  H2  UNL     1      11.432  42.768  35.780  1.00  0.00     0.192 HD
ENDBRANCH  11  13
ENDBRANCH   9  11
ENDBRANCH   8   9
ENDBRANCH   1   8
TORSDOF 4
ENDMDL