MODEL 4
REMARK VINA RESULT: -4.689676420      3.123      6.902
REMARK  9 active torsions:
REMARK  status: ('A' for Active; 'I' for Inactive)
REMARK    1  A    between atoms: C2_2  and  C4_4
REMARK    2  A    between atoms: C4_4  and  C5_5
REMARK    3  A    between atoms: C7_10  and  C8_11
REMARK    4  A    between atoms: C14_19  and  C15_20
REMARK    5  A    between atoms: C15_20  and  C16_21
REMARK    6  A    between atoms: C16_21  and  C17_22
REMARK    7  A    between atoms: C17_22  and  N3_23
REMARK    8  A    between atoms: N5_31  and  C19_32
REMARK    9  A    between atoms: C19_32  and  C23_36
ROOT
HETATM    1  C5  UNL     1      13.610  13.597  -1.048  1.00  0.00     0.200 C
HETATM    2  C6  UNL     1      14.622  14.622  -1.511  1.00  0.00     0.243 C
HETATM    3  O1  UNL     1      14.297  15.864  -1.316  1.00  0.00    -0.271 OA
HETATM    4  N1  UNL     1      15.852  14.428  -2.114  1.00  0.00    -0.345 N
ATOM      5  H1  UNL     1      16.641  14.606  -1.492  1.00  0.00     0.163 HD
HETATM    6  C7  UNL     1      16.242  14.032  -3.421  1.00  0.00     0.184 C
HETATM    7  C12 UNL     1      17.299  12.995  -3.350  1.00  0.00     0.243 C
HETATM    8  O2  UNL     1      18.450  13.222  -3.888  1.00  0.00    -0.271 OA
HETATM    9  N2  UNL     1      17.209  11.733  -2.744  1.00  0.00    -0.341 N
HETATM   10  C13 UNL     1      17.744  10.561  -3.444  1.00  0.00     0.153 C
HETATM   11  C14 UNL     1      16.628  11.453  -1.439  1.00  0.00     0.180 C
HETATM   12  C18 UNL     1      15.304  10.796  -1.514  1.00  0.00     0.259 C
HETATM   13  O3  UNL     1      15.398   9.502  -1.559  1.00  0.00    -0.269 OA
HETATM   14  N4  UNL     1      14.027  11.306  -1.543  1.00  0.00    -0.265 N
ATOM     15  H4  UNL     1      13.326  10.662  -1.177  1.00  0.00     0.190 HD
HETATM   16  N5  UNL     1      13.494  12.516  -1.967  1.00  0.00    -0.276 N
ENDROOT
BRANCH  11  17
HETATM   17  C15 UNL     1      17.673  10.576  -0.728  1.00  0.00     0.036 C
BRANCH  17  18
HETATM   18  C16 UNL     1      18.670  11.421   0.027  1.00  0.00     0.030 C
BRANCH  18  19
HETATM   19  C17 UNL     1      20.049  11.191  -0.571  1.00  0.00     0.230 C
BRANCH  19  20
HETATM   20  N3  UNL     1      20.345  12.326  -1.421  1.00  0.00    -0.079 N
ATOM     21  H33 UNL     1      19.597  12.534  -2.083  1.00  0.00     0.274 HD
ATOM     22  H32 UNL     1      20.329  13.214  -0.921  1.00  0.00     0.274 HD
ATOM     23  H31 UNL     1      21.240  12.140  -1.876  1.00  0.00     0.274 HD
ENDBRANCH  19  20
ENDBRANCH  18  19
ENDBRANCH  17  18
ENDBRANCH  11  17
BRANCH   6  24
HETATM   24  C8  UNL     1      16.859  15.265  -4.108  1.00  0.00    -0.022 C
HETATM   25  C9  UNL     1      15.725  16.179  -4.517  1.00  0.00     0.017 C
HETATM   26  C10 UNL     1      17.788  15.990  -3.188  1.00  0.00     0.017 C
HETATM   27  C11 UNL     1      17.573  14.855  -5.380  1.00  0.00     0.017 C
ENDBRANCH   6  24
BRANCH  16  28
HETATM   28  C19 UNL     1      12.286  12.378  -2.722  1.00  0.00     0.055 C
HETATM   29  C20 UNL     1      11.199  11.528  -2.308  1.00  0.00    -0.059 C
HETATM   30  C21 UNL     1      10.462  11.822  -1.044  1.00  0.00     0.045 C
HETATM   31  C22 UNL     1      10.190  11.040  -3.298  1.00  0.00     0.045 C
BRANCH  28  32
HETATM   32  C23 UNL     1      12.600  12.488  -4.189  1.00  0.00    -0.059 C
HETATM   33  C24 UNL     1      12.226  13.712  -4.905  1.00  0.00     0.045 C
HETATM   34  C25 UNL     1      13.899  11.836  -4.610  1.00  0.00     0.045 C
ENDBRANCH  28  32
ENDBRANCH  16  28
BRANCH   1  35
HETATM   35  C4  UNL     1      13.755  13.225   0.371  1.00  0.00     0.041 C
BRANCH  35  36
HETATM   36  C2  UNL     1      14.945  13.642   1.140  1.00  0.00    -0.020 C
HETATM   37  C1  UNL     1      15.731  12.608   1.857  1.00  0.00     0.009 C
HETATM   38  C3  UNL     1      14.750  14.873   1.985  1.00  0.00     0.009 C
ENDBRANCH  35  36
ENDBRANCH   1  35
TORSDOF 9
ENDMDL