MODEL 3
REMARK VINA RESULT: -6.726070696      0.819      1.159
REMARK  9 active torsions:
REMARK  status: ('A' for Active; 'I' for Inactive)
REMARK    1  A    between atoms: C2_2  and  C4_4
REMARK    2  A    between atoms: C2_2  and  C25_33
REMARK    3  A    between atoms: C4_4  and  C5_5
REMARK    4  A    between atoms: C5_5  and  C6_6
REMARK    5  A    between atoms: C6_6  and  N1_7
REMARK    6  A    between atoms: C6_6  and  C18_22
REMARK       I    between atoms: N1_7  and  C7_9
REMARK    7  A    between atoms: C7_9  and  O2_11
REMARK    8  A    between atoms: O2_11  and  C8_12
REMARK       I    between atoms: C18_22  and  N2_24
REMARK    9  A    between atoms: C21_27  and  C22_28
ROOT
HETATM    1  C6  UNL     1      15.602  14.437   0.136  1.00  0.00     0.082 C
ENDROOT
BRANCH   1   2
HETATM    2  C5  UNL     1      16.589  13.574   0.887  1.00  0.00     0.064 C
BRANCH   2   3
HETATM    3  C4  UNL     1      16.034  13.283   2.273  1.00  0.00     0.026 C
BRANCH   3   4
HETATM    4  C2  UNL     1      16.751  12.331   3.130  1.00  0.00     0.041 C
HETATM    5  C1  UNL     1      16.819  10.940   2.611  1.00  0.00     0.026 C
HETATM    6  C3  UNL     1      16.202  12.261   4.571  1.00  0.00     0.026 C
BRANCH   4   7
HETATM    7  C25 UNL     1      18.179  12.784   3.308  1.00  0.00     0.181 C
HETATM    8  O5  UNL     1      18.455  13.778   4.009  1.00  0.00    -0.647 OA
HETATM    9  O6  UNL     1      19.235  12.114   2.719  1.00  0.00    -0.647 OA
ENDBRANCH   4   7
ENDBRANCH   3   4
ENDBRANCH   2   3
ENDBRANCH   1   2
BRANCH   1  10
HETATM   10  N1  UNL     1      14.827  15.264   0.960  1.00  0.00    -0.301 N
HETATM   11  C7  UNL     1      15.153  16.623   1.132  1.00  0.00     0.365 C
HETATM   12  O1  UNL     1      16.080  17.165   0.582  1.00  0.00    -0.238 OA
ATOM     13  H1  UNL     1      14.016  14.875   1.442  1.00  0.00     0.171 HD
BRANCH  11  14
HETATM   14  O2  UNL     1      14.376  17.398   2.006  1.00  0.00    -0.298 OA
BRANCH  14  15
HETATM   15  C8  UNL     1      14.047  16.889   3.249  1.00  0.00     0.142 C
HETATM   16  C9  UNL     1      12.975  17.832   3.889  1.00  0.00     0.016 C
HETATM   17  C10 UNL     1      12.535  17.125   5.168  1.00  0.00     0.012 C
HETATM   18  C14 UNL     1      13.509  19.159   4.217  1.00  0.00     0.012 C
HETATM   19  C11 UNL     1      13.717  16.939   6.083  1.00  0.00    -0.013 C
HETATM   20  C12 UNL     1      14.312  18.271   6.406  1.00  0.00     0.009 C
HETATM   21  C17 UNL     1      14.807  16.116   5.417  1.00  0.00     0.012 C
HETATM   22  C13 UNL     1      14.687  19.024   5.161  1.00  0.00    -0.013 C
HETATM   23  C15 UNL     1      15.740  18.208   4.439  1.00  0.00     0.012 C
HETATM   24  C16 UNL     1      15.207  16.825   4.157  1.00  0.00     0.016 C
ENDBRANCH  14  15
ENDBRANCH  11  14
ENDBRANCH   1  10
BRANCH   1  25
HETATM   25  C18 UNL     1      14.952  13.803  -1.032  1.00  0.00     0.266 C
HETATM   26  O3  UNL     1      15.202  14.287  -2.202  1.00  0.00    -0.266 OA
HETATM   27  N2  UNL     1      14.067  12.696  -0.957  1.00  0.00    -0.347 N
HETATM   28  C19 UNL     1      13.911  11.852  -2.136  1.00  0.00     0.127 C
HETATM   29  C24 UNL     1      13.142  12.399   0.105  1.00  0.00     0.127 C
HETATM   30  C20 UNL     1      12.557  12.164  -2.716  1.00  0.00     0.034 C
HETATM   31  C21 UNL     1      11.471  12.040  -1.667  1.00  0.00     0.078 C
HETATM   32  C23 UNL     1      12.038  11.475  -0.413  1.00  0.00     0.034 C
BRANCH  31  33
HETATM   33  C22 UNL     1      10.344  11.213  -2.198  1.00  0.00     0.235 C
HETATM   34  N3  UNL     1       9.626  10.331  -1.384  1.00  0.00    -0.062 NA
HETATM   35  O4  UNL     1      10.045  11.319  -3.413  1.00  0.00    -0.277 OA
ENDBRANCH  31  33
ENDBRANCH   1  25
TORSDOF 9
ENDMDL