MODEL 1
REMARK VINA RESULT: -6.711764532      0.000      0.000
REMARK  12 active torsions:
REMARK  status: ('A' for Active; 'I' for Inactive)
REMARK    1  A    between atoms: C2_2  and  C4_4
REMARK    2  A    between atoms: C4_4  and  N1_5
REMARK    3  A    between atoms: C4_4  and  C10_14
REMARK       I    between atoms: N1_5  and  C5_7
REMARK    4  A    between atoms: C5_7  and  O2_9
REMARK    5  A    between atoms: O2_9  and  C6_10
REMARK       I    between atoms: C10_14  and  N2_16
REMARK    6  A    between atoms: N2_16  and  C11_18
REMARK    7  A    between atoms: C11_18  and  C12_19
REMARK    8  A    between atoms: C11_18  and  C22_35
REMARK    9  A    between atoms: C12_19  and  O4_20
REMARK   10  A    between atoms: C12_19  and  N3_22
REMARK   11  A    between atoms: C15_25  and  C16_26
REMARK       I    between atoms: C16_26  and  N4_28
REMARK   12  A    between atoms: N4_28  and  C17_30
ROOT
HETATM    1  C11 UNL     1      16.333  14.583   3.361  1.00  0.00     0.162 C
ENDROOT
BRANCH   1   2
HETATM    2  N2  UNL     1      15.959  15.415   4.496  1.00  0.00    -0.347 N
HETATM    3  C10 UNL     1      16.677  16.199   5.372  1.00  0.00     0.241 C
HETATM    4  O3  UNL     1      17.909  16.331   5.358  1.00  0.00    -0.271 OA
ATOM      5  H2  UNL     1      14.956  15.418   4.682  1.00  0.00     0.163 HD
BRANCH   3   6
HETATM    6  C4  UNL     1      15.953  16.967   6.449  1.00  0.00     0.182 C
BRANCH   6   7
HETATM    7  C2  UNL     1      16.436  16.699   7.821  1.00  0.00     0.009 C
HETATM    8  C1  UNL     1      17.173  17.875   8.424  1.00  0.00     0.012 C
HETATM    9  C3  UNL     1      15.382  16.279   8.783  1.00  0.00     0.012 C
ENDBRANCH   6   7
BRANCH   6  10
HETATM   10  N1  UNL     1      14.530  16.563   6.363  1.00  0.00    -0.323 N
HETATM   11  C5  UNL     1      13.537  17.443   5.913  1.00  0.00     0.362 C
HETATM   12  O1  UNL     1      13.868  18.602   5.554  1.00  0.00    -0.238 OA
ATOM     13  H1  UNL     1      14.266  15.617   6.639  1.00  0.00     0.165 HD
BRANCH  11  14
HETATM   14  O2  UNL     1      12.204  17.103   5.842  1.00  0.00    -0.294 OA
BRANCH  14  15
HETATM   15  C6  UNL     1      11.349  17.017   6.942  1.00  0.00     0.061 C
HETATM   16  C7  UNL     1       9.916  16.911   6.412  1.00  0.00     0.046 C
HETATM   17  C8  UNL     1      11.360  18.310   7.761  1.00  0.00     0.046 C
HETATM   18  C9  UNL     1      11.643  15.831   7.787  1.00  0.00     0.046 C
ENDBRANCH  14  15
ENDBRANCH  11  14
ENDBRANCH   6  10
ENDBRANCH   3   6
ENDBRANCH   1   2
BRANCH   1  19
HETATM   19  C12 UNL     1      16.487  13.201   3.750  1.00  0.00     0.138 C
BRANCH  19  20
HETATM   20  O4  UNL     1      16.281  12.948   5.011  1.00  0.00    -0.348 OA
ATOM     21  H4  UNL     1      16.360  13.694   5.594  1.00  0.00     0.219 HD
ENDBRANCH  19  20
BRANCH  19  22
HETATM   22  N3  UNL     1      16.824  12.055   3.010  1.00  0.00    -0.350 N
HETATM   23  C13 UNL     1      17.180  10.686   3.428  1.00  0.00     0.128 C
HETATM   24  C14 UNL     1      17.953  10.530   2.158  1.00  0.00     0.055 C
HETATM   25  C15 UNL     1      17.006  11.648   1.663  1.00  0.00     0.179 C
BRANCH  25  26
HETATM   26  C16 UNL     1      15.875  10.963   0.977  1.00  0.00     0.241 C
HETATM   27  O5  UNL     1      15.628   9.763   1.059  1.00  0.00    -0.271 OA
HETATM   28  N4  UNL     1      15.028  11.773   0.175  1.00  0.00    -0.355 N
ATOM     29  H4  UNL     1      15.244  12.768   0.117  1.00  0.00     0.162 HD
BRANCH  28  30
HETATM   30  C17 UNL     1      13.882  11.292  -0.568  1.00  0.00     0.084 C
HETATM   31  C18 UNL     1      12.665  12.018   0.016  1.00  0.00     0.025 C
HETATM   32  C19 UNL     1      12.131  12.872  -1.086  1.00  0.00     0.002 C
HETATM   33  C20 UNL     1      12.612  12.254  -2.356  1.00  0.00     0.002 C
HETATM   34  C21 UNL     1      13.939  11.647  -2.015  1.00  0.00     0.025 C
ENDBRANCH  28  30
ENDBRANCH  25  26
ENDBRANCH  19  22
ENDBRANCH   1  19
BRANCH   1  35
HETATM   35  C22 UNL     1      15.459  14.986   2.239  1.00  0.00     0.008 C
HETATM   36  C23 UNL     1      16.104  15.090   0.883  1.00  0.00     0.012 C
HETATM   37  C24 UNL     1      14.346  15.933   2.510  1.00  0.00     0.012 C
ENDBRANCH   1  35
TORSDOF 12
ENDMDL