MODEL 4
REMARK VINA RESULT: -5.810137549      7.232     11.157
REMARK  9 active torsions:
REMARK  status: ('A' for Active; 'I' for Inactive)
REMARK    1  A    between atoms: C2_2  and  N1_3
REMARK    2  A    between atoms: N1_3  and  S1_5
REMARK    3  A    between atoms: S1_5  and  N2_8
REMARK       I    between atoms: N2_8  and  C3_10
REMARK    4  A    between atoms: C3_10  and  C4_12
REMARK    5  A    between atoms: C4_12  and  C5_13
REMARK    6  A    between atoms: C4_12  and  N3_20
REMARK    7  A    between atoms: C5_13  and  C6_14
REMARK    8  A    between atoms: C16_25  and  C17_26
REMARK       I    between atoms: C17_26  and  N4_28
REMARK    9  A    between atoms: N4_28  and  C18_30
ROOT
HETATM    1  C4  UNL     1      16.294  13.385   2.071  1.00  0.00     0.173 C
ENDROOT
BRANCH   1   2
HETATM    2  C3  UNL     1      15.748  14.743   2.231  1.00  0.00     0.254 C
HETATM    3  N2  UNL     1      16.562  15.880   2.455  1.00  0.00    -0.236 N
ATOM      4  H2  UNL     1      17.575  15.771   2.512  1.00  0.00     0.183 HD
HETATM    5  O3  UNL     1      14.513  14.938   2.167  1.00  0.00    -0.270 OA
BRANCH   3   6
HETATM    6  S1  UNL     1      15.861  17.452   2.633  1.00  0.00     0.321 S
HETATM    7  O1  UNL     1      16.958  18.479   2.447  1.00  0.00    -0.182 OA
HETATM    8  O2  UNL     1      15.282  17.657   3.993  1.00  0.00    -0.182 OA
BRANCH   6   9
HETATM    9  N1  UNL     1      14.646  17.744   1.464  1.00  0.00    -0.303 N
ATOM     10  H1  UNL     1      13.659  17.876   1.686  1.00  0.00     0.173 HD
BRANCH   9  11
HETATM   11  C2  UNL     1      15.187  17.780   0.118  1.00  0.00     0.129 C
HETATM   12  C1  UNL     1      14.453  16.842  -0.801  1.00  0.00     0.027 C
ENDBRANCH   9  11
ENDBRANCH   6   9
ENDBRANCH   3   6
ENDBRANCH   1   2
BRANCH   1  13
HETATM   13  C5  UNL     1      16.052  12.471   3.208  1.00  0.00     0.039 C
BRANCH  13  14
HETATM   14  C6  UNL     1      17.296  12.038   3.985  1.00  0.00    -0.012 C
HETATM   15  C7  UNL     1      18.522  12.735   3.552  1.00  0.00     0.005 C
HETATM   16  C8  UNL     1      19.804  11.991   3.812  1.00  0.00     0.000 C
HETATM   17  C9  UNL     1      19.690  10.610   3.235  1.00  0.00     0.000 C
HETATM   18  C10 UNL     1      18.634   9.905   4.091  1.00  0.00     0.000 C
HETATM   19  C11 UNL     1      17.333  10.535   3.794  1.00  0.00     0.005 C
ENDBRANCH  13  14
ENDBRANCH   1  13
BRANCH   1  20
HETATM   20  N3  UNL     1      15.984  12.878   0.779  1.00  0.00    -0.387 N
HETATM   21  C12 UNL     1      16.699  13.512  -0.292  1.00  0.00     0.118 C
HETATM   22  C13 UNL     1      18.120  12.984  -0.258  1.00  0.00     0.020 C
HETATM   23  C14 UNL     1      18.107  11.581   0.233  1.00  0.00     0.004 C
HETATM   24  C15 UNL     1      16.848  10.809  -0.038  1.00  0.00     0.035 C
HETATM   25  C16 UNL     1      15.659  11.539   0.590  1.00  0.00     0.172 C
BRANCH  25  26
HETATM   26  C17 UNL     1      14.519  11.240  -0.322  1.00  0.00     0.240 C
HETATM   27  O4  UNL     1      14.709  10.332  -1.222  1.00  0.00    -0.271 OA
HETATM   28  N4  UNL     1      13.268  11.836  -0.307  1.00  0.00    -0.355 N
ATOM     29  H4  UNL     1      13.086  12.556   0.391  1.00  0.00     0.162 HD
BRANCH  28  30
HETATM   30  C18 UNL     1      12.199  11.490  -1.233  1.00  0.00     0.088 C
HETATM   31  C19 UNL     1      10.837  11.638  -0.564  1.00  0.00     0.051 C
HETATM   32  C20 UNL     1       9.832  11.024  -1.540  1.00  0.00     0.169 C
HETATM   33  O5  UNL     1      10.380  10.834  -2.801  1.00  0.00    -0.391 OA
HETATM   34  C21 UNL     1      11.009  11.949  -3.303  1.00  0.00     0.169 C
HETATM   35  C22 UNL     1      12.180  12.404  -2.435  1.00  0.00     0.051 C
ENDBRANCH  28  30
ENDBRANCH  25  26
ENDBRANCH   1  20
TORSDOF 9
ENDMDL