MODEL 4
REMARK VINA RESULT: -4.798561694      1.939      2.609
REMARK  8 active torsions:
REMARK  status: ('A' for Active; 'I' for Inactive)
REMARK    1  A    between atoms: C2_2  and  S1_3
REMARK    2  A    between atoms: S1_3  and  C3_4
REMARK    3  A    between atoms: C3_4  and  C4_5
REMARK    4  A    between atoms: C7_11  and  C8_12
REMARK    5  A    between atoms: C12_18  and  C13_19
REMARK    6  A    between atoms: C13_19  and  C14_20
REMARK    7  A    between atoms: C18_27  and  C19_28
REMARK    8  A    between atoms: C19_28  and  C20_29
ROOT
HETATM    1  C4  UNL     1      13.360  17.952   8.305  1.00  0.00     0.185 C
HETATM    2  N1  UNL     1      13.685  17.754   9.677  1.00  0.00    -0.347 N
ATOM      3  H1  UNL     1      13.367  16.918  10.165  1.00  0.00     0.163 HD
HETATM    4  C5  UNL     1      14.457  18.732  10.361  1.00  0.00     0.220 C
HETATM    5  O1  UNL     1      15.320  18.448  11.225  1.00  0.00    -0.274 OA
HETATM    6  C6  UNL     1      14.227  20.172  10.032  1.00  0.00     0.128 C
HETATM    7  C7  UNL     1      12.804  20.578  10.451  1.00  0.00     0.095 C
HETATM    8  N2  UNL     1      12.345  21.627   9.568  1.00  0.00    -0.350 N
HETATM    9  C10 UNL     1      13.177  22.853   9.670  1.00  0.00     0.153 C
HETATM   10  C11 UNL     1      11.281  21.633   8.675  1.00  0.00     0.242 C
HETATM   11  O2  UNL     1      11.581  22.031   7.481  1.00  0.00    -0.271 OA
HETATM   12  C12 UNL     1       9.869  21.280   8.808  1.00  0.00     0.177 C
HETATM   13  N3  UNL     1       9.340  20.779   7.545  1.00  0.00    -0.346 N
ATOM     14  H3  UNL     1       8.756  21.432   7.024  1.00  0.00     0.163 HD
HETATM   15  C17 UNL     1       9.523  19.537   6.954  1.00  0.00     0.241 C
HETATM   16  O3  UNL     1       8.459  18.940   6.530  1.00  0.00    -0.271 OA
HETATM   17  C18 UNL     1      10.733  18.743   6.707  1.00  0.00     0.177 C
HETATM   18  N4  UNL     1      10.905  17.629   7.626  1.00  0.00    -0.346 N
ATOM     19  H4  UNL     1      10.069  17.204   8.028  1.00  0.00     0.163 HD
HETATM   20  C23 UNL     1      12.168  17.099   7.995  1.00  0.00     0.241 C
HETATM   21  O4  UNL     1      12.320  15.865   8.074  1.00  0.00    -0.271 OA
ENDROOT
BRANCH   1  22
HETATM   22  C3  UNL     1      14.484  17.734   7.377  1.00  0.00     0.108 C
BRANCH  22  23
HETATM   23  S1  UNL     1      15.701  16.521   7.649  1.00  0.00    -0.167 SA
BRANCH  23  24
HETATM   24  C2  UNL     1      16.576  15.743   6.339  1.00  0.00     0.069 C
HETATM   25  C1  UNL     1      15.755  15.419   5.126  1.00  0.00     0.016 C
ENDBRANCH  23  24
ENDBRANCH  22  23
ENDBRANCH   1  22
BRANCH  17  26
HETATM   26  C19 UNL     1      10.676  18.068   5.318  1.00  0.00     0.038 C
BRANCH  26  27
HETATM   27  C20 UNL     1      11.812  18.564   4.452  1.00  0.00    -0.020 C
HETATM   28  C21 UNL     1      12.722  17.380   4.203  1.00  0.00     0.009 C
HETATM   29  C22 UNL     1      12.551  19.721   5.033  1.00  0.00     0.009 C
ENDBRANCH  26  27
ENDBRANCH  17  26
BRANCH   7  30
HETATM   30  C8  UNL     1      12.806  21.170  11.840  1.00  0.00     0.021 C
HETATM   31  C9  UNL     1      12.291  20.283  12.909  1.00  0.00     0.007 C
ENDBRANCH   7  30
BRANCH  12  32
HETATM   32  C13 UNL     1       9.497  20.444   9.978  1.00  0.00     0.038 C
BRANCH  32  33
HETATM   33  C14 UNL     1       9.033  21.216  11.173  1.00  0.00    -0.020 C
HETATM   34  C15 UNL     1       7.869  22.140  10.772  1.00  0.00     0.009 C
HETATM   35  C16 UNL     1       8.575  20.406  12.324  1.00  0.00     0.009 C
ENDBRANCH  32  33
ENDBRANCH  12  32
TORSDOF 8
ENDMDL