MODEL 1
REMARK VINA RESULT: -6.090175855      0.000      0.000
REMARK  10 active torsions:
REMARK  status: ('A' for Active; 'I' for Inactive)
REMARK    1  A    between atoms: C2_2  and  N1_4
REMARK       I    between atoms: N1_4  and  C4_6
REMARK    2  A    between atoms: C4_6  and  C5_8
REMARK    3  A    between atoms: C9_12  and  C10_13
REMARK    4  A    between atoms: C10_13  and  O2_14
REMARK    5  A    between atoms: N2_16  and  C11_18
REMARK    6  A    between atoms: C11_18  and  C12_19
REMARK    7  A    between atoms: C11_18  and  C16_29
REMARK       I    between atoms: C12_19  and  N3_21
REMARK    8  A    between atoms: N3_21  and  S1_23
REMARK    9  A    between atoms: S1_23  and  C13_26
REMARK   10  A    between atoms: C20_33  and  C21_34
ROOT
HETATM    1  C10 UNL     1      15.621  15.995   3.153  1.00  0.00     0.125 C
HETATM    2  N2  UNL     1      15.859  16.377   4.400  1.00  0.00    -0.338 N
ATOM      3  H2  UNL     1      16.463  15.776   4.962  1.00  0.00     0.167 HD
ENDROOT
BRANCH   1   4
HETATM    4  C9  UNL     1      15.940  14.889   2.254  1.00  0.00     0.037 A
HETATM    5  C7  UNL     1      16.399  13.608   2.822  1.00  0.00     0.008 A
HETATM    6  C6  UNL     1      15.755  12.480   2.090  1.00  0.00     0.046 C
HETATM    7  C8  UNL     1      17.378  14.484   2.129  1.00  0.00     0.025 A
HETATM    8  C5  UNL     1      14.643  13.218   1.331  1.00  0.00    -0.006 C
HETATM    9  C20 UNL     1      15.062  14.570   1.031  1.00  0.00     0.040 C
BRANCH   8  10
HETATM   10  C4  UNL     1      13.934  12.359   0.437  1.00  0.00     0.244 C
HETATM   11  N1  UNL     1      12.754  12.612  -0.242  1.00  0.00    -0.353 N
ATOM     12  H1  UNL     1      12.315  13.524  -0.116  1.00  0.00     0.163 HD
HETATM   13  O1  UNL     1      14.448  11.186   0.229  1.00  0.00    -0.268 OA
BRANCH  11  14
HETATM   14  C2  UNL     1      12.088  11.641  -1.141  1.00  0.00     0.076 C
HETATM   15  C1  UNL     1      10.725  11.244  -0.655  1.00  0.00     0.032 C
HETATM   16  C3  UNL     1      11.918  12.329  -2.494  1.00  0.00     0.032 C
ENDBRANCH  11  14
ENDBRANCH   8  10
BRANCH   9  17
HETATM   17  C21 UNL     1      15.701  15.040  -0.185  1.00  0.00    -0.013 C
HETATM   18  C22 UNL     1      14.788  16.021  -0.949  1.00  0.00     0.010 C
HETATM   19  C23 UNL     1      16.339  14.173  -1.180  1.00  0.00     0.010 C
ENDBRANCH   9  17
ENDBRANCH   1   4
BRANCH   1  20
HETATM   20  O2  UNL     1      14.826  16.879   2.466  1.00  0.00    -0.349 OA
ATOM     21  H2  UNL     1      14.050  17.040   2.990  1.00  0.00     0.219 HD
ENDBRANCH   1  20
BRANCH   2  22
HETATM   22  C11 UNL     1      15.342  17.565   5.034  1.00  0.00     0.088 C
BRANCH  22  23
HETATM   23  C12 UNL     1      14.509  17.098   6.206  1.00  0.00     0.278 C
HETATM   24  O3  UNL     1      14.970  16.376   7.115  1.00  0.00    -0.265 OA
HETATM   25  N3  UNL     1      13.162  17.502   6.330  1.00  0.00    -0.249 N
ATOM     26  H3  UNL     1      12.776  18.074   5.579  1.00  0.00     0.182 HD
BRANCH  25  27
HETATM   27  S1  UNL     1      12.124  17.115   7.626  1.00  0.00     0.237 S
HETATM   28  O4  UNL     1      12.076  15.592   7.797  1.00  0.00    -0.205 OA
HETATM   29  O5  UNL     1      12.653  17.681   8.905  1.00  0.00    -0.205 OA
BRANCH  27  30
HETATM   30  C13 UNL     1      10.464  17.607   7.322  1.00  0.00     0.130 A
HETATM   31  C14 UNL     1       9.450  16.646   6.764  1.00  0.00     0.023 A
HETATM   32  C15 UNL     1      10.077  17.693   5.862  1.00  0.00     0.023 A
ENDBRANCH  27  30
ENDBRANCH  25  27
ENDBRANCH  22  23
BRANCH  22  33
HETATM   33  C16 UNL     1      16.105  18.736   5.285  1.00  0.00    -0.003 C
HETATM   34  C17 UNL     1      15.904  19.553   6.539  1.00  0.00     0.021 C
HETATM   35  C18 UNL     1      17.638  18.438   5.208  1.00  0.00     0.021 C
HETATM   36  C19 UNL     1      15.862  19.708   4.099  1.00  0.00     0.021 C
ENDBRANCH  22  33
ENDBRANCH   2  22
TORSDOF 10
ENDMDL