MODEL 1
REMARK VINA RESULT: -5.807763768      0.000      0.000
REMARK  10 active torsions:
REMARK  status: ('A' for Active; 'I' for Inactive)
REMARK    1  A    between atoms: C2_2  and  C4_4
REMARK    2  A    between atoms: C5_5  and  C6_6
REMARK    3  A    between atoms: C6_6  and  C9_9
REMARK    4  A    between atoms: C9_9  and  N1_10
REMARK    5  A    between atoms: C9_9  and  C25_36
REMARK       I    between atoms: N1_10  and  C10_12
REMARK    6  A    between atoms: C10_12  and  C11_14
REMARK       I    between atoms: N2_18  and  C15_19
REMARK    7  A    between atoms: C15_19  and  C16_21
REMARK    8  A    between atoms: C16_21  and  N3_22
REMARK    9  A    between atoms: C16_21  and  C22_33
REMARK       I    between atoms: N3_22  and  C17_24
REMARK   10  A    between atoms: C17_24  and  C18_26
ROOT
HETATM    1  C11 UNL     1      18.371  16.169   3.633  1.00  0.00     0.179 C
HETATM    2  C12 UNL     1      19.655  16.971   4.006  1.00  0.00     0.037 C
HETATM    3  C13 UNL     1      19.032  18.301   4.373  1.00  0.00     0.022 C
HETATM    4  C14 UNL     1      17.552  18.087   4.419  1.00  0.00     0.127 C
HETATM    5  N2  UNL     1      17.519  16.620   4.650  1.00  0.00    -0.337 N
HETATM    6  C15 UNL     1      16.736  16.054   5.648  1.00  0.00     0.243 C
HETATM    7  O2  UNL     1      16.560  14.805   5.853  1.00  0.00    -0.271 OA
ENDROOT
BRANCH   1   8
HETATM    8  C10 UNL     1      18.669  14.782   3.422  1.00  0.00     0.241 C
HETATM    9  N1  UNL     1      17.821  14.069   2.487  1.00  0.00    -0.353 N
ATOM     10  H1  UNL     1      17.061  14.570   2.027  1.00  0.00     0.163 HD
HETATM   11  O1  UNL     1      19.565  14.078   3.930  1.00  0.00    -0.271 OA
BRANCH   9  12
HETATM   12  C9  UNL     1      18.023  12.655   2.186  1.00  0.00     0.107 C
BRANCH  12  13
HETATM   13  C6  UNL     1      16.823  11.830   2.544  1.00  0.00     0.037 C
HETATM   14  C7  UNL     1      17.063  10.366   2.134  1.00  0.00     0.031 C
HETATM   15  C8  UNL     1      16.441  11.851   3.986  1.00  0.00     0.031 C
BRANCH  13  16
HETATM   16  C5  UNL     1      15.676  12.264   1.745  1.00  0.00    -0.095 C
HETATM   17  C4  UNL     1      14.735  12.628   1.059  1.00  0.00    -0.102 C
BRANCH  17  18
HETATM   18  C2  UNL     1      13.607  13.085   0.236  1.00  0.00     0.057 C
HETATM   19  C1  UNL     1      12.694  11.931  -0.142  1.00  0.00     0.023 C
HETATM   20  C3  UNL     1      14.081  13.712  -1.059  1.00  0.00     0.023 C
ENDBRANCH  17  18
ENDBRANCH  13  16
ENDBRANCH  12  13
BRANCH  12  21
HETATM   21  C25 UNL     1      18.594  12.400   0.835  1.00  0.00     0.002 C
HETATM   22  C26 UNL     1      20.088  12.099   1.027  1.00  0.00     0.011 C
HETATM   23  C27 UNL     1      18.398  13.472  -0.177  1.00  0.00     0.011 C
ENDBRANCH  12  21
ENDBRANCH   9  12
ENDBRANCH   1   8
BRANCH   6  24
HETATM   24  C16 UNL     1      15.976  16.903   6.639  1.00  0.00     0.180 C
BRANCH  24  25
HETATM   25  N3  UNL     1      14.529  16.657   6.521  1.00  0.00    -0.346 N
HETATM   26  C17 UNL     1      13.697  17.505   5.765  1.00  0.00     0.249 C
HETATM   27  O3  UNL     1      14.218  18.492   5.187  1.00  0.00    -0.271 OA
ATOM     28  H3  UNL     1      14.119  15.853   6.998  1.00  0.00     0.163 HD
BRANCH  26  29
HETATM   29  C18 UNL     1      12.236  17.298   5.616  1.00  0.00     0.277 C
HETATM   30  C19 UNL     1      11.545  16.933   6.894  1.00  0.00     0.044 C
HETATM   31  C20 UNL     1      11.060  18.237   7.463  1.00  0.00     0.030 C
HETATM   32  C21 UNL     1      10.974  19.145   6.275  1.00  0.00     0.233 C
HETATM   33  N4  UNL     1      11.584  18.495   5.158  1.00  0.00    -0.062 N
ATOM     34  H42 UNL     1      12.216  19.111   4.647  1.00  0.00     0.278 HD
ATOM     35  H41 UNL     1      10.922  18.313   4.404  1.00  0.00     0.278 HD
ENDBRANCH  26  29
ENDBRANCH  24  25
BRANCH  24  36
HETATM   36  C22 UNL     1      16.330  16.518   8.073  1.00  0.00     0.009 C
HETATM   37  C23 UNL     1      17.152  17.675   8.615  1.00  0.00     0.012 C
HETATM   38  C24 UNL     1      15.040  16.467   8.915  1.00  0.00     0.012 C
ENDBRANCH  24  36
ENDBRANCH   6  24
TORSDOF 10
ENDMDL