MODEL 5
REMARK VINA RESULT: -6.092458479      2.974      4.879
REMARK  11 active torsions:
REMARK  status: ('A' for Active; 'I' for Inactive)
REMARK    1  A    between atoms: C2_2  and  C3_3
REMARK    2  A    between atoms: C3_3  and  N1_4
REMARK    3  A    between atoms: C3_3  and  C22_34
REMARK       I    between atoms: N1_4  and  C4_6
REMARK    4  A    between atoms: C4_6  and  C5_8
REMARK    5  A    between atoms: C5_8  and  N2_10
REMARK       I    between atoms: N2_10  and  C7_12
REMARK    6  A    between atoms: C7_12  and  C8_14
REMARK       I    between atoms: N3_17  and  C11_18
REMARK    7  A    between atoms: C11_18  and  C12_20
REMARK    8  A    between atoms: C12_20  and  N4_21
REMARK    9  A    between atoms: C12_20  and  C18_30
REMARK       I    between atoms: N4_21  and  C13_23
REMARK   10  A    between atoms: C13_23  and  O5_25
REMARK   11  A    between atoms: O5_25  and  C14_26
ROOT
HETATM    1  C8  UNL     1      16.220  11.899   3.240  1.00  0.00     0.180 C
HETATM    2  C9  UNL     1      17.153  10.903   3.904  1.00  0.00     0.055 C
HETATM    3  C10 UNL     1      18.183  11.939   3.578  1.00  0.00     0.129 C
HETATM    4  N3  UNL     1      17.120  12.961   3.594  1.00  0.00    -0.337 N
HETATM    5  C11 UNL     1      17.174  14.339   3.867  1.00  0.00     0.244 C
HETATM    6  O3  UNL     1      18.357  14.806   4.105  1.00  0.00    -0.271 OA
ENDROOT
BRANCH   1   7
HETATM    7  C7  UNL     1      16.069  11.697   1.767  1.00  0.00     0.241 C
HETATM    8  N2  UNL     1      15.826  12.753   0.874  1.00  0.00    -0.346 N
ATOM      9  H2  UNL     1      15.749  13.690   1.269  1.00  0.00     0.163 HD
HETATM   10  O2  UNL     1      16.165  10.529   1.316  1.00  0.00    -0.271 OA
BRANCH   8  11
HETATM   11  C5  UNL     1      15.674  12.626  -0.557  1.00  0.00     0.172 C
HETATM   12  C6  UNL     1      16.693  13.538  -1.214  1.00  0.00     0.042 C
BRANCH  11  13
HETATM   13  C4  UNL     1      14.290  12.959  -1.014  1.00  0.00     0.240 C
HETATM   14  N1  UNL     1      13.482  11.917  -1.514  1.00  0.00    -0.354 N
ATOM     15  H1  UNL     1      13.859  10.971  -1.553  1.00  0.00     0.162 HD
HETATM   16  O1  UNL     1      13.841  14.124  -0.964  1.00  0.00    -0.271 OA
BRANCH  14  17
HETATM   17  C3  UNL     1      12.103  12.164  -1.985  1.00  0.00     0.087 C
BRANCH  17  18
HETATM   18  C2  UNL     1      12.151  11.949  -3.455  1.00  0.00     0.021 C
HETATM   19  C1  UNL     1      12.556  13.099  -4.300  1.00  0.00     0.007 C
ENDBRANCH  17  18
BRANCH  17  20
HETATM   20  C22 UNL     1      11.245  11.250  -1.195  1.00  0.00     0.000 C
HETATM   21  C23 UNL     1      11.052  11.579   0.244  1.00  0.00     0.011 C
HETATM   22  C24 UNL     1       9.882  11.026  -1.838  1.00  0.00     0.011 C
ENDBRANCH  17  20
ENDBRANCH  14  17
ENDBRANCH  11  13
ENDBRANCH   8  11
ENDBRANCH   1   7
BRANCH   5  23
HETATM   23  C12 UNL     1      16.097  15.312   3.915  1.00  0.00     0.186 C
BRANCH  23  24
HETATM   24  N4  UNL     1      16.312  16.267   2.798  1.00  0.00    -0.323 N
HETATM   25  C13 UNL     1      15.452  16.194   1.671  1.00  0.00     0.362 C
HETATM   26  O4  UNL     1      14.536  15.356   1.616  1.00  0.00    -0.238 OA
ATOM     27  H4  UNL     1      17.060  16.959   2.840  1.00  0.00     0.165 HD
BRANCH  25  28
HETATM   28  O5  UNL     1      15.591  17.050   0.584  1.00  0.00    -0.294 OA
BRANCH  28  29
HETATM   29  C14 UNL     1      14.856  18.253   0.436  1.00  0.00     0.061 C
HETATM   30  C15 UNL     1      13.850  18.049  -0.672  1.00  0.00     0.046 C
HETATM   31  C16 UNL     1      14.119  18.596   1.726  1.00  0.00     0.046 C
HETATM   32  C17 UNL     1      15.784  19.400   0.081  1.00  0.00     0.046 C
ENDBRANCH  28  29
ENDBRANCH  25  28
ENDBRANCH  23  24
BRANCH  23  33
HETATM   33  C18 UNL     1      16.070  16.198   5.144  1.00  0.00    -0.022 C
HETATM   34  C19 UNL     1      14.596  16.595   5.332  1.00  0.00     0.017 C
HETATM   35  C20 UNL     1      16.470  15.528   6.420  1.00  0.00     0.017 C
HETATM   36  C21 UNL     1      16.834  17.480   4.979  1.00  0.00     0.017 C
ENDBRANCH  23  33
ENDBRANCH   5  23
TORSDOF 11
ENDMDL