MODEL 4
REMARK VINA RESULT: -5.790988965      4.227      7.072
REMARK  10 active torsions:
REMARK  status: ('A' for Active; 'I' for Inactive)
REMARK    1  A    between atoms: C2_2  and  C4_4
REMARK    2  A    between atoms: C4_4  and  O1_5
REMARK    3  A    between atoms: C4_4  and  C21_32
REMARK    4  A    between atoms: O1_5  and  C5_6
REMARK       I    between atoms: C5_6  and  N1_8
REMARK    5  A    between atoms: C8_11  and  N2_12
REMARK       I    between atoms: N2_12  and  C9_14
REMARK    6  A    between atoms: C9_14  and  C10_16
REMARK    7  A    between atoms: C10_16  and  C11_17
REMARK    8  A    between atoms: C10_16  and  N3_24
REMARK    9  A    between atoms: C11_17  and  C12_18
REMARK       I    between atoms: N3_24  and  C18_26
REMARK   10  A    between atoms: C18_26  and  C19_28
ROOT
HETATM    1  N2  UNL     1      11.649  12.365  -3.584  1.00  0.00    -0.353 N
ATOM      2  H2  UNL     1      10.986  11.590  -3.609  1.00  0.00     0.163 HD
HETATM    3  C9  UNL     1      11.857  13.132  -4.728  1.00  0.00     0.240 C
HETATM    4  O3  UNL     1      12.680  14.084  -4.695  1.00  0.00    -0.271 OA
ENDROOT
BRANCH   1   5
HETATM    5  C8  UNL     1      12.360  12.653  -2.366  1.00  0.00     0.104 C
HETATM    6  C7  UNL     1      11.527  12.373  -1.138  1.00  0.00     0.047 C
HETATM    7  C6  UNL     1      12.510  11.788  -0.116  1.00  0.00     0.130 C
HETATM    8  N1  UNL     1      13.801  11.855  -0.762  1.00  0.00    -0.326 N
HETATM    9  C5  UNL     1      15.079  12.037  -0.197  1.00  0.00     0.363 C
HETATM   10  C20 UNL     1      13.529  11.683  -2.170  1.00  0.00     0.153 C
HETATM   11  O2  UNL     1      16.115  12.088  -0.925  1.00  0.00    -0.238 OA
BRANCH   9  12
HETATM   12  O1  UNL     1      15.223  12.163   1.149  1.00  0.00    -0.297 OA
BRANCH  12  13
HETATM   13  C4  UNL     1      16.334  12.874   1.773  1.00  0.00     0.144 C
BRANCH  13  14
HETATM   14  C2  UNL     1      15.731  14.077   2.360  1.00  0.00     0.008 C
HETATM   15  C1  UNL     1      16.591  15.255   2.633  1.00  0.00     0.012 C
HETATM   16  C3  UNL     1      14.639  14.556   1.384  1.00  0.00     0.012 C
ENDBRANCH  13  14
BRANCH  13  17
HETATM   17  C21 UNL     1      16.977  11.872   2.651  1.00  0.00    -0.024 C
HETATM   18  C22 UNL     1      16.485  11.960   4.065  1.00  0.00     0.017 C
HETATM   19  C23 UNL     1      18.494  12.118   2.717  1.00  0.00     0.017 C
HETATM   20  C24 UNL     1      16.822  10.449   2.173  1.00  0.00     0.017 C
ENDBRANCH  13  17
ENDBRANCH  12  13
ENDBRANCH   9  12
ENDBRANCH   1   5
BRANCH   3  21
HETATM   21  C10 UNL     1      11.141  12.863  -5.989  1.00  0.00     0.177 C
BRANCH  21  22
HETATM   22  C11 UNL     1      10.643  11.408  -5.973  1.00  0.00     0.039 C
BRANCH  22  23
HETATM   23  C12 UNL     1      10.545  10.806  -7.345  1.00  0.00    -0.012 C
HETATM   24  C13 UNL     1      11.939  10.949  -7.959  1.00  0.00     0.005 C
HETATM   25  C14 UNL     1      12.053  10.131  -9.225  1.00  0.00     0.000 C
HETATM   26  C15 UNL     1      11.773   8.663  -8.948  1.00  0.00     0.000 C
HETATM   27  C16 UNL     1      10.315   8.588  -8.478  1.00  0.00     0.000 C
HETATM   28  C17 UNL     1      10.230   9.325  -7.182  1.00  0.00     0.005 C
ENDBRANCH  22  23
ENDBRANCH  21  22
BRANCH  21  29
HETATM   29  N3  UNL     1       9.959  13.734  -5.971  1.00  0.00    -0.339 N
HETATM   30  C18 UNL     1       9.969  14.848  -6.855  1.00  0.00     0.319 C
HETATM   31  O4  UNL     1      10.929  15.084  -7.612  1.00  0.00    -0.261 OA
ATOM     32  H3  UNL     1       9.168  13.548  -5.354  1.00  0.00     0.163 HD
BRANCH  30  33
HETATM   33  C19 UNL     1       8.814  15.727  -6.860  1.00  0.00     0.270 C
HETATM   34  O5  UNL     1       8.786  16.764  -6.157  1.00  0.00    -0.640 OA
HETATM   35  O6  UNL     1       7.733  15.411  -7.655  1.00  0.00    -0.640 OA
ENDBRANCH  30  33
ENDBRANCH  21  29
ENDBRANCH   3  21
TORSDOF 10
ENDMDL