MODEL 2
REMARK VINA RESULT: -6.141147855      2.877      7.654
REMARK  11 active torsions:
REMARK  status: ('A' for Active; 'I' for Inactive)
REMARK    1  A    between atoms: C1_2  and  C2_4
REMARK    2  A    between atoms: C2_4  and  C3_5
REMARK    3  A    between atoms: C3_5  and  C4_6
REMARK    4  A    between atoms: N1_12  and  C10_13
REMARK    5  A    between atoms: C10_13  and  C11_14
REMARK    6  A    between atoms: N2_19  and  C16_20
REMARK    7  A    between atoms: C16_20  and  C17_21
REMARK       I    between atoms: C17_21  and  N3_23
REMARK    8  A    between atoms: N3_23  and  C18_25
REMARK    9  A    between atoms: C18_25  and  O4_26
REMARK   10  A    between atoms: C18_25  and  N4_28
REMARK   11  A    between atoms: N4_28  and  C19_30
ROOT
HETATM    1  C3  UNL     1      16.148  14.910   2.751  1.00  0.00    -0.007 C
HETATM    2  C14 UNL     1      15.235  15.328   3.824  1.00  0.00     0.031 C
HETATM    3  C15 UNL     1      15.508  16.766   4.279  1.00  0.00     0.118 C
HETATM    4  N2  UNL     1      16.823  16.944   4.752  1.00  0.00    -0.404 N
HETATM    5  C24 UNL     1      17.782  15.970   4.383  1.00  0.00     0.118 C
HETATM    6  C25 UNL     1      17.602  15.315   3.062  1.00  0.00     0.031 C
ENDROOT
BRANCH   4   7
HETATM    7  C16 UNL     1      17.006  17.357   6.098  1.00  0.00     0.220 C
BRANCH   7   8
HETATM    8  C17 UNL     1      16.141  16.704   7.118  1.00  0.00     0.242 C
HETATM    9  O3  UNL     1      16.566  15.589   7.573  1.00  0.00    -0.271 OA
HETATM   10  N3  UNL     1      14.939  17.271   7.562  1.00  0.00    -0.292 N
ATOM     11  H3  UNL     1      14.673  18.156   7.130  1.00  0.00     0.172 HD
BRANCH  10  12
HETATM   12  C18 UNL     1      14.070  16.773   8.518  1.00  0.00     0.219 C
BRANCH  12  13
HETATM   13  O4  UNL     1      14.595  16.138   9.525  1.00  0.00    -0.332 OA
ATOM     14  H4  UNL     1      14.941  16.664  10.236  1.00  0.00     0.220 HD
ENDBRANCH  12  13
BRANCH  12  15
HETATM   15  N4  UNL     1      12.670  16.889   8.497  1.00  0.00    -0.351 N
ATOM     16  H4  UNL     1      12.155  16.889   9.378  1.00  0.00     0.163 HD
BRANCH  15  17
HETATM   17  C19 UNL     1      11.933  17.008   7.231  1.00  0.00     0.089 C
HETATM   18  C20 UNL     1      10.699  16.170   7.275  1.00  0.00     0.051 C
HETATM   19  C21 UNL     1       9.610  16.888   6.504  1.00  0.00     0.169 C
HETATM   20  O5  UNL     1       9.181  18.039   7.135  1.00  0.00    -0.391 OA
HETATM   21  C22 UNL     1      10.230  18.790   7.649  1.00  0.00     0.169 C
HETATM   22  C23 UNL     1      11.542  18.449   7.006  1.00  0.00     0.051 C
ENDBRANCH  15  17
ENDBRANCH  12  15
ENDBRANCH  10  12
ENDBRANCH   7   8
ENDBRANCH   4   7
BRANCH   1  23
HETATM   23  C2  UNL     1      15.771  15.728   1.535  1.00  0.00     0.124 C
BRANCH  23  24
HETATM   24  C1  UNL     1      16.807  16.001   0.552  1.00  0.00     0.173 C
HETATM   25  O1  UNL     1      17.176  17.229   0.469  1.00  0.00    -0.648 OA
HETATM   26  O2  UNL     1      17.469  15.184  -0.312  1.00  0.00    -0.648 OA
ENDBRANCH  23  24
ENDBRANCH   1  23
BRANCH   1  27
HETATM   27  C4  UNL     1      16.202  13.497   2.351  1.00  0.00     0.092 C
HETATM   28  C5  UNL     1      16.360  12.668   3.652  1.00  0.00     0.026 C
HETATM   29  C6  UNL     1      17.507  11.743   3.626  1.00  0.00     0.002 C
HETATM   30  C7  UNL     1      18.012  11.331   2.299  1.00  0.00     0.002 C
HETATM   31  C8  UNL     1      17.049  11.238   1.185  1.00  0.00     0.020 C
HETATM   32  C9  UNL     1      15.610  11.429   1.489  1.00  0.00     0.122 C
HETATM   33  N1  UNL     1      15.243  12.816   1.638  1.00  0.00    -0.388 N
BRANCH  33  34
HETATM   34  C10 UNL     1      14.276  13.310   0.803  1.00  0.00     0.063 C
BRANCH  34  35
HETATM   35  C11 UNL     1      13.597  12.269  -0.066  1.00  0.00     0.024 A
HETATM   36  C12 UNL     1      12.147  12.013   0.116  1.00  0.00     0.010 A
HETATM   37  C13 UNL     1      12.553  12.762  -1.086  1.00  0.00     0.010 A
ENDBRANCH  34  35
ENDBRANCH  33  34
ENDBRANCH   1  27
TORSDOF 11
ENDMDL