MODEL 5
REMARK VINA RESULT: -7.751750400      3.774      6.318
REMARK  12 active torsions:
REMARK  status: ('A' for Active; 'I' for Inactive)
REMARK    1  A    between atoms: C2_2  and  O1_3
REMARK    2  A    between atoms: O1_3  and  C3_4
REMARK    3  A    between atoms: C3_4  and  C4_6
REMARK    4  A    between atoms: C4_6  and  C28_34
REMARK    5  A    between atoms: C10_12  and  C29_37
REMARK    6  A    between atoms: C13_15  and  C14_16
REMARK    7  A    between atoms: C13_15  and  C26_32
REMARK    8  A    between atoms: C14_16  and  C15_17
REMARK       I    between atoms: C15_17  and  N1_19
REMARK    9  A    between atoms: N1_19  and  C16_21
REMARK   10  A    between atoms: N2_24  and  C19_25
REMARK   11  A    between atoms: C19_25  and  C20_26
REMARK   12  A    between atoms: C28_34  and  O4_35
ROOT
HETATM    1  C4  UNL     1      26.261   5.352  -8.897  1.00  0.00     0.080 C
HETATM    2  C5  UNL     1      25.153   5.175  -7.852  1.00  0.00     0.023 C
HETATM    3  C6  UNL     1      25.528   5.694  -6.511  1.00  0.00     0.007 C
HETATM    4  C7  UNL     1      26.855   6.360  -6.389  1.00  0.00    -0.001 C
HETATM    5  C8  UNL     1      27.944   5.745  -7.218  1.00  0.00    -0.004 C
HETATM    6  C9  UNL     1      27.478   4.740  -8.234  1.00  0.00     0.028 C
HETATM    7  C10 UNL     1      28.627   6.831  -8.035  1.00  0.00    -0.003 C
HETATM    8  C11 UNL     1      29.303   7.756  -7.058  1.00  0.00     0.006 C
HETATM    9  C12 UNL     1      28.224   8.341  -6.148  1.00  0.00     0.011 C
HETATM   10  C13 UNL     1      26.844   7.844  -6.533  1.00  0.00    -0.024 C
ENDROOT
BRANCH  10  11
HETATM   11  C14 UNL     1      25.823   8.579  -5.765  1.00  0.00     0.113 C
BRANCH  11  12
HETATM   12  C15 UNL     1      26.236   9.426  -4.641  1.00  0.00     0.218 C
HETATM   13  O3  UNL     1      26.167   8.998  -3.462  1.00  0.00    -0.274 OA
HETATM   14  N1  UNL     1      26.731  10.772  -4.862  1.00  0.00    -0.356 N
ATOM     15  H1  UNL     1      26.784  11.114  -5.822  1.00  0.00     0.162 HD
BRANCH  14  16
HETATM   16  C16 UNL     1      27.143  11.635  -3.824  1.00  0.00     0.087 C
HETATM   17  C17 UNL     1      27.252  13.094  -4.202  1.00  0.00     0.055 C
HETATM   18  C18 UNL     1      27.304  13.832  -2.850  1.00  0.00     0.275 C
HETATM   19  N2  UNL     1      28.581  13.505  -2.186  1.00  0.00     0.091 N
HETATM   20  C24 UNL     1      28.521  12.073  -1.859  1.00  0.00     0.275 C
HETATM   21  C25 UNL     1      28.402  11.223  -3.109  1.00  0.00     0.055 C
BRANCH  19  22
HETATM   22  C19 UNL     1      28.600  14.255  -0.949  1.00  0.00     0.300 C
BRANCH  22  23
HETATM   23  C20 UNL     1      27.623  13.787   0.054  1.00  0.00     0.005 C
HETATM   24  C21 UNL     1      28.037  13.245   1.177  1.00  0.00    -0.090 C
HETATM   25  C22 UNL     1      29.481  13.101   1.447  1.00  0.00     0.042 C
HETATM   26  C23 UNL     1      27.054  12.773   2.182  1.00  0.00     0.042 C
ENDBRANCH  22  23
ENDBRANCH  19  22
ENDBRANCH  14  16
ENDBRANCH  11  12
ENDBRANCH  10  11
BRANCH  10  27
HETATM   27  C26 UNL     1      26.717   8.297  -7.987  1.00  0.00     0.005 C
HETATM   28  C27 UNL     1      27.135   9.672  -8.330  1.00  0.00     0.045 C
HETATM   29  C28 UNL     1      25.685  10.093  -8.238  1.00  0.00     0.079 C
HETATM   30  C29 UNL     1      25.309   8.669  -8.309  1.00  0.00     0.031 C
BRANCH  29  31
HETATM   31  O4  UNL     1      25.326  10.738  -9.448  1.00  0.00    -0.388 OA
ATOM     32  H4  UNL     1      25.223  11.673  -9.307  1.00  0.00     0.210 HD
ENDBRANCH  29  31
ENDBRANCH  10  27
BRANCH   1  33
HETATM   33  C3  UNL     1      25.879   4.458 -10.023  1.00  0.00     0.270 C
HETATM   34  O2  UNL     1      26.509   3.393 -10.213  1.00  0.00    -0.264 OA
BRANCH  33  35
HETATM   35  O1  UNL     1      24.833   4.767 -10.882  1.00  0.00    -0.321 OA
BRANCH  35  36
HETATM   36  C2  UNL     1      24.702   6.038 -11.489  1.00  0.00     0.174 C
HETATM   37  C1  UNL     1      23.521   6.736 -10.909  1.00  0.00     0.034 C
ENDBRANCH  35  36
ENDBRANCH  33  35
ENDBRANCH   1  33
TORSDOF 12
ENDMDL