MODEL 2
REMARK VINA RESULT: -9.354641873      0.436      1.074
REMARK  7 active torsions:
REMARK  status: ('A' for Active; 'I' for Inactive)
REMARK    1  A    between atoms: C3_3  and  O1_4
REMARK    2  A    between atoms: O1_4  and  C4_5
REMARK    3  A    between atoms: C7_8  and  N1_9
REMARK    4  A    between atoms: N2_11  and  C9_12
REMARK    5  A    between atoms: C16_19  and  C17_20
REMARK    6  A    between atoms: C16_19  and  N4_23
REMARK    7  A    between atoms: C21_27  and  C22_28
ROOT
HETATM    1  C1  UNL     1      27.929  13.024   1.052  1.00  0.00     0.014 C
HETATM    2  C2  UNL     1      27.271  12.032   1.141  1.00  0.00    -0.091 C
HETATM    3  C3  UNL     1      26.469  10.834   1.273  1.00  0.00     0.260 C
ENDROOT
BRANCH   3   4
HETATM    4  O1  UNL     1      26.916   9.807   0.428  1.00  0.00    -0.374 OA
BRANCH   4   5
HETATM    5  C4  UNL     1      27.188  10.277  -0.846  1.00  0.00     0.122 C
HETATM    6  C5  UNL     1      28.459   9.649  -1.329  1.00  0.00     0.034 C
HETATM    7  C6  UNL     1      28.436   9.677  -2.863  1.00  0.00     0.028 C
HETATM    8  C7  UNL     1      27.444   8.636  -3.358  1.00  0.00     0.089 C
HETATM    9  C26 UNL     1      26.151   8.823  -2.632  1.00  0.00     0.028 C
HETATM   10  C27 UNL     1      26.059  10.062  -1.804  1.00  0.00     0.034 C
BRANCH   8  11
HETATM   11  N1  UNL     1      27.328   8.642  -4.787  1.00  0.00    -0.319 N
HETATM   12  C8  UNL     1      27.115   9.902  -5.456  1.00  0.00     0.401 C
HETATM   13  N2  UNL     1      26.445   9.736  -6.732  1.00  0.00     0.118 N
HETATM   14  C15 UNL     1      25.802   8.477  -6.876  1.00  0.00     0.317 C
HETATM   15  C16 UNL     1      26.881   7.352  -6.864  1.00  0.00     0.151 C
HETATM   16  C25 UNL     1      27.424   7.405  -5.485  1.00  0.00     0.252 C
HETATM   17  O2  UNL     1      27.960   6.461  -4.879  1.00  0.00    -0.270 OA
BRANCH  13  18
HETATM   18  C9  UNL     1      25.625  10.873  -7.034  1.00  0.00     0.158 C
HETATM   19  C10 UNL     1      25.602  11.896  -5.901  1.00  0.00     0.049 C
HETATM   20  C11 UNL     1      26.295  11.602  -8.208  1.00  0.00     0.041 C
HETATM   21  C12 UNL     1      25.189  11.944  -9.173  1.00  0.00     0.003 C
HETATM   22  C13 UNL     1      24.235  10.783  -9.010  1.00  0.00     0.003 C
HETATM   23  C14 UNL     1      24.244  10.606  -7.488  1.00  0.00     0.041 C
ENDBRANCH  13  18
BRANCH  15  24
HETATM   24  C17 UNL     1      27.931   7.782  -7.861  1.00  0.00     0.166 C
HETATM   25  C18 UNL     1      28.961   6.752  -8.029  1.00  0.00     0.062 C
HETATM   26  N3  UNL     1      29.783   5.943  -8.145  1.00  0.00    -0.197 NA
ENDBRANCH  15  24
BRANCH  15  27
HETATM   27  N4  UNL     1      26.280   6.132  -7.215  1.00  0.00    -0.355 N
HETATM   28  C19 UNL     1      25.679   5.707  -8.228  1.00  0.00     0.118 A
HETATM   29  C20 UNL     1      25.389   6.338  -9.413  1.00  0.00     0.076 A
HETATM   30  N6  UNL     1      25.152   4.435  -8.361  1.00  0.00    -0.285 N
HETATM   31  C21 UNL     1      24.708   5.460 -10.227  1.00  0.00     0.033 A
HETATM   32  N5  UNL     1      24.585   4.304  -9.539  1.00  0.00    -0.303 N
ATOM     33  H5  UNL     1      24.124   3.461  -9.881  1.00  0.00     0.186 HD
ATOM     34  H6  UNL     1      25.197   3.706  -7.649  1.00  0.00     0.188 HD
ATOM     35  H4  UNL     1      26.350   5.433  -6.476  1.00  0.00     0.162 HD
BRANCH  31  36
HETATM   36  C22 UNL     1      24.222   5.772 -11.592  1.00  0.00     0.037 A
HETATM   37  C23 UNL     1      23.757   7.138 -11.933  1.00  0.00     0.011 A
HETATM   38  C24 UNL     1      25.129   6.664 -12.378  1.00  0.00     0.011 A
ENDBRANCH  31  36
ENDBRANCH  15  27
ENDBRANCH   8  11
ENDBRANCH   4   5
ENDBRANCH   3   4
TORSDOF 7
ENDMDL