MODEL 1
REMARK VINA RESULT: -10.591240130      0.000      0.000
REMARK  8 active torsions:
REMARK  status: ('A' for Active; 'I' for Inactive)
REMARK       I    between atoms: C2_2  and  N1_4
REMARK    1  A    between atoms: C5_7  and  C6_8
REMARK    2  A    between atoms: C6_8  and  C7_9
REMARK       I    between atoms: C7_9  and  N2_11
REMARK    3  A    between atoms: N2_11  and  C8_12
REMARK    4  A    between atoms: C11_15  and  C12_16
REMARK    5  A    between atoms: C12_16  and  C13_17
REMARK    6  A    between atoms: C13_17  and  N3_18
REMARK    7  A    between atoms: C16_21  and  N4_23
REMARK    8  A    between atoms: C20_26  and  O3_28
ROOT
HETATM    1  C12 UNL     1      27.903  13.264  -1.009  1.00  0.00     0.034 C
ENDROOT
BRANCH   1   2
HETATM    2  C11 UNL     1      27.295  11.934  -1.277  1.00  0.00    -0.013 C
HETATM    3  C10 UNL     1      28.112  11.357  -2.425  1.00  0.00     0.007 C
HETATM    4  C9  UNL     1      28.629   9.984  -2.171  1.00  0.00     0.040 C
HETATM    5  C8  UNL     1      27.387   9.152  -1.691  1.00  0.00     0.166 C
HETATM    6  C27 UNL     1      27.107   9.586  -0.315  1.00  0.00     0.040 C
HETATM    7  C26 UNL     1      27.275  11.058  -0.078  1.00  0.00     0.007 C
BRANCH   5   8
HETATM    8  N2  UNL     1      27.515   7.838  -2.038  1.00  0.00    -0.410 NA
HETATM    9  C7  UNL     1      27.646   6.503  -2.389  1.00  0.00     0.288 C
HETATM   10  O2  UNL     1      28.264   5.645  -1.780  1.00  0.00    -0.258 OA
BRANCH   9  11
HETATM   11  C6  UNL     1      26.946   6.105  -3.669  1.00  0.00     0.144 C
BRANCH  11  12
HETATM   12  C5  UNL     1      27.372   6.640  -4.936  1.00  0.00     0.098 C
HETATM   13  N1  UNL     1      27.693   5.990  -6.134  1.00  0.00    -0.347 N
HETATM   14  C2  UNL     1      28.158   4.848  -6.809  1.00  0.00     0.216 C
HETATM   15  C3  UNL     1      27.254   7.289  -6.807  1.00  0.00     0.128 C
HETATM   16  C1  UNL     1      28.271   4.922  -8.330  1.00  0.00     0.117 C
HETATM   17  O1  UNL     1      28.493   3.751  -6.278  1.00  0.00    -0.274 OA
HETATM   18  C4  UNL     1      26.229   7.361  -5.711  1.00  0.00     0.045 C
ENDBRANCH  11  12
ENDBRANCH   9  11
ENDBRANCH   5   8
ENDBRANCH   1   2
BRANCH   1  19
HETATM   19  C13 UNL     1      28.394  14.093  -2.119  1.00  0.00     0.272 C
BRANCH  19  20
HETATM   20  N3  UNL     1      27.353  14.816  -2.810  1.00  0.00     0.088 N
HETATM   21  C14 UNL     1      27.480  14.802  -4.252  1.00  0.00     0.275 C
HETATM   22  C15 UNL     1      28.519  15.710  -4.800  1.00  0.00     0.060 C
HETATM   23  C16 UNL     1      28.422  17.145  -4.282  1.00  0.00     0.027 C
HETATM   24  C17 UNL     1      27.085  17.767  -4.588  1.00  0.00     0.038 C
HETATM   25  C24 UNL     1      28.501  17.008  -2.769  1.00  0.00     0.060 C
HETATM   26  C25 UNL     1      27.304  16.203  -2.325  1.00  0.00     0.275 C
BRANCH  23  27
HETATM   27  N4  UNL     1      29.522  17.848  -4.855  1.00  0.00    -0.404 N
HETATM   28  C18 UNL     1      29.196  18.863  -5.799  1.00  0.00     0.120 C
HETATM   29  C19 UNL     1      30.288  19.910  -5.923  1.00  0.00     0.057 C
HETATM   30  C20 UNL     1      31.659  19.268  -6.034  1.00  0.00     0.057 C
HETATM   31  C21 UNL     1      32.402  19.558  -4.752  1.00  0.00     0.046 C
HETATM   32  C22 UNL     1      31.537  17.770  -6.153  1.00  0.00     0.057 C
HETATM   33  C23 UNL     1      30.721  17.130  -5.067  1.00  0.00     0.120 C
BRANCH  30  34
HETATM   34  O3  UNL     1      32.415  19.808  -7.066  1.00  0.00    -0.390 OA
ATOM     35  H3  UNL     1      32.304  20.749  -7.143  1.00  0.00     0.210 HD
ENDBRANCH  30  34
ENDBRANCH  23  27
ENDBRANCH  19  20
ENDBRANCH   1  19
TORSDOF 8
ENDMDL