MODEL 1
REMARK VINA RESULT: -9.915893716      0.000      0.000
REMARK  8 active torsions:
REMARK  status: ('A' for Active; 'I' for Inactive)
REMARK    1  A    between atoms: C7_9  and  C8_10
REMARK    2  A    between atoms: C8_10  and  O1_11
REMARK    3  A    between atoms: N2_19  and  C15_20
REMARK    4  A    between atoms: C15_20  and  C16_21
REMARK    5  A    between atoms: C16_21  and  C17_22
REMARK    6  A    between atoms: C17_22  and  N3_23
REMARK    7  A    between atoms: N4_26  and  C20_27
REMARK    8  A    between atoms: C20_27  and  C21_28
ROOT
HETATM    1  C1  UNL     1      31.530  19.949  -6.734  1.00  0.00     0.018 C
HETATM    2  C2  UNL     1      31.117  18.944  -6.205  1.00  0.00    -0.078 C
HETATM    3  C3  UNL     1      30.620  17.741  -5.601  1.00  0.00     0.018 A
HETATM    4  C4  UNL     1      31.490  16.692  -5.388  1.00  0.00     0.023 A
HETATM    5  C5  UNL     1      31.009  15.530  -4.816  1.00  0.00     0.032 A
HETATM    6  C6  UNL     1      29.676  15.427  -4.463  1.00  0.00     0.046 A
HETATM    7  N1  UNL     1      29.277  14.279  -3.923  1.00  0.00    -0.356 N
ATOM      8  H1  UNL     1      29.958  13.532  -3.786  1.00  0.00     0.166 HD
HETATM    9  C7  UNL     1      27.963  14.071  -3.542  1.00  0.00     0.048 A
HETATM   10  C26 UNL     1      27.040  15.071  -3.721  1.00  0.00     0.083 A
HETATM   11  C27 UNL     1      27.480  16.264  -4.288  1.00  0.00     0.186 A
HETATM   12  O2  UNL     1      26.709  17.212  -4.480  1.00  0.00    -0.287 OA
HETATM   13  C28 UNL     1      28.808  16.455  -4.668  1.00  0.00     0.042 A
HETATM   14  C29 UNL     1      29.284  17.608  -5.236  1.00  0.00     0.038 A
ENDROOT
BRANCH   9  15
HETATM   15  C8  UNL     1      27.634  12.764  -2.980  1.00  0.00     0.104 C
HETATM   16  C9  UNL     1      28.720  11.749  -3.089  1.00  0.00     0.080 C
HETATM   17  C10 UNL     1      28.329  10.487  -2.282  1.00  0.00     0.226 C
HETATM   18  C11 UNL     1      29.089  10.546  -0.959  1.00  0.00     0.038 C
HETATM   19  N2  UNL     1      26.972  10.635  -1.911  1.00  0.00     0.098 N
HETATM   20  C12 UNL     1      28.222  11.333  -0.022  1.00  0.00     0.038 C
HETATM   21  C13 UNL     1      27.006  11.644  -0.856  1.00  0.00     0.226 C
HETATM   22  C14 UNL     1      27.249  12.993  -1.516  1.00  0.00     0.080 C
BRANCH  15  23
HETATM   23  O1  UNL     1      26.475  12.314  -3.654  1.00  0.00    -0.383 OA
ATOM     24  H1  UNL     1      26.770  11.719  -4.333  1.00  0.00     0.211 HD
ENDBRANCH  15  23
BRANCH  19  25
HETATM   25  C15 UNL     1      26.287   9.489  -1.481  1.00  0.00     0.275 C
BRANCH  25  26
HETATM   26  C16 UNL     1      25.848   8.624  -2.639  1.00  0.00     0.060 C
BRANCH  26  27
HETATM   27  C17 UNL     1      26.507   7.279  -2.609  1.00  0.00     0.274 C
BRANCH  27  28
HETATM   28  N3  UNL     1      27.371   6.955  -3.672  1.00  0.00     0.091 N
HETATM   29  C18 UNL     1      27.409   7.860  -4.791  1.00  0.00     0.292 C
HETATM   30  C19 UNL     1      27.575   7.045  -6.099  1.00  0.00     0.152 C
HETATM   31  N4  UNL     1      26.391   6.276  -6.217  1.00  0.00    -0.390 N
HETATM   32  C24 UNL     1      25.961   5.608  -5.021  1.00  0.00     0.152 C
HETATM   33  C25 UNL     1      27.125   5.578  -4.052  1.00  0.00     0.292 C
BRANCH  31  34
HETATM   34  C20 UNL     1      26.057   5.676  -7.432  1.00  0.00     0.062 C
BRANCH  34  35
HETATM   35  C21 UNL     1      27.124   5.383  -8.420  1.00  0.00     0.024 A
HETATM   36  C22 UNL     1      26.898   4.662  -9.695  1.00  0.00     0.010 A
HETATM   37  C23 UNL     1      27.532   3.923  -8.536  1.00  0.00     0.010 A
ENDBRANCH  34  35
ENDBRANCH  31  34
ENDBRANCH  27  28
ENDBRANCH  26  27
ENDBRANCH  25  26
ENDBRANCH  19  25
ENDBRANCH   9  15
TORSDOF 8
ENDMDL