MODEL 1
REMARK VINA RESULT: -11.121067602      0.000      0.000
REMARK  7 active torsions:
REMARK  status: ('A' for Active; 'I' for Inactive)
REMARK       I    between atoms: C1_2  and  N1_3
REMARK    1  A    between atoms: C1_2  and  C22_30
REMARK    2  A    between atoms: N1_3  and  C2_5
REMARK    3  A    between atoms: C5_8  and  C6_9
REMARK    4  A    between atoms: C6_9  and  C7_10
REMARK    5  A    between atoms: C7_10  and  N2_11
REMARK    6  A    between atoms: C10_14  and  N3_15
REMARK    7  A    between atoms: C24_32  and  C25_33
ROOT
HETATM    1  C2  UNL     1      27.897  13.210  -2.600  1.00  0.00     0.084 C
HETATM    2  C3  UNL     1      28.403  12.696  -1.290  1.00  0.00     0.025 C
HETATM    3  C4  UNL     1      27.331  11.820  -0.672  1.00  0.00     0.007 C
HETATM    4  C5  UNL     1      26.972  10.660  -1.551  1.00  0.00    -0.013 C
HETATM    5  C20 UNL     1      26.539  11.123  -2.931  1.00  0.00     0.007 C
HETATM    6  C21 UNL     1      27.554  12.069  -3.534  1.00  0.00     0.025 C
ENDROOT
BRANCH   4   7
HETATM    7  C6  UNL     1      28.053   9.625  -1.637  1.00  0.00     0.034 C
BRANCH   7   8
HETATM    8  C7  UNL     1      27.552   8.210  -1.641  1.00  0.00     0.272 C
BRANCH   8   9
HETATM    9  N2  UNL     1      28.127   7.402  -2.706  1.00  0.00     0.088 N
HETATM   10  C8  UNL     1      27.165   6.461  -3.232  1.00  0.00     0.274 C
HETATM   11  C9  UNL     1      26.223   7.127  -4.220  1.00  0.00     0.066 C
HETATM   12  C10 UNL     1      26.941   7.654  -5.420  1.00  0.00     0.226 C
HETATM   13  C18 UNL     1      28.420   7.780  -5.121  1.00  0.00     0.066 C
HETATM   14  C19 UNL     1      28.562   8.349  -3.724  1.00  0.00     0.274 C
BRANCH  12  15
HETATM   15  N3  UNL     1      26.676   6.924  -6.630  1.00  0.00     0.093 N
HETATM   16  C11 UNL     1      25.922   7.699  -7.588  1.00  0.00     0.273 C
HETATM   17  C12 UNL     1      25.433   6.759  -8.667  1.00  0.00     0.037 C
HETATM   18  C13 UNL     1      26.641   6.263  -9.409  1.00  0.00     0.020 C
HETATM   19  C14 UNL     1      26.195   5.099 -10.283  1.00  0.00     0.237 C
HETATM   20  C16 UNL     1      27.591   5.609  -8.468  1.00  0.00     0.045 C
HETATM   21  N4  UNL     1      26.587   3.895  -9.618  1.00  0.00    -0.074 N
HETATM   22  C15 UNL     1      26.986   4.242  -8.267  1.00  0.00     0.239 C
ATOM     23  H42 UNL     1      25.865   3.175  -9.644  1.00  0.00     0.277 HD
ATOM     24  H41 UNL     1      27.308   3.380 -10.124  1.00  0.00     0.277 HD
HETATM   25  C17 UNL     1      27.865   6.344  -7.205  1.00  0.00     0.279 C
ENDBRANCH  12  15
ENDBRANCH   8   9
ENDBRANCH   7   8
ENDBRANCH   4   7
BRANCH   1  26
HETATM   26  N1  UNL     1      28.915  14.008  -3.215  1.00  0.00    -0.356 N
HETATM   27  C1  UNL     1      28.996  15.413  -3.037  1.00  0.00     0.222 C
HETATM   28  O1  UNL     1      28.168  16.050  -2.320  1.00  0.00    -0.273 OA
ATOM     29  H1  UNL     1      29.609  13.547  -3.804  1.00  0.00     0.162 HD
BRANCH  27  30
HETATM   30  C22 UNL     1      30.068  16.201  -3.694  1.00  0.00     0.087 A
HETATM   31  C23 UNL     1      31.050  15.418  -4.504  1.00  0.00     0.025 A
HETATM   32  C24 UNL     1      30.064  16.353  -5.177  1.00  0.00     0.034 A
BRANCH  32  33
HETATM   33  C25 UNL     1      30.613  17.638  -5.694  1.00  0.00    -0.038 A
HETATM   34  C26 UNL     1      29.797  18.713  -5.963  1.00  0.00     0.010 A
HETATM   35  C27 UNL     1      30.391  19.859  -6.437  1.00  0.00     0.018 A
HETATM   36  C28 UNL     1      31.740  19.992  -6.658  1.00  0.00     0.087 A
HETATM   37  N5  UNL     1      32.521  18.922  -6.386  1.00  0.00    -0.375 N
HETATM   38  C29 UNL     1      31.967  17.776  -5.916  1.00  0.00     0.095 A
ATOM     39  H5  UNL     1      33.528  18.977  -6.535  1.00  0.00     0.164 HD
ENDBRANCH  32  33
ENDBRANCH  27  30
ENDBRANCH   1  26
TORSDOF 7
ENDMDL