MODEL 2
REMARK VINA RESULT: -9.497066263      1.216      1.352
REMARK  8 active torsions:
REMARK  status: ('A' for Active; 'I' for Inactive)
REMARK    1  A    between atoms: C2_2  and  C3_3
REMARK    2  A    between atoms: C2_2  and  C9_9
REMARK    3  A    between atoms: C9_9  and  C10_10
REMARK    4  A    between atoms: C10_10  and  N1_11
REMARK    5  A    between atoms: N1_11  and  C11_14
REMARK    6  A    between atoms: C16_19  and  C17_20
REMARK       I    between atoms: C17_20  and  N2_22
REMARK    7  A    between atoms: N3_27  and  C21_28
REMARK    8  A    between atoms: C22_30  and  O4_32
ROOT
HETATM    1  C9  UNL     1      27.029  11.227  -2.600  1.00  0.00    -0.013 C
HETATM    2  C14 UNL     1      28.078  11.183  -3.751  1.00  0.00     0.012 C
HETATM    3  C15 UNL     1      29.118  12.257  -3.555  1.00  0.00     0.015 C
HETATM    4  C16 UNL     1      28.521  13.621  -3.880  1.00  0.00     0.078 C
HETATM    5  C26 UNL     1      27.035  13.482  -3.783  1.00  0.00     0.015 C
HETATM    6  C27 UNL     1      26.594  12.667  -2.606  1.00  0.00     0.012 C
ENDROOT
BRANCH   4   7
HETATM    7  C17 UNL     1      29.023  14.658  -2.950  1.00  0.00     0.224 C
HETATM    8  O1  UNL     1      28.975  14.433  -1.685  1.00  0.00    -0.273 OA
HETATM    9  N2  UNL     1      29.550  15.878  -3.438  1.00  0.00    -0.349 N
HETATM   10  C18 UNL     1      30.097  16.945  -2.635  1.00  0.00     0.142 C
HETATM   11  C25 UNL     1      29.625  16.283  -4.808  1.00  0.00     0.152 C
HETATM   12  C19 UNL     1      29.886  18.186  -3.438  1.00  0.00     0.120 C
HETATM   13  C20 UNL     1      31.008  18.562  -4.336  1.00  0.00     0.230 C
HETATM   14  C24 UNL     1      29.239  17.762  -4.734  1.00  0.00     0.122 C
HETATM   15  O2  UNL     1      32.237  18.743  -4.206  1.00  0.00    -0.273 OA
HETATM   16  N3  UNL     1      30.120  18.639  -5.433  1.00  0.00    -0.313 N
BRANCH  16  17
HETATM   17  C21 UNL     1      30.127  19.321  -6.696  1.00  0.00     0.292 A
HETATM   18  O3  UNL     1      30.981  20.405  -6.808  1.00  0.00    -0.321 OA
HETATM   19  C22 UNL     1      29.646  20.718  -6.754  1.00  0.00     0.205 A
HETATM   20  C23 UNL     1      28.934  21.102  -8.056  1.00  0.00     0.084 C
BRANCH  19  21
HETATM   21  O4  UNL     1      29.119  21.287  -5.623  1.00  0.00    -0.362 OA
ATOM     22  H4  UNL     1      29.439  21.007  -4.774  1.00  0.00     0.213 HD
ENDBRANCH  19  21
ENDBRANCH  16  17
ENDBRANCH   4   7
BRANCH   1  23
HETATM   23  C2  UNL     1      27.662  10.780  -1.350  1.00  0.00    -0.004 C
HETATM   24  C1  UNL     1      26.706   9.951  -0.454  1.00  0.00     0.011 C
BRANCH  23  25
HETATM   25  C3  UNL     1      28.230  11.829  -0.417  1.00  0.00    -0.010 C
HETATM   26  C4  UNL     1      29.569  11.605   0.154  1.00  0.00     0.005 C
HETATM   27  C5  UNL     1      29.991  12.810   1.000  1.00  0.00     0.000 C
HETATM   28  C6  UNL     1      28.982  13.210   2.008  1.00  0.00     0.000 C
HETATM   29  C7  UNL     1      27.585  13.308   1.424  1.00  0.00     0.000 C
HETATM   30  C8  UNL     1      27.254  11.982   0.779  1.00  0.00     0.005 C
ENDBRANCH  23  25
ENDBRANCH   1  23
BRANCH   1  31
HETATM   31  C10 UNL     1      25.900  10.384  -3.114  1.00  0.00     0.242 C
BRANCH  31  32
HETATM   32  N1  UNL     1      26.263   9.223  -3.853  1.00  0.00    -0.070 N
ATOM     33  H12 UNL     1      26.164   9.368  -4.857  1.00  0.00     0.277 HD
ATOM     34  H11 UNL     1      27.268   9.053  -3.820  1.00  0.00     0.277 HD
BRANCH  32  35
HETATM   35  C11 UNL     1      25.506   8.070  -3.398  1.00  0.00     0.186 A
HETATM   36  C12 UNL     1      26.327   6.959  -2.713  1.00  0.00     0.035 A
HETATM   37  C13 UNL     1      25.695   6.745  -4.051  1.00  0.00     0.035 A
ENDBRANCH  32  35
ENDBRANCH  31  32
ENDBRANCH   1  31
TORSDOF 8
ENDMDL