MODEL 3
REMARK VINA RESULT: -8.643436943      2.499      5.478
REMARK  8 active torsions:
REMARK  status: ('A' for Active; 'I' for Inactive)
REMARK    1  A    between atoms: C1_2  and  C2_3
REMARK       I    between atoms: C1_2  and  N3_19
REMARK    2  A    between atoms: C2_3  and  N1_4
REMARK       I    between atoms: N1_4  and  C3_5
REMARK    3  A    between atoms: N1_4  and  C9_13
REMARK    4  A    between atoms: C3_5  and  C4_7
REMARK    5  A    between atoms: C4_7  and  N2_8
REMARK    6  A    between atoms: N3_19  and  C15_21
REMARK    7  A    between atoms: C17_25  and  C18_26
REMARK       I    between atoms: C18_26  and  N5_28
REMARK    8  A    between atoms: N5_28  and  C19_30
ROOT
HETATM    1  O1  UNL     1      25.263   6.372  -3.693  1.00  0.00    -0.271 OA
HETATM    2  C1  UNL     1      26.443   5.966  -3.816  1.00  0.00     0.241 C
HETATM    3  N3  UNL     1      26.601   4.691  -4.430  1.00  0.00    -0.306 N
ATOM      4  H3  UNL     1      26.597   3.830  -3.884  1.00  0.00     0.171 HD
ENDROOT
BRANCH   2   5
HETATM    5  C2  UNL     1      27.636   6.724  -3.364  1.00  0.00     0.229 C
BRANCH   5   6
HETATM    6  N1  UNL     1      27.715   8.016  -4.011  1.00  0.00    -0.337 N
HETATM    7  C3  UNL     1      27.941   9.204  -3.268  1.00  0.00     0.238 C
HETATM    8  O2  UNL     1      28.000  10.287  -3.874  1.00  0.00    -0.272 OA
BRANCH   7   9
HETATM    9  C4  UNL     1      28.094   9.076  -1.796  1.00  0.00     0.219 C
BRANCH   9  10
HETATM   10  N2  UNL     1      27.516  10.137  -1.052  1.00  0.00    -0.404 N
HETATM   11  C5  UNL     1      26.637   9.787   0.003  1.00  0.00     0.117 C
HETATM   12  C6  UNL     1      26.652  10.907   1.015  1.00  0.00     0.021 C
HETATM   13  C7  UNL     1      27.764  11.834   0.582  1.00  0.00     0.021 C
HETATM   14  C8  UNL     1      28.378  11.184  -0.635  1.00  0.00     0.117 C
ENDBRANCH   9  10
ENDBRANCH   7   9
BRANCH   6  15
HETATM   15  C9  UNL     1      27.569   8.057  -5.438  1.00  0.00     0.087 C
HETATM   16  C10 UNL     1      28.939   8.079  -6.134  1.00  0.00     0.025 C
HETATM   17  C11 UNL     1      28.649   7.723  -7.598  1.00  0.00     0.002 C
HETATM   18  C12 UNL     1      27.722   8.729  -8.188  1.00  0.00     0.000 C
HETATM   19  C13 UNL     1      26.439   8.873  -7.417  1.00  0.00     0.002 C
HETATM   20  C14 UNL     1      26.817   9.231  -5.969  1.00  0.00     0.025 C
ENDBRANCH   6  15
ENDBRANCH   5   6
ENDBRANCH   2   5
BRANCH   3  21
HETATM   21  C15 UNL     1      26.754   4.678  -5.742  1.00  0.00     0.151 A
HETATM   22  N4  UNL     1      27.789   4.188  -6.425  1.00  0.00    -0.345 N
HETATM   23  C16 UNL     1      27.773   4.260  -7.723  1.00  0.00     0.115 A
ATOM     24  H4  UNL     1      28.579   3.765  -5.939  1.00  0.00     0.167 HD
HETATM   25  C17 UNL     1      26.686   4.839  -8.320  1.00  0.00     0.091 A
HETATM   26  S1  UNL     1      25.723   5.259  -6.967  1.00  0.00    -0.047 SA
BRANCH  25  27
HETATM   27  C18 UNL     1      26.419   5.045  -9.760  1.00  0.00     0.260 C
HETATM   28  O3  UNL     1      26.924   4.260 -10.611  1.00  0.00    -0.267 OA
HETATM   29  N5  UNL     1      25.599   6.123 -10.137  1.00  0.00    -0.352 N
ATOM     30  H5  UNL     1      25.201   6.743  -9.432  1.00  0.00     0.163 HD
BRANCH  29  31
HETATM   31  C19 UNL     1      25.329   6.336 -11.545  1.00  0.00     0.084 C
HETATM   32  C20 UNL     1      25.496   7.809 -11.860  1.00  0.00     0.025 C
HETATM   33  C21 UNL     1      25.184   8.100 -13.302  1.00  0.00     0.002 C
HETATM   34  C22 UNL     1      24.165   7.137 -13.871  1.00  0.00     0.000 C
HETATM   35  C23 UNL     1      23.223   6.769 -12.726  1.00  0.00     0.002 C
HETATM   36  C24 UNL     1      23.962   5.810 -11.836  1.00  0.00     0.025 C
ENDBRANCH  29  31
ENDBRANCH  25  27
ENDBRANCH   3  21
TORSDOF 8
ENDMDL