MODEL 4
REMARK VINA RESULT: -10.083933287      5.830     10.181
REMARK  6 active torsions:
REMARK  status: ('A' for Active; 'I' for Inactive)
REMARK    1  A    between atoms: C2_2  and  O1_3
REMARK    2  A    between atoms: O1_3  and  C3_4
REMARK    3  A    between atoms: C9_10  and  C10_11
REMARK    4  A    between atoms: N1_14  and  S1_15
REMARK    5  A    between atoms: S1_15  and  C13_18
REMARK    6  A    between atoms: C13_18  and  C14_19
ROOT
HETATM    1  S1  UNL     1      27.275   6.599  -4.360  1.00  0.00     0.214 S
HETATM    2  O2  UNL     1      27.538   5.170  -4.135  1.00  0.00    -0.211 OA
HETATM    3  O3  UNL     1      25.824   6.964  -4.228  1.00  0.00    -0.211 OA
ENDROOT
BRANCH   1   4
HETATM    4  N1  UNL     1      28.084   7.460  -3.064  1.00  0.00    -0.211 NA
HETATM    5  C12 UNL     1      27.140   7.807  -2.050  1.00  0.00     0.107 C
HETATM    6  C11 UNL     1      27.743   8.978  -1.261  1.00  0.00     0.020 C
HETATM    7  C10 UNL     1      27.584  10.193  -2.139  1.00  0.00    -0.006 C
HETATM    8  C24 UNL     1      28.094   9.861  -3.508  1.00  0.00     0.020 C
HETATM    9  C23 UNL     1      28.862   8.550  -3.555  1.00  0.00     0.107 C
BRANCH   7  10
HETATM   10  C9  UNL     1      28.220  11.433  -1.558  1.00  0.00     0.019 C
HETATM   11  C3  UNL     1      27.219  12.538  -1.549  1.00  0.00     0.125 C
HETATM   12  C4  UNL     1      27.701  13.742  -0.743  1.00  0.00     0.032 C
HETATM   13  C5  UNL     1      27.700  13.510   0.731  1.00  0.00     0.002 C
HETATM   14  C6  UNL     1      29.097  13.203   1.225  1.00  0.00     0.000 C
HETATM   15  C7  UNL     1      29.755  12.295   0.184  1.00  0.00     0.000 C
HETATM   16  C8  UNL     1      28.802  11.179  -0.189  1.00  0.00     0.007 C
BRANCH  11  17
HETATM   17  O1  UNL     1      27.043  13.044  -2.855  1.00  0.00    -0.386 OA
BRANCH  17  18
HETATM   18  C2  UNL     1      27.710  14.237  -3.033  1.00  0.00     0.163 C
HETATM   19  C1  UNL     1      28.923  14.123  -3.895  1.00  0.00     0.033 C
ENDBRANCH  17  18
ENDBRANCH  11  17
ENDBRANCH   7  10
ENDBRANCH   1   4
BRANCH   1  20
HETATM   20  C13 UNL     1      27.987   7.221  -5.856  1.00  0.00     0.199 C
BRANCH  20  21
HETATM   21  C14 UNL     1      27.343   6.722  -7.114  1.00  0.00     0.175 C
HETATM   22  C15 UNL     1      27.367   5.214  -7.014  1.00  0.00     0.050 C
HETATM   23  C16 UNL     1      25.878   7.141  -7.226  1.00  0.00     0.077 C
HETATM   24  C17 UNL     1      25.604   7.432  -8.667  1.00  0.00     0.085 C
HETATM   25  C18 UNL     1      25.451   8.886  -9.015  1.00  0.00     0.037 C
HETATM   26  C21 UNL     1      26.876   7.000  -9.363  1.00  0.00     0.355 C
HETATM   27  N4  UNL     1      24.614   6.575  -9.259  1.00  0.00    -0.330 N
HETATM   28  C19 UNL     1      26.868   9.441  -9.138  1.00  0.00     0.033 C
HETATM   29  C20 UNL     1      27.781   8.744  -8.158  1.00  0.00     0.276 C
HETATM   30  N2  UNL     1      27.826   7.281  -8.331  1.00  0.00     0.124 N
HETATM   31  N3  UNL     1      26.640   5.705  -9.807  1.00  0.00    -0.311 N
HETATM   32  C22 UNL     1      25.279   5.369  -9.659  1.00  0.00     0.318 C
ATOM     33  H3  UNL     1      27.353   5.083 -10.187  1.00  0.00     0.166 HD
HETATM   34  O4  UNL     1      24.722   4.231  -9.838  1.00  0.00    -0.247 OA
ATOM     35  H4  UNL     1      23.623   6.785  -9.374  1.00  0.00     0.165 HD
ENDBRANCH  20  21
ENDBRANCH   1  20
TORSDOF 6
ENDMDL