MODEL 2
REMARK VINA RESULT: -9.471844264      2.225      4.160
REMARK  9 active torsions:
REMARK  status: ('A' for Active; 'I' for Inactive)
REMARK    1  A    between atoms: C2_2  and  C3_3
REMARK    2  A    between atoms: C3_3  and  N1_5
REMARK    3  A    between atoms: C7_8  and  N2_9
REMARK    4  A    between atoms: C10_14  and  N4_15
REMARK       I    between atoms: N4_15  and  C11_16
REMARK    5  A    between atoms: C11_16  and  C12_18
REMARK    6  A    between atoms: C15_21  and  C16_22
REMARK    7  A    between atoms: C16_22  and  O2_23
REMARK    8  A    between atoms: N5_26  and  C18_27
REMARK    9  A    between atoms: C18_27  and  C19_28
ROOT
HETATM    1  N4  UNL     1      25.807  13.294  -5.121  1.00  0.00    -0.350 NA
HETATM    2  C11 UNL     1      26.087  12.017  -5.208  1.00  0.00     0.299 C
HETATM    3  O1  UNL     1      26.297  11.439  -6.344  1.00  0.00    -0.257 OA
ENDROOT
BRANCH   2   4
HETATM    4  C12 UNL     1      26.212  11.053  -4.057  1.00  0.00     0.121 C
HETATM    5  C13 UNL     1      25.550   9.756  -4.430  1.00  0.00     0.017 C
HETATM    6  C14 UNL     1      25.019   9.141  -3.175  1.00  0.00     0.009 C
HETATM    7  C15 UNL     1      25.980   8.301  -2.420  1.00  0.00     0.037 C
HETATM    8  C17 UNL     1      27.409   8.720  -2.438  1.00  0.00     0.279 C
HETATM    9  N5  UNL     1      27.669  10.108  -2.457  1.00  0.00     0.090 N
HETATM   10  C25 UNL     1      27.670  10.706  -3.802  1.00  0.00     0.287 C
BRANCH   7  11
HETATM   11  C16 UNL     1      25.880   6.828  -2.862  1.00  0.00     0.170 C
BRANCH  11  12
HETATM   12  O2  UNL     1      26.740   6.107  -2.044  1.00  0.00    -0.400 OA
ATOM     13  H2  UNL     1      26.794   6.580  -1.222  1.00  0.00     0.209 HD
ENDBRANCH  11  12
ENDBRANCH   7  11
BRANCH   9  14
HETATM   14  C18 UNL     1      28.764  10.580  -1.680  1.00  0.00     0.277 C
BRANCH  14  15
HETATM   15  C19 UNL     1      28.415  11.476  -0.541  1.00  0.00     0.014 C
HETATM   16  C20 UNL     1      27.169  11.018   0.190  1.00  0.00     0.006 C
HETATM   17  C21 UNL     1      26.901  11.943   1.338  1.00  0.00     0.000 C
HETATM   18  C22 UNL     1      27.703  13.212   1.276  1.00  0.00     0.000 C
HETATM   19  C23 UNL     1      27.732  13.817  -0.106  1.00  0.00     0.000 C
HETATM   20  C24 UNL     1      28.017  12.820  -1.182  1.00  0.00     0.006 C
ENDBRANCH  14  15
ENDBRANCH   9  14
ENDBRANCH   2   4
BRANCH   1  21
HETATM   21  C10 UNL     1      25.539  14.467  -5.058  1.00  0.00     0.201 A
HETATM   22  N2  UNL     1      26.253  15.474  -4.532  1.00  0.00    -0.260 N
HETATM   23  N3  UNL     1      25.618  16.607  -4.732  1.00  0.00    -0.307 N
HETATM   24  C8  UNL     1      24.472  16.409  -5.387  1.00  0.00     0.112 A
ATOM     25  H3  UNL     1      25.957  17.519  -4.426  1.00  0.00     0.186 HD
HETATM   26  C9  UNL     1      24.380  15.088  -5.611  1.00  0.00     0.084 A
BRANCH  22  27
HETATM   27  C7  UNL     1      27.523  15.414  -3.807  1.00  0.00     0.117 C
HETATM   28  C6  UNL     1      28.627  15.433  -4.825  1.00  0.00     0.071 C
HETATM   29  C5  UNL     1      29.924  15.682  -4.145  1.00  0.00     0.060 C
HETATM   30  N1  UNL     1      30.000  16.962  -3.589  1.00  0.00    -0.389 N
HETATM   31  C27 UNL     1      28.781  17.503  -3.074  1.00  0.00     0.124 C
HETATM   32  C26 UNL     1      27.680  16.558  -2.882  1.00  0.00     0.047 C
BRANCH  30  33
HETATM   33  C3  UNL     1      30.934  17.901  -4.055  1.00  0.00     0.079 C
HETATM   34  C4  UNL     1      31.031  19.184  -3.238  1.00  0.00     0.032 C
BRANCH  33  35
HETATM   35  C2  UNL     1      30.707  18.316  -5.499  1.00  0.00     0.020 C
HETATM   36  C1  UNL     1      31.900  19.121  -6.001  1.00  0.00     0.007 C
ENDBRANCH  33  35
ENDBRANCH  30  33
ENDBRANCH  22  27
ENDBRANCH   1  21
TORSDOF 9
ENDMDL