MODEL 5
REMARK VINA RESULT: -5.456512134      0.878      1.072
REMARK  4 active torsions:
REMARK  status: ('A' for Active; 'I' for Inactive)
REMARK    1  A    between atoms: O1_1  and  N1_3
REMARK    2  A    between atoms: C1_5  and  O2_6
REMARK    3  A    between atoms: C1_5  and  C2_8
REMARK    4  A    between atoms: C3_9  and  C4_10
ROOT
HETATM    1  C2  UNL     1      55.254  -8.370  55.584  1.00  0.00    -0.021 C
HETATM    2  C3  UNL     1      56.411  -8.087  55.705  1.00  0.00    -0.093 C
ENDROOT
BRANCH   1   3
HETATM    3  C1  UNL     1      53.874  -8.732  55.446  1.00  0.00     0.217 C
HETATM    4  N1  UNL     1      53.065  -8.843  56.440  1.00  0.00    -0.240 N
ATOM      5  H1  UNL     1      53.414  -8.664  57.382  1.00  0.00     0.197 HD
BRANCH   4   6
HETATM    6  O1  UNL     1      51.755  -9.190  56.274  1.00  0.00    -0.287 OA
ATOM      7  H1  UNL     1      51.498 -10.013  55.875  1.00  0.00     0.244 HD
ENDBRANCH   4   6
BRANCH   3   8
HETATM    8  O2  UNL     1      53.382  -8.977  54.178  1.00  0.00    -0.338 OA
ATOM      9  H2  UNL     1      54.006  -9.112  53.475  1.00  0.00     0.220 HD
ENDBRANCH   3   8
ENDBRANCH   1   3
BRANCH   2  10
HETATM   10  C4  UNL     1      57.814  -7.761  55.847  1.00  0.00     0.065 C
HETATM   11  C5  UNL     1      58.086  -7.519  57.315  1.00  0.00     0.017 C
HETATM   12  C6  UNL     1      59.125  -6.469  57.544  1.00  0.00     0.001 C
HETATM   13  C7  UNL     1      60.191  -6.417  56.500  1.00  0.00     0.000 C
HETATM   14  C8  UNL     1      59.676  -6.395  55.093  1.00  0.00     0.001 C
HETATM   15  C9  UNL     1      58.168  -6.451  55.132  1.00  0.00     0.017 C
ENDBRANCH   2  10
TORSDOF 4
ENDMDL