MODEL 3
REMARK VINA RESULT: -5.457591975      1.916      2.351
REMARK  2 active torsions:
REMARK  status: ('A' for Active; 'I' for Inactive)
REMARK    1  A    between atoms: C1_4  and  O1_5
REMARK    2  A    between atoms: C1_4  and  N2_7
ROOT
HETATM    1  N2  UNL     1      58.449  -7.346  57.388  1.00  0.00    -0.348 N
HETATM    2  C2  UNL     1      57.492  -8.141  56.686  1.00  0.00     0.126 C
HETATM    3  C3  UNL     1      57.276  -7.729  55.255  1.00  0.00     0.020 C
HETATM    4  C4  UNL     1      58.504  -7.833  54.404  1.00  0.00     0.002 C
HETATM    5  C5  UNL     1      58.934  -6.451  53.900  1.00  0.00     0.000 C
HETATM    6  C6  UNL     1      60.057  -5.996  54.782  1.00  0.00     0.002 C
HETATM    7  C7  UNL     1      59.493  -5.521  56.104  1.00  0.00     0.020 C
HETATM    8  C8  UNL     1      59.673  -6.615  57.123  1.00  0.00     0.126 C
ENDROOT
BRANCH   1   9
HETATM    9  C1  UNL     1      58.099  -7.237  58.763  1.00  0.00     0.212 C
HETATM   10  N1  UNL     1      58.337  -6.233  59.500  1.00  0.00    -0.365 N
ATOM     11  H12 UNL     1      58.087  -6.155  60.485  1.00  0.00     0.159 HD
ATOM     12  H11 UNL     1      58.818  -5.435  59.085  1.00  0.00     0.159 HD
BRANCH   9  13
HETATM   13  O1  UNL     1      57.441  -8.328  59.329  1.00  0.00    -0.333 OA
ATOM     14  H1  UNL     1      56.512  -8.249  59.506  1.00  0.00     0.220 HD
ENDBRANCH   9  13
ENDBRANCH   1   9
TORSDOF 2
ENDMDL