MODEL 4
REMARK VINA RESULT: -5.028340297      3.032      4.269
REMARK  1 active torsions:
REMARK  status: ('A' for Active; 'I' for Inactive)
REMARK    1  A    between atoms: O1_1  and  C1_3
ROOT
HETATM    1  C1  UNL     1      56.681  -8.978  56.264  1.00  0.00     0.118 C
HETATM    2  C2  UNL     1      56.665  -9.941  55.115  1.00  0.00     0.032 C
HETATM    3  C3  UNL     1      58.086 -10.065  54.600  1.00  0.00     0.003 C
HETATM    4  C4  UNL     1      58.730  -8.767  54.292  1.00  0.00     0.010 C
HETATM    5  C5  UNL     1      58.431  -7.652  55.223  1.00  0.00    -0.038 C
HETATM    6  C6  UNL     1      58.782  -6.344  54.501  1.00  0.00     0.010 C
HETATM    7  C7  UNL     1      59.306  -5.430  55.597  1.00  0.00     0.001 C
HETATM    8  C8  UNL     1      60.133  -6.407  56.418  1.00  0.00     0.001 C
HETATM    9  C9  UNL     1      59.258  -7.649  56.479  1.00  0.00     0.010 C
HETATM   10  C10 UNL     1      56.976  -7.606  55.637  1.00  0.00     0.041 C
ENDROOT
BRANCH   1  11
HETATM   11  O1  UNL     1      55.519  -8.951  56.997  1.00  0.00    -0.396 OA
ATOM     12  H1  UNL     1      55.591  -8.499  57.829  1.00  0.00     0.210 HD
ENDBRANCH   1  11
TORSDOF 1
ENDMDL