MODEL 1
REMARK VINA RESULT: -5.363287063      0.000      0.000
REMARK  2 active torsions:
REMARK  status: ('A' for Active; 'I' for Inactive)
REMARK    1  A    between atoms: C10_10  and  N1_11
REMARK    2  A    between atoms: N1_11  and  O1_13
ROOT
HETATM    1  C1  UNL     1      58.337  -6.521  58.992  1.00  0.00     0.016 C
HETATM    2  C2  UNL     1      58.864  -6.672  57.785  1.00  0.00    -0.064 C
HETATM    3  C3  UNL     1      58.695  -8.016  57.231  1.00  0.00     0.040 C
HETATM    4  C4  UNL     1      58.833  -8.109  55.746  1.00  0.00    -0.011 C
HETATM    5  C5  UNL     1      60.258  -7.785  55.353  1.00  0.00     0.005 C
HETATM    6  C6  UNL     1      60.451  -6.334  55.113  1.00  0.00     0.007 C
HETATM    7  C7  UNL     1      59.463  -5.442  55.791  1.00  0.00     0.014 C
HETATM    8  C8  UNL     1      58.028  -5.760  55.415  1.00  0.00     0.007 C
HETATM    9  C9  UNL     1      57.925  -7.226  54.970  1.00  0.00     0.005 C
HETATM   10  C10 UNL     1      59.508  -5.421  57.278  1.00  0.00     0.138 C
ENDROOT
BRANCH  10  11
HETATM   11  N1  UNL     1      60.736  -5.122  57.901  1.00  0.00    -0.296 N
ATOM     12  H1  UNL     1      61.436  -5.847  58.064  1.00  0.00     0.188 HD
BRANCH  11  13
HETATM   13  O1  UNL     1      60.953  -3.866  58.270  1.00  0.00    -0.294 OA
ATOM     14  H1  UNL     1      61.817  -3.643  58.597  1.00  0.00     0.244 HD
ENDBRANCH  11  13
ENDBRANCH  10  11
TORSDOF 2
ENDMDL