MODEL 5
REMARK VINA RESULT: -4.451198036      1.480      2.951
REMARK  1 active torsions:
REMARK  status: ('A' for Active; 'I' for Inactive)
REMARK    1  A    between atoms: O1_1  and  C1_3
ROOT
HETATM    1  C1  UNL     1      53.045 -11.819  58.432  1.00  0.00     0.059 C
HETATM    2  C2  UNL     1      54.145 -11.095  59.162  1.00  0.00     0.042 C
HETATM    3  C3  UNL     1      55.262 -10.835  58.192  1.00  0.00    -0.011 C
HETATM    4  C4  UNL     1      54.731 -10.045  57.002  1.00  0.00     0.009 C
HETATM    5  C5  UNL     1      53.679 -10.819  56.292  1.00  0.00    -0.011 C
HETATM    6  C6  UNL     1      54.108 -12.161  55.797  1.00  0.00     0.009 C
HETATM    7  C7  UNL     1      54.711 -12.917  56.979  1.00  0.00    -0.011 C
HETATM    8  C8  UNL     1      55.809 -12.130  57.635  1.00  0.00     0.009 C
HETATM    9  C9  UNL     1      53.570 -13.147  57.936  1.00  0.00     0.042 C
HETATM   10  C10 UNL     1      52.513 -11.055  57.263  1.00  0.00     0.042 C
ENDROOT
BRANCH   1  11
HETATM   11  O1  UNL     1      52.027 -12.072  59.348  1.00  0.00    -0.390 OA
ATOM     12  H1  UNL     1      52.393 -12.607  60.043  1.00  0.00     0.210 HD
ENDBRANCH   1  11
TORSDOF 1
ENDMDL