MODEL 2
REMARK VINA RESULT: -4.953880625      1.317      3.355
REMARK  1 active torsions:
REMARK  status: ('A' for Active; 'I' for Inactive)
REMARK    1  A    between atoms: O1_1  and  C1_3
ROOT
HETATM    1  C1  UNL     1      60.110  -6.563  56.554  1.00  0.00     0.356 C
HETATM    2  C2  UNL     1      60.068  -5.846  55.199  1.00  0.00     0.064 C
HETATM    3  C3  UNL     1      59.232  -6.737  54.297  1.00  0.00     0.007 C
HETATM    4  C4  UNL     1      57.885  -7.028  54.858  1.00  0.00     0.036 C
HETATM    5  C5  UNL     1      57.838  -7.311  56.308  1.00  0.00     0.226 C
HETATM    6  C6  UNL     1      58.054  -8.747  56.664  1.00  0.00     0.036 C
HETATM    7  C7  UNL     1      57.665  -8.953  58.096  1.00  0.00     0.004 C
HETATM    8  C8  UNL     1      57.893  -7.805  58.988  1.00  0.00     0.030 C
HETATM    9  C9  UNL     1      58.674  -6.670  58.466  1.00  0.00     0.276 C
HETATM   10  N1  UNL     1      58.762  -6.517  57.068  1.00  0.00     0.121 N
ENDROOT
BRANCH   1  11
HETATM   11  O1  UNL     1      60.985  -5.973  57.428  1.00  0.00    -0.368 OA
ATOM     12  H1  UNL     1      60.688  -6.029  58.329  1.00  0.00     0.212 HD
ENDBRANCH   1  11
TORSDOF 1
ENDMDL