MODEL 2
REMARK VINA RESULT: -5.387311019      0.463      2.259
REMARK  2 active torsions:
REMARK  status: ('A' for Active; 'I' for Inactive)
REMARK    1  A    between atoms: C1_4  and  C2_5
REMARK    2  A    between atoms: C2_5  and  N3_9
ROOT
HETATM    1  N3  UNL     1      59.020  -6.466  57.324  1.00  0.00    -0.357 N
HETATM    2  C3  UNL     1      59.482  -7.728  56.818  1.00  0.00     0.086 C
HETATM    3  C4  UNL     1      60.015  -7.619  55.401  1.00  0.00     0.025 C
HETATM    4  C5  UNL     1      60.185  -6.195  54.941  1.00  0.00     0.004 C
HETATM    5  C6  UNL     1      58.962  -5.357  55.196  1.00  0.00     0.025 C
HETATM    6  C7  UNL     1      58.146  -5.979  56.277  1.00  0.00     0.086 C
HETATM    7  C8  UNL     1      57.425  -7.246  55.823  1.00  0.00     0.027 C
HETATM    8  C9  UNL     1      58.087  -8.388  56.619  1.00  0.00     0.027 C
ENDROOT
BRANCH   1   9
HETATM    9  C2  UNL     1      59.283  -5.817  58.542  1.00  0.00     0.112 C
HETATM   10  N2  UNL     1      58.417  -5.977  59.543  1.00  0.00    -0.384 N
ATOM     11  H22 UNL     1      58.607  -5.506  60.427  1.00  0.00     0.157 HD
ATOM     12  H21 UNL     1      57.614  -6.573  59.339  1.00  0.00     0.157 HD
BRANCH   9  13
HETATM   13  C1  UNL     1      60.412  -4.979  58.827  1.00  0.00     0.129 C
HETATM   14  N1  UNL     1      60.612  -3.880  58.238  1.00  0.00    -0.405 N
ATOM     15  H12 UNL     1      59.933  -3.592  57.533  1.00  0.00     0.155 HD
ATOM     16  H11 UNL     1      61.415  -3.285  58.441  1.00  0.00     0.155 HD
ENDBRANCH   9  13
ENDBRANCH   1   9
TORSDOF 2
ENDMDL