MODEL 2
REMARK VINA RESULT: -4.930588908      1.068      2.623
REMARK  2 active torsions:
REMARK  status: ('A' for Active; 'I' for Inactive)
REMARK    1  A    between atoms: O1_1  and  C1_3
REMARK    2  A    between atoms: C3_5  and  O2_6
ROOT
HETATM    1  C1  UNL     1      57.063  -8.755  57.040  1.00  0.00     0.128 C
HETATM    2  C2  UNL     1      58.408  -8.698  57.780  1.00  0.00     0.070 C
HETATM    3  C3  UNL     1      58.255  -7.175  57.648  1.00  0.00     0.066 C
HETATM    4  C4  UNL     1      59.470  -6.388  57.605  1.00  0.00     0.038 C
HETATM    5  C5  UNL     1      60.005  -5.982  56.282  1.00  0.00     0.003 C
HETATM    6  C6  UNL     1      58.991  -5.417  55.349  1.00  0.00     0.000 C
HETATM    7  C7  UNL     1      58.623  -6.509  54.351  1.00  0.00     0.001 C
HETATM    8  C8  UNL     1      58.313  -7.748  55.199  1.00  0.00     0.010 C
HETATM    9  C9  UNL     1      57.509  -7.428  56.398  1.00  0.00     0.049 C
ENDROOT
BRANCH   1  10
HETATM   10  O1  UNL     1      56.941  -9.772  56.140  1.00  0.00    -0.395 OA
ATOM     11  H1  UNL     1      56.648  -9.511  55.275  1.00  0.00     0.210 HD
ENDBRANCH   1  10
BRANCH   3  12
HETATM   12  O2  UNL     1      57.366  -6.772  58.669  1.00  0.00    -0.389 OA
ATOM     13  H2  UNL     1      56.571  -6.486  58.235  1.00  0.00     0.210 HD
ENDBRANCH   3  12
TORSDOF 2
ENDMDL