MODEL 3
REMARK VINA RESULT: -5.215230791      6.280      7.427
REMARK  1 active torsions:
REMARK  status: ('A' for Active; 'I' for Inactive)
REMARK    1  A    between atoms: C9_12  and  O1_13
ROOT
HETATM    1  N1  UNL     1      51.423 -11.598  59.074  1.00  0.00    -0.403 N
ATOM      2  H11 UNL     1      50.617 -11.759  58.470  1.00  0.00     0.155 HD
ATOM      3  H12 UNL     1      51.393 -12.091  59.966  1.00  0.00     0.155 HD
HETATM    4  C1  UNL     1      52.366 -10.845  58.716  1.00  0.00     0.009 C
HETATM    5  C2  UNL     1      53.545 -10.609  59.599  1.00  0.00     0.059 C
HETATM    6  C3  UNL     1      54.716 -11.264  58.906  1.00  0.00    -0.005 C
HETATM    7  C4  UNL     1      56.010 -10.678  59.392  1.00  0.00     0.005 C
HETATM    8  C5  UNL     1      56.711 -10.125  58.189  1.00  0.00     0.001 C
HETATM    9  C6  UNL     1      56.118 -10.891  57.050  1.00  0.00     0.005 C
HETATM   10  C7  UNL     1      54.677 -11.213  57.438  1.00  0.00    -0.007 C
HETATM   11  C8  UNL     1      53.781 -10.232  56.803  1.00  0.00     0.042 C
HETATM   12  C9  UNL     1      52.411 -10.122  57.407  1.00  0.00     0.163 C
ENDROOT
BRANCH  12  13
HETATM   13  O1  UNL     1      52.177  -8.767  57.707  1.00  0.00    -0.390 OA
ATOM     14  H1  UNL     1      52.283  -8.687  58.648  1.00  0.00     0.210 HD
ENDBRANCH  12  13
TORSDOF 1
ENDMDL