MODEL 5
REMARK VINA RESULT: -5.183794585      1.479      3.350
REMARK  1 active torsions:
REMARK  status: ('A' for Active; 'I' for Inactive)
REMARK    1  A    between atoms: O1_1  and  C1_3
ROOT
HETATM    1  C1  UNL     1      58.396  -7.413  57.981  1.00  0.00     0.122 C
HETATM    2  C2  UNL     1      58.929  -6.068  58.464  1.00  0.00     0.032 C
HETATM    3  C3  UNL     1      59.986  -5.587  57.518  1.00  0.00     0.003 C
HETATM    4  C4  UNL     1      59.520  -5.515  56.107  1.00  0.00     0.005 C
HETATM    5  C5  UNL     1      58.646  -6.618  55.662  1.00  0.00    -0.008 C
HETATM    6  C6  UNL     1      59.476  -7.781  55.199  1.00  0.00     0.005 C
HETATM    7  C7  UNL     1      58.591  -8.747  54.498  1.00  0.00     0.000 C
HETATM    8  C8  UNL     1      57.359  -9.138  55.230  1.00  0.00     0.000 C
HETATM    9  C9  UNL     1      56.808  -8.191  56.203  1.00  0.00     0.007 C
HETATM   10  C10 UNL     1      57.662  -7.089  56.673  1.00  0.00     0.018 C
ENDROOT
BRANCH   1  11
HETATM   11  O1  UNL     1      57.508  -7.863  58.939  1.00  0.00    -0.395 OA
ATOM     12  H1  UNL     1      56.823  -8.335  58.483  1.00  0.00     0.210 HD
ENDBRANCH   1  11
TORSDOF 1
ENDMDL