MODEL 2
REMARK VINA RESULT: -7.971444200      3.552      6.673
REMARK  12 active torsions:
REMARK  status: ('A' for Active; 'I' for Inactive)
REMARK    1  A    between atoms: C2_2  and  C3_3
REMARK    2  A    between atoms: C3_3  and  C4_4
REMARK    3  A    between atoms: C4_4  and  N1_5
REMARK    4  A    between atoms: C4_4  and  C7_9
REMARK    5  A    between atoms: N1_5  and  C5_7
REMARK    6  A    between atoms: C7_9  and  O2_11
REMARK    7  A    between atoms: O2_11  and  C8_12
REMARK    8  A    between atoms: N2_15  and  C10_16
REMARK    9  A    between atoms: C10_16  and  C11_17
REMARK   10  A    between atoms: C25_31  and  O4_32
REMARK   11  A    between atoms: C27_35  and  C28_36
REMARK   12  A    between atoms: C28_36  and  O5_39
ROOT
HETATM    1  C8  UNL     1      36.191  29.789  28.202  1.00  0.00     0.233 C
HETATM    2  C9  UNL     1      35.024  30.594  27.719  1.00  0.00     0.250 C
HETATM    3  O3  UNL     1      33.903  30.353  28.150  1.00  0.00    -0.270 OA
HETATM    4  N2  UNL     1      35.244  31.617  26.773  1.00  0.00    -0.349 N
HETATM    5  C15 UNL     1      36.540  32.299  26.687  1.00  0.00     0.131 C
HETATM    6  C16 UNL     1      37.654  31.265  26.912  1.00  0.00     0.015 C
HETATM    7  C17 UNL     1      38.965  31.998  26.794  1.00  0.00     0.012 C
HETATM    8  C18 UNL     1      40.100  31.153  27.313  1.00  0.00    -0.002 C
HETATM    9  C19 UNL     1      39.805  30.748  28.705  1.00  0.00    -0.005 C
HETATM   10  C20 UNL     1      40.995  30.126  29.365  1.00  0.00     0.006 C
HETATM   11  C21 UNL     1      42.184  31.046  29.379  1.00  0.00     0.010 C
HETATM   12  C22 UNL     1      42.194  32.125  28.379  1.00  0.00    -0.031 C
HETATM   13  C23 UNL     1      41.663  33.450  28.863  1.00  0.00     0.016 C
HETATM   14  C24 UNL     1      41.434  31.782  27.104  1.00  0.00     0.027 C
HETATM   15  C25 UNL     1      42.413  30.963  26.309  1.00  0.00     0.123 C
HETATM   16  C26 UNL     1      43.778  31.131  26.995  1.00  0.00     0.040 C
HETATM   17  C27 UNL     1      43.536  32.406  27.756  1.00  0.00     0.030 C
HETATM   18  C31 UNL     1      38.621  29.797  28.683  1.00  0.00    -0.003 C
HETATM   19  C32 UNL     1      38.857  28.611  27.816  1.00  0.00     0.011 C
HETATM   20  C33 UNL     1      37.439  30.627  28.235  1.00  0.00     0.000 C
HETATM   21  C34 UNL     1      37.280  31.747  29.263  1.00  0.00     0.019 C
ENDROOT
BRANCH   1  22
HETATM   22  O2  UNL     1      35.883  29.161  29.426  1.00  0.00    -0.301 OA
BRANCH  22  23
HETATM   23  C7  UNL     1      35.464  27.867  29.607  1.00  0.00     0.306 C
HETATM   24  O1  UNL     1      35.902  27.023  28.755  1.00  0.00    -0.258 OA
BRANCH  23  25
HETATM   25  C4  UNL     1      34.561  27.446  30.708  1.00  0.00     0.084 C
BRANCH  25  26
HETATM   26  C3  UNL     1      33.198  28.027  30.666  1.00  0.00     0.063 C
BRANCH  26  27
HETATM   27  C2  UNL     1      33.122  29.227  31.604  1.00  0.00     0.002 C
HETATM   28  C1  UNL     1      33.405  28.905  33.029  1.00  0.00     0.005 C
ENDBRANCH  26  27
ENDBRANCH  25  26
BRANCH  25  29
HETATM   29  N1  UNL     1      34.735  26.098  31.030  1.00  0.00    -0.368 N
ATOM     30  H1  UNL     1      35.186  25.480  30.356  1.00  0.00     0.165 HD
BRANCH  29  31
HETATM   31  C5  UNL     1      34.307  25.572  32.259  1.00  0.00     0.057 C
HETATM   32  C6  UNL     1      32.969  24.878  32.289  1.00  0.00     0.054 C
ENDBRANCH  29  31
ENDBRANCH  25  29
ENDBRANCH  23  25
ENDBRANCH  22  23
ENDBRANCH   1  22
BRANCH   4  33
HETATM   33  C10 UNL     1      34.218  32.038  25.846  1.00  0.00     0.131 C
BRANCH  33  34
HETATM   34  C11 UNL     1      34.931  32.311  24.523  1.00  0.00     0.012 A
HETATM   35  C12 UNL     1      34.023  32.192  23.291  1.00  0.00    -0.004 A
HETATM   36  C13 UNL     1      33.870  30.771  22.804  1.00  0.00     0.011 A
HETATM   37  C14 UNL     1      35.112  31.242  23.534  1.00  0.00    -0.004 A
ENDBRANCH  33  34
ENDBRANCH   4  33
BRANCH  15  38
HETATM   38  O4  UNL     1      42.069  29.650  26.130  1.00  0.00    -0.395 OA
ATOM     39  H4  UNL     1      42.474  29.221  25.385  1.00  0.00     0.210 HD
ENDBRANCH  15  38
BRANCH  17  40
HETATM   40  C28 UNL     1      44.625  32.898  28.590  1.00  0.00     0.055 C
HETATM   41  C29 UNL     1      45.306  34.044  27.802  1.00  0.00     0.045 C
HETATM   42  C30 UNL     1      45.742  31.909  28.833  1.00  0.00     0.045 C
BRANCH  40  43
HETATM   43  O5  UNL     1      44.273  33.439  29.805  1.00  0.00    -0.390 OA
ATOM     44  H5  UNL     1      44.752  34.213  30.081  1.00  0.00     0.210 HD
ENDBRANCH  40  43
ENDBRANCH  17  40
TORSDOF 12
ENDMDL