MODEL 1
REMARK VINA RESULT: -8.132964617      0.000      0.000
REMARK  14 active torsions:
REMARK  status: ('A' for Active; 'I' for Inactive)
REMARK    1  A    between atoms: C2_2  and  N1_3
REMARK    2  A    between atoms: N1_3  and  C3_4
REMARK    3  A    between atoms: N1_3  and  C5_6
REMARK    4  A    between atoms: C5_6  and  C6_7
REMARK    5  A    between atoms: C6_7  and  N2_8
REMARK    6  A    between atoms: N2_8  and  C8_10
REMARK    7  A    between atoms: C8_10  and  O1_11
REMARK    8  A    between atoms: C8_10  and  C9_13
REMARK    9  A    between atoms: C12_16  and  O2_17
REMARK   10  A    between atoms: C20_26  and  O3_27
REMARK   11  A    between atoms: C21_29  and  C22_30
REMARK   12  A    between atoms: C22_30  and  O4_32
REMARK   13  A    between atoms: C22_30  and  C24_34
REMARK   14  A    between atoms: C24_34  and  O5_35
ROOT
HETATM    1  C9  UNL     1      35.730  31.772  26.259  1.00  0.00     0.028 C
HETATM    2  C10 UNL     1      36.405  31.713  24.896  1.00  0.00     0.025 C
HETATM    3  C11 UNL     1      34.492  30.962  26.080  1.00  0.00     0.050 C
HETATM    4  C12 UNL     1      33.776  30.518  27.290  1.00  0.00     0.123 C
HETATM    5  C13 UNL     1      34.589  29.345  27.814  1.00  0.00     0.019 C
HETATM    6  C14 UNL     1      33.642  28.269  28.138  1.00  0.00     0.008 C
HETATM    7  C15 UNL     1      33.228  28.220  29.604  1.00  0.00     0.010 C
HETATM    8  C16 UNL     1      34.285  28.385  30.600  1.00  0.00    -0.031 C
HETATM    9  C17 UNL     1      33.999  29.660  31.409  1.00  0.00     0.016 C
HETATM   10  C18 UNL     1      35.646  28.762  29.914  1.00  0.00     0.002 C
HETATM   11  C19 UNL     1      36.228  27.483  29.463  1.00  0.00     0.038 C
HETATM   12  C20 UNL     1      35.608  26.464  30.429  1.00  0.00     0.126 C
HETATM   13  C21 UNL     1      34.777  27.264  31.398  1.00  0.00     0.059 C
HETATM   14  C26 UNL     1      35.439  29.864  28.930  1.00  0.00     0.005 C
HETATM   15  C27 UNL     1      36.578  30.722  28.543  1.00  0.00    -0.035 C
HETATM   16  C28 UNL     1      36.785  31.729  29.691  1.00  0.00     0.016 C
HETATM   17  C29 UNL     1      37.871  29.864  28.771  1.00  0.00     0.014 C
HETATM   18  C30 UNL     1      39.119  30.710  28.621  1.00  0.00    -0.018 C
HETATM   19  C31 UNL     1      40.274  29.697  28.712  1.00  0.00     0.010 C
HETATM   20  C32 UNL     1      39.242  31.371  27.323  1.00  0.00     0.005 C
HETATM   21  C33 UNL     1      37.943  32.106  27.038  1.00  0.00     0.007 C
HETATM   22  C34 UNL     1      36.739  31.209  27.193  1.00  0.00     0.010 C
ENDROOT
BRANCH   1  23
HETATM   23  C8  UNL     1      35.317  33.170  26.505  1.00  0.00     0.122 C
BRANCH  23  24
HETATM   24  N2  UNL     1      35.192  34.275  25.677  1.00  0.00    -0.367 N
HETATM   25  C7  UNL     1      33.866  34.417  24.980  1.00  0.00     0.151 C
BRANCH  24  26
HETATM   26  C6  UNL     1      36.092  35.339  25.363  1.00  0.00     0.154 C
BRANCH  26  27
HETATM   27  C5  UNL     1      36.742  35.243  24.022  1.00  0.00     0.292 C
BRANCH  27  28
HETATM   28  N1  UNL     1      38.145  35.488  23.997  1.00  0.00     0.089 N
BRANCH  28  29
HETATM   29  C2  UNL     1      38.506  35.810  22.595  1.00  0.00     0.268 C
HETATM   30  C1  UNL     1      39.660  36.737  22.471  1.00  0.00     0.037 C
ENDBRANCH  28  29
BRANCH  28  31
HETATM   31  C3  UNL     1      38.981  34.462  24.483  1.00  0.00     0.268 C
HETATM   32  C4  UNL     1      39.312  33.309  23.601  1.00  0.00     0.037 C
ENDBRANCH  28  31
ENDBRANCH  27  28
ENDBRANCH  26  27
ENDBRANCH  24  26
ENDBRANCH  23  24
BRANCH  23  33
HETATM   33  O1  UNL     1      34.980  33.480  27.733  1.00  0.00    -0.349 OA
ATOM     34  H1  UNL     1      34.479  32.775  28.126  1.00  0.00     0.219 HD
ENDBRANCH  23  33
ENDBRANCH   1  23
BRANCH   4  35
HETATM   35  O2  UNL     1      33.485  31.479  28.211  1.00  0.00    -0.395 OA
ATOM     36  H2  UNL     1      33.889  31.384  29.065  1.00  0.00     0.210 HD
ENDBRANCH   4  35
BRANCH  13  37
HETATM   37  C22 UNL     1      34.186  26.480  32.427  1.00  0.00     0.082 C
HETATM   38  C23 UNL     1      34.064  27.098  33.809  1.00  0.00     0.049 C
BRANCH  37  39
HETATM   39  O4  UNL     1      35.195  25.466  32.702  1.00  0.00    -0.388 OA
ATOM     40  H4  UNL     1      34.745  24.650  32.515  1.00  0.00     0.210 HD
ENDBRANCH  37  39
BRANCH  37  41
HETATM   41  C24 UNL     1      32.985  25.613  32.294  1.00  0.00     0.204 C
BRANCH  41  42
HETATM   42  O5  UNL     1      33.012  24.386  32.878  1.00  0.00    -0.393 OA
HETATM   43  C25 UNL     1      32.160  24.164  33.909  1.00  0.00     0.201 C
ENDBRANCH  41  42
ENDBRANCH  37  41
ENDBRANCH  13  37
BRANCH  12  44
HETATM   44  O3  UNL     1      35.016  25.513  29.709  1.00  0.00    -0.395 OA
ATOM     45  H3  UNL     1      34.485  24.985  30.293  1.00  0.00     0.210 HD
ENDBRANCH  12  44
TORSDOF 14
ENDMDL