MODEL 3
REMARK VINA RESULT: -8.066179426      1.240      1.477
REMARK  11 active torsions:
REMARK  status: ('A' for Active; 'I' for Inactive)
REMARK    1  A    between atoms: C2_2  and  C3_3
REMARK    2  A    between atoms: C3_3  and  C4_4
REMARK    3  A    between atoms: C4_4  and  N1_5
REMARK    4  A    between atoms: N1_5  and  C5_6
REMARK    5  A    between atoms: N1_5  and  C8_9
REMARK    6  A    between atoms: C5_6  and  C6_7
REMARK    7  A    between atoms: C17_19  and  O2_20
REMARK    8  A    between atoms: C23_27  and  C24_28
REMARK    9  A    between atoms: C24_28  and  O3_31
REMARK   10  A    between atoms: C29_35  and  N2_37
REMARK   11  A    between atoms: N2_37  and  S1_39
ROOT
HETATM    1  C8  UNL     1      36.320  28.429  28.958  1.00  0.00     0.095 C
HETATM    2  C9  UNL     1      37.746  28.073  28.886  1.00  0.00     0.104 C
HETATM    3  C10 UNL     1      38.374  28.844  27.747  1.00  0.00     0.140 C
HETATM    4  O1  UNL     1      38.951  28.177  26.952  1.00  0.00    -0.297 OA
HETATM    5  C11 UNL     1      38.179  30.305  27.795  1.00  0.00     0.046 C
HETATM    6  C12 UNL     1      38.842  30.770  29.100  1.00  0.00     0.026 C
HETATM    7  C13 UNL     1      36.713  30.596  27.826  1.00  0.00     0.010 C
HETATM    8  C14 UNL     1      36.108  29.916  29.035  1.00  0.00     0.032 C
HETATM    9  C15 UNL     1      36.448  32.052  27.813  1.00  0.00    -0.002 C
HETATM   10  C16 UNL     1      35.055  32.519  27.995  1.00  0.00     0.038 C
HETATM   11  C17 UNL     1      34.163  32.113  26.843  1.00  0.00     0.127 C
HETATM   12  C18 UNL     1      34.676  32.413  25.480  1.00  0.00    -0.008 C
HETATM   13  C19 UNL     1      34.225  31.154  24.645  1.00  0.00     0.019 C
HETATM   14  C20 UNL     1      36.155  32.373  25.353  1.00  0.00     0.001 C
HETATM   15  C21 UNL     1      36.408  33.236  24.160  1.00  0.00     0.006 C
HETATM   16  C22 UNL     1      35.046  33.479  23.512  1.00  0.00     0.009 C
HETATM   17  C23 UNL     1      34.085  33.515  24.717  1.00  0.00     0.030 C
HETATM   18  C27 UNL     1      36.967  32.670  26.559  1.00  0.00    -0.003 C
HETATM   19  C28 UNL     1      38.409  32.408  26.439  1.00  0.00     0.038 C
HETATM   20  C29 UNL     1      38.929  31.049  26.690  1.00  0.00     0.051 C
HETATM   21  C30 UNL     1      38.937  30.252  25.383  1.00  0.00     0.040 C
ENDROOT
BRANCH   1  22
HETATM   22  N1  UNL     1      35.498  27.688  29.877  1.00  0.00    -0.369 N
BRANCH  22  23
HETATM   23  C4  UNL     1      34.133  27.786  29.729  1.00  0.00     0.063 C
BRANCH  23  24
HETATM   24  C3  UNL     1      33.255  28.556  30.613  1.00  0.00     0.044 C
BRANCH  24  25
HETATM   25  C2  UNL     1      33.875  29.367  31.705  1.00  0.00     0.001 C
HETATM   26  C1  UNL     1      33.401  28.839  33.074  1.00  0.00     0.005 C
ENDBRANCH  24  25
ENDBRANCH  23  24
ENDBRANCH  22  23
BRANCH  22  27
HETATM   27  C5  UNL     1      36.146  26.710  30.612  1.00  0.00     0.063 C
BRANCH  27  28
HETATM   28  C6  UNL     1      35.317  25.591  31.130  1.00  0.00     0.040 C
HETATM   29  C7  UNL     1      34.837  25.664  32.538  1.00  0.00     0.010 C
ENDBRANCH  27  28
ENDBRANCH  22  27
ENDBRANCH   1  22
BRANCH  20  30
HETATM   30  N2  UNL     1      40.284  31.122  27.125  1.00  0.00    -0.309 N
ATOM     31  H2  UNL     1      40.491  31.006  28.117  1.00  0.00     0.173 HD
BRANCH  30  32
HETATM   32  S1  UNL     1      41.535  31.389  26.071  1.00  0.00     0.223 S
HETATM   33  C31 UNL     1      42.365  29.956  25.432  1.00  0.00     0.185 C
HETATM   34  O4  UNL     1      42.622  32.121  26.871  1.00  0.00    -0.206 OA
HETATM   35  O5  UNL     1      41.269  32.291  24.911  1.00  0.00    -0.206 OA
ENDBRANCH  30  32
ENDBRANCH  20  30
BRANCH  11  36
HETATM   36  O2  UNL     1      32.841  32.453  27.043  1.00  0.00    -0.395 OA
ATOM     37  H2  UNL     1      32.735  33.306  27.447  1.00  0.00     0.210 HD
ENDBRANCH  11  36
BRANCH  17  38
HETATM   38  C24 UNL     1      33.876  34.877  25.089  1.00  0.00     0.055 C
HETATM   39  C25 UNL     1      33.499  35.650  23.790  1.00  0.00     0.045 C
HETATM   40  C26 UNL     1      35.034  35.750  25.539  1.00  0.00     0.045 C
BRANCH  38  41
HETATM   41  O3  UNL     1      32.827  35.183  25.930  1.00  0.00    -0.390 OA
ATOM     42  H3  UNL     1      32.826  36.023  26.375  1.00  0.00     0.210 HD
ENDBRANCH  38  41
ENDBRANCH  17  38
TORSDOF 11
ENDMDL