MODEL 2
REMARK VINA RESULT: -8.476109613      5.262      9.446
REMARK  13 active torsions:
REMARK  status: ('A' for Active; 'I' for Inactive)
REMARK    1  A    between atoms: C2_2  and  C3_3
REMARK    2  A    between atoms: C3_3  and  C4_4
REMARK       I    between atoms: C4_4  and  N1_6
REMARK    3  A    between atoms: N1_6  and  C5_8
REMARK    4  A    between atoms: C8_13  and  C9_14
REMARK    5  A    between atoms: C9_14  and  C10_15
REMARK    6  A    between atoms: C10_15  and  C11_16
REMARK    7  A    between atoms: C11_16  and  C12_17
REMARK    8  A    between atoms: C12_17  and  C13_18
REMARK    9  A    between atoms: C14_23  and  N5_24
REMARK       I    between atoms: N5_24  and  C15_26
REMARK   10  A    between atoms: C15_26  and  C16_28
REMARK   11  A    between atoms: C16_28  and  C17_29
REMARK   12  A    between atoms: C16_28  and  C24_36
REMARK   13  A    between atoms: C28_42  and  C29_43
ROOT
HETATM    1  C13 UNL     1      36.106  26.669  30.328  1.00  0.00     0.058 A
HETATM    2  N3  UNL     1      36.742  27.394  29.347  1.00  0.00    -0.288 N
ATOM      3  H3  UNL     1      37.557  26.984  28.891  1.00  0.00     0.187 HD
HETATM    4  N4  UNL     1      36.349  28.593  28.968  1.00  0.00    -0.132 N
ATOM      5  H4  UNL     1      36.868  29.074  28.234  1.00  0.00     0.205 HD
HETATM    6  C14 UNL     1      35.291  29.196  29.517  1.00  0.00     0.700 A
HETATM    7  N6  UNL     1      34.665  28.482  30.479  1.00  0.00    -0.183 N
ATOM      8  H6  UNL     1      33.852  28.911  30.920  1.00  0.00     0.184 HD
HETATM    9  C28 UNL     1      35.023  27.244  30.911  1.00  0.00     0.138 A
ENDROOT
BRANCH   1  10
HETATM   10  C12 UNL     1      36.671  25.359  30.718  1.00  0.00     0.061 C
BRANCH  10  11
HETATM   11  C11 UNL     1      37.927  25.112  29.922  1.00  0.00     0.006 C
BRANCH  11  12
HETATM   12  C10 UNL     1      38.186  23.656  29.686  1.00  0.00     0.006 C
BRANCH  12  13
HETATM   13  C9  UNL     1      37.067  23.136  28.774  1.00  0.00     0.048 C
BRANCH  13  14
HETATM   14  C8  UNL     1      37.723  22.098  27.893  1.00  0.00     0.008 A
HETATM   15  C6  UNL     1      37.852  20.754  28.134  1.00  0.00     0.020 A
HETATM   16  N2  UNL     1      38.452  20.032  27.230  1.00  0.00    -0.339 N
HETATM   17  C7  UNL     1      37.300  20.177  29.432  1.00  0.00     0.069 C
HETATM   18  C5  UNL     1      38.904  20.628  26.131  1.00  0.00     0.151 A
ATOM     19  H2  UNL     1      38.572  19.028  27.363  1.00  0.00     0.168 HD
HETATM   20  S1  UNL     1      38.475  22.261  26.372  1.00  0.00    -0.057 SA
BRANCH  18  21
HETATM   21  N1  UNL     1      39.529  20.070  25.111  1.00  0.00    -0.307 N
HETATM   22  C4  UNL     1      40.521  19.117  25.383  1.00  0.00     0.223 C
HETATM   23  O1  UNL     1      40.180  18.006  25.851  1.00  0.00    -0.273 OA
ATOM     24  H1  UNL     1      39.297  20.325  24.151  1.00  0.00     0.171 HD
BRANCH  22  25
HETATM   25  C3  UNL     1      41.939  19.438  25.117  1.00  0.00     0.103 C
BRANCH  25  26
HETATM   26  C2  UNL     1      42.668  19.519  26.442  1.00  0.00     0.005 C
HETATM   27  C1  UNL     1      42.530  20.919  26.987  1.00  0.00     0.005 C
ENDBRANCH  25  26
ENDBRANCH  22  25
ENDBRANCH  18  21
ENDBRANCH  13  14
ENDBRANCH  12  13
ENDBRANCH  11  12
ENDBRANCH  10  11
ENDBRANCH   1  10
BRANCH   9  28
HETATM   28  C29 UNL     1      34.219  26.591  31.916  1.00  0.00     0.284 C
HETATM   29  N7  UNL     1      33.648  25.333  31.858  1.00  0.00    -0.056 NA
HETATM   30  O3  UNL     1      33.997  27.257  32.999  1.00  0.00    -0.269 OA
ENDBRANCH   9  28
BRANCH   6  31
HETATM   31  N5  UNL     1      34.917  30.345  29.180  1.00  0.00    -0.158 N
HETATM   32  C15 UNL     1      35.618  31.480  28.936  1.00  0.00     0.241 C
HETATM   33  O2  UNL     1      36.653  31.835  29.617  1.00  0.00    -0.272 OA
ATOM     34  H5  UNL     1      33.908  30.443  29.070  1.00  0.00     0.187 HD
BRANCH  32  35
HETATM   35  C16 UNL     1      35.276  32.477  27.835  1.00  0.00     0.090 C
BRANCH  35  36
HETATM   36  C17 UNL     1      35.221  31.656  26.594  1.00  0.00     0.003 C
HETATM   37  C18 UNL     1      34.465  32.122  25.434  1.00  0.00     0.006 C
HETATM   38  C19 UNL     1      35.226  33.041  24.479  1.00  0.00     0.005 C
HETATM   39  C20 UNL     1      36.634  32.533  24.344  1.00  0.00    -0.014 C
HETATM   40  C21 UNL     1      37.296  32.802  25.704  1.00  0.00     0.010 C
HETATM   41  C23 UNL     1      36.774  31.058  24.711  1.00  0.00     0.010 C
HETATM   42  C22 UNL     1      36.693  31.492  26.158  1.00  0.00    -0.009 C
ENDBRANCH  35  36
BRANCH  35  43
HETATM   43  C24 UNL     1      33.999  33.124  28.284  1.00  0.00    -0.039 C
HETATM   44  C25 UNL     1      34.294  33.598  29.723  1.00  0.00     0.015 C
HETATM   45  C26 UNL     1      33.712  34.437  27.558  1.00  0.00     0.015 C
HETATM   46  C27 UNL     1      32.804  32.241  28.346  1.00  0.00     0.015 C
ENDBRANCH  35  43
ENDBRANCH  32  35
ENDBRANCH   6  31
TORSDOF 13
ENDMDL