MODEL 4
REMARK VINA RESULT: -9.235970536      1.309      1.708
REMARK  12 active torsions:
REMARK  status: ('A' for Active; 'I' for Inactive)
REMARK    1  A    between atoms: C3_3  and  C4_4
REMARK    2  A    between atoms: C4_4  and  C5_5
REMARK    3  A    between atoms: C5_5  and  C6_6
REMARK    4  A    between atoms: C8_8  and  O1_9
REMARK    5  A    between atoms: C10_12  and  O2_13
REMARK    6  A    between atoms: O2_13  and  C11_14
REMARK    7  A    between atoms: C11_14  and  C12_16
REMARK    8  A    between atoms: C12_16  and  C14_18
REMARK    9  A    between atoms: C14_18  and  N1_19
REMARK   10  A    between atoms: C17_22  and  C18_23
REMARK   11  A    between atoms: C18_23  and  C19_24
REMARK   12  A    between atoms: C27_38  and  C28_39
ROOT
HETATM    1  C6  UNL     1      36.532  32.659  24.147  1.00  0.00     0.006 C
HETATM    2  C7  UNL     1      35.119  32.038  24.301  1.00  0.00     0.046 C
HETATM    3  C8  UNL     1      34.881  32.054  25.783  1.00  0.00     0.087 C
HETATM    4  C9  UNL     1      34.538  30.668  26.312  1.00  0.00     0.075 C
HETATM    5  C10 UNL     1      34.480  30.675  27.825  1.00  0.00     0.158 C
HETATM    6  C25 UNL     1      35.268  31.816  28.380  1.00  0.00     0.200 C
HETATM    7  O5  UNL     1      36.444  31.928  27.590  1.00  0.00    -0.380 OA
HETATM    8  C26 UNL     1      36.194  32.524  26.396  1.00  0.00     0.160 C
HETATM    9  C27 UNL     1      37.196  32.054  25.285  1.00  0.00     0.028 C
ENDROOT
BRANCH   5  10
HETATM   10  O2  UNL     1      33.147  30.587  28.268  1.00  0.00    -0.313 OA
BRANCH  10  11
HETATM   11  C11 UNL     1      32.810  30.509  29.626  1.00  0.00     0.264 C
HETATM   12  O3  UNL     1      31.943  31.224  30.057  1.00  0.00    -0.265 OA
BRANCH  11  13
HETATM   13  C12 UNL     1      33.574  29.543  30.429  1.00  0.00     0.100 C
HETATM   14  C13 UNL     1      33.591  29.829  31.891  1.00  0.00     0.022 C
BRANCH  13  15
HETATM   15  C14 UNL     1      33.214  28.095  30.157  1.00  0.00     0.142 C
BRANCH  15  16
HETATM   16  N1  UNL     1      34.431  27.286  30.096  1.00  0.00    -0.366 N
HETATM   17  C15 UNL     1      34.781  26.447  31.055  1.00  0.00     0.091 A
HETATM   18  C16 UNL     1      35.952  25.740  30.965  1.00  0.00     0.024 A
HETATM   19  C17 UNL     1      36.788  25.893  29.873  1.00  0.00    -0.052 A
HETATM   20  C23 UNL     1      36.397  26.773  28.893  1.00  0.00     0.024 A
HETATM   21  C24 UNL     1      35.216  27.463  29.016  1.00  0.00     0.091 A
BRANCH  19  22
HETATM   22  C18 UNL     1      38.044  25.152  29.742  1.00  0.00     0.085 C
BRANCH  22  23
HETATM   23  C19 UNL     1      37.734  23.657  29.671  1.00  0.00     0.188 A
HETATM   24  N2  UNL     1      38.917  22.948  29.270  1.00  0.00    -0.368 N
HETATM   25  C20 UNL     1      38.791  22.396  28.135  1.00  0.00     0.071 A
ATOM     26  H2  UNL     1      39.765  22.893  29.835  1.00  0.00     0.161 HD
HETATM   27  C21 UNL     1      39.808  21.602  27.436  1.00  0.00     0.074 C
HETATM   28  C22 UNL     1      37.426  22.651  27.648  1.00  0.00     0.265 A
HETATM   29  O4  UNL     1      36.956  22.250  26.540  1.00  0.00    -0.266 OA
HETATM   30  N3  UNL     1      36.777  23.407  28.628  1.00  0.00    -0.335 N
ATOM     31  H3  UNL     1      35.807  23.722  28.607  1.00  0.00     0.164 HD
ENDBRANCH  22  23
ENDBRANCH  19  22
ENDBRANCH  15  16
ENDBRANCH  13  15
ENDBRANCH  11  13
ENDBRANCH  10  11
ENDBRANCH   5  10
BRANCH   3  32
HETATM   32  O1  UNL     1      33.882  32.978  26.057  1.00  0.00    -0.387 OA
ATOM     33  H1  UNL     1      33.437  33.188  25.245  1.00  0.00     0.210 HD
ENDBRANCH   3  32
BRANCH   1  34
HETATM   34  C5  UNL     1      36.475  34.014  23.732  1.00  0.00     0.090 C
BRANCH  34  35
HETATM   35  C4  UNL     1      37.199  35.017  23.379  1.00  0.00    -0.156 C
BRANCH  35  36
HETATM   36  C3  UNL     1      37.920  36.107  23.048  1.00  0.00     0.046 C
HETATM   37  C2  UNL     1      39.162  36.274  22.598  1.00  0.00    -0.023 C
HETATM   38  C1  UNL     1      40.176  35.282  22.303  1.00  0.00     0.036 C
ENDBRANCH  35  36
ENDBRANCH  34  35
ENDBRANCH   1  34
BRANCH   9  39
HETATM   39  C28 UNL     1      38.545  32.382  25.730  1.00  0.00     0.010 A
HETATM   40  C29 UNL     1      39.394  31.218  26.154  1.00  0.00    -0.036 A
HETATM   41  C30 UNL     1      39.999  31.293  27.538  1.00  0.00     0.016 C
HETATM   42  C31 UNL     1      39.220  29.823  25.651  1.00  0.00     0.016 C
HETATM   43  C32 UNL     1      39.836  32.214  25.108  1.00  0.00    -0.036 A
HETATM   44  C33 UNL     1      40.012  31.795  23.667  1.00  0.00     0.016 C
HETATM   45  C34 UNL     1      41.007  33.072  25.576  1.00  0.00     0.016 C
ENDBRANCH   9  39
TORSDOF 12
ENDMDL