MODEL 2
REMARK VINA RESULT: -8.858383472      1.266      2.287
REMARK  16 active torsions:
REMARK  status: ('A' for Active; 'I' for Inactive)
REMARK    1  A    between atoms: O1_2  and  C2_3
REMARK    2  A    between atoms: C2_3  and  O2_4
REMARK    3  A    between atoms: C2_3  and  N1_6
REMARK    4  A    between atoms: N1_6  and  C3_7
REMARK    5  A    between atoms: N1_6  and  C8_13
REMARK    6  A    between atoms: C3_7  and  C4_8
REMARK    7  A    between atoms: C4_8  and  C5_9
REMARK    8  A    between atoms: C5_9  and  N2_10
REMARK    9  A    between atoms: C8_13  and  C9_14
REMARK   10  A    between atoms: C9_14  and  N3_15
REMARK   11  A    between atoms: N3_15  and  C10_17
REMARK   12  A    between atoms: C11_20  and  N5_21
REMARK   13  A    between atoms: N5_21  and  C12_23
REMARK   14  A    between atoms: C12_23  and  C13_24
REMARK   15  A    between atoms: C17_30  and  N7_31
REMARK   16  A    between atoms: N7_31  and  C18_33
ROOT
HETATM    1  C10 UNL     1      36.959  31.451  24.126  1.00  0.00     0.707 A
HETATM    2  N4  UNL     1      37.448  32.680  23.975  1.00  0.00    -0.022 N
ATOM      3  H4  UNL     1      37.119  33.253  23.197  1.00  0.00     0.203 HD
HETATM    4  C11 UNL     1      38.368  33.191  24.823  1.00  0.00     0.707 A
HETATM    5  N6  UNL     1      38.778  32.412  25.834  1.00  0.00    -0.021 N
ATOM      6  H6  UNL     1      39.472  32.769  26.491  1.00  0.00     0.203 HD
HETATM    7  C17 UNL     1      38.292  31.173  25.996  1.00  0.00     0.711 A
HETATM    8  N8  UNL     1      37.385  30.696  25.145  1.00  0.00    -0.021 N
ATOM      9  H8  UNL     1      37.015  29.753  25.269  1.00  0.00     0.203 HD
ENDROOT
BRANCH   7  10
HETATM   10  N7  UNL     1      38.738  30.494  26.988  1.00  0.00    -0.191 N
ATOM     11  H7  UNL     1      39.726  30.613  27.210  1.00  0.00     0.184 HD
BRANCH  10  12
HETATM   12  C18 UNL     1      38.018  29.602  27.803  1.00  0.00     0.049 A
HETATM   13  C19 UNL     1      38.529  28.384  28.197  1.00  0.00     0.031 A
HETATM   14  C20 UNL     1      37.838  27.509  28.997  1.00  0.00     0.015 A
HETATM   15  C21 UNL     1      36.554  27.841  29.448  1.00  0.00    -0.018 A
HETATM   16  C22 UNL     1      36.017  29.042  29.076  1.00  0.00    -0.032 A
HETATM   17  C32 UNL     1      35.605  27.125  30.288  1.00  0.00    -0.018 A
HETATM   18  C23 UNL     1      36.755  29.919  28.253  1.00  0.00     0.039 A
HETATM   19  C24 UNL     1      34.679  29.155  29.674  1.00  0.00     0.008 A
HETATM   20  C25 UNL     1      34.732  30.337  30.634  1.00  0.00     0.025 C
HETATM   21  C26 UNL     1      33.600  29.361  28.631  1.00  0.00     0.025 C
HETATM   22  C27 UNL     1      34.482  27.904  30.425  1.00  0.00    -0.035 A
HETATM   23  C28 UNL     1      33.446  27.390  31.199  1.00  0.00     0.009 A
HETATM   24  C29 UNL     1      33.558  26.155  31.795  1.00  0.00     0.001 A
HETATM   25  C30 UNL     1      34.687  25.368  31.660  1.00  0.00     0.001 A
HETATM   26  C31 UNL     1      35.710  25.872  30.897  1.00  0.00     0.013 A
ENDBRANCH  10  12
ENDBRANCH   7  10
BRANCH   4  27
HETATM   27  N5  UNL     1      38.789  34.382  24.605  1.00  0.00    -0.224 N
ATOM     28  H5  UNL     1      38.180  35.169  24.826  1.00  0.00     0.177 HD
BRANCH  27  29
HETATM   29  C12 UNL     1      40.088  34.641  24.059  1.00  0.00     0.146 C
BRANCH  29  30
HETATM   30  C13 UNL     1      39.958  35.381  22.745  1.00  0.00    -0.035 C
HETATM   31  C14 UNL     1      41.138  36.307  22.575  1.00  0.00     0.016 C
HETATM   32  C15 UNL     1      38.708  36.230  22.806  1.00  0.00     0.016 C
HETATM   33  C16 UNL     1      39.874  34.355  21.642  1.00  0.00     0.016 C
ENDBRANCH  29  30
ENDBRANCH  27  29
ENDBRANCH   4  27
BRANCH   1  34
HETATM   34  N3  UNL     1      36.091  30.930  23.338  1.00  0.00    -0.224 N
ATOM     35  H3  UNL     1      36.390  30.487  22.469  1.00  0.00     0.177 HD
BRANCH  34  36
HETATM   36  C9  UNL     1      34.700  30.972  23.680  1.00  0.00     0.158 C
BRANCH  36  37
HETATM   37  C8  UNL     1      33.987  32.216  23.300  1.00  0.00     0.147 C
BRANCH  37  38
HETATM   38  N1  UNL     1      33.738  33.025  24.502  1.00  0.00    -0.340 N
BRANCH  38  39
HETATM   39  C2  UNL     1      33.190  34.294  24.291  1.00  0.00     0.259 C
BRANCH  39  40
HETATM   40  O1  UNL     1      33.762  35.402  23.746  1.00  0.00    -0.322 OA
HETATM   41  C1  UNL     1      35.147  35.582  23.715  1.00  0.00     0.213 C
ENDBRANCH  39  40
BRANCH  39  42
HETATM   42  O2  UNL     1      31.951  34.476  24.667  1.00  0.00    -0.327 OA
ATOM     43  H2  UNL     1      31.855  35.114  25.363  1.00  0.00     0.221 HD
ENDBRANCH  39  42
ENDBRANCH  38  39
BRANCH  38  44
HETATM   44  C3  UNL     1      34.119  32.423  25.742  1.00  0.00     0.132 C
BRANCH  44  45
HETATM   45  C4  UNL     1      34.934  33.269  26.661  1.00  0.00     0.064 C
BRANCH  45  46
HETATM   46  C5  UNL     1      34.295  34.059  27.701  1.00  0.00     0.058 C
BRANCH  46  47
HETATM   47  N2  UNL     1      33.635  33.514  28.782  1.00  0.00    -0.402 N
HETATM   48  C6  UNL     1      32.513  32.726  28.821  1.00  0.00     0.148 C
HETATM   49  C7  UNL     1      34.290  33.724  30.072  1.00  0.00     0.148 C
ENDBRANCH  46  47
ENDBRANCH  45  46
ENDBRANCH  44  45
ENDBRANCH  38  44
ENDBRANCH  37  38
ENDBRANCH  36  37
ENDBRANCH  34  36
ENDBRANCH   1  34
TORSDOF 16
ENDMDL