MODEL 5
REMARK VINA RESULT: -8.430569488      2.720      8.323
REMARK  11 active torsions:
REMARK  status: ('A' for Active; 'I' for Inactive)
REMARK    1  A    between atoms: C3_3  and  C5_5
REMARK    2  A    between atoms: C5_5  and  O2_7
REMARK    3  A    between atoms: O2_7  and  C6_8
REMARK    4  A    between atoms: C19_21  and  O3_22
REMARK    5  A    between atoms: O3_22  and  C20_23
REMARK       I    between atoms: C20_23  and  N1_25
REMARK    6  A    between atoms: N1_25  and  C21_27
REMARK    7  A    between atoms: C21_27  and  C23_29
REMARK       I    between atoms: C23_29  and  N2_31
REMARK    8  A    between atoms: N2_31  and  C24_33
REMARK    9  A    between atoms: C24_33  and  C25_34
REMARK   10  A    between atoms: C24_33  and  C32_41
REMARK   11  A    between atoms: C25_34  and  C26_35
REMARK       I    between atoms: C32_41  and  N3_43
ROOT
HETATM    1  C20 UNL     1      39.736  32.033  27.239  1.00  0.00     0.361 C
HETATM    2  O4  UNL     1      40.668  31.275  27.606  1.00  0.00    -0.238 OA
HETATM    3  N1  UNL     1      38.447  31.971  27.853  1.00  0.00    -0.324 N
ATOM      4  H1  UNL     1      37.715  32.604  27.528  1.00  0.00     0.165 HD
ENDROOT
BRANCH   1   5
HETATM    5  O3  UNL     1      39.970  32.919  26.245  1.00  0.00    -0.298 OA
BRANCH   5   6
HETATM    6  C19 UNL     1      38.959  33.505  25.387  1.00  0.00     0.142 C
HETATM    7  C8  UNL     1      38.438  32.331  24.597  1.00  0.00     0.018 C
HETATM    8  C7  UNL     1      37.184  32.539  23.854  1.00  0.00     0.040 C
HETATM    9  C9  UNL     1      39.595  31.835  23.764  1.00  0.00     0.012 C
HETATM   10  C6  UNL     1      36.322  33.700  24.237  1.00  0.00     0.140 C
HETATM   11  C14 UNL     1      36.664  35.013  23.656  1.00  0.00    -0.021 C
HETATM   12  C13 UNL     1      37.852  35.050  22.749  1.00  0.00     0.016 C
HETATM   13  C15 UNL     1      35.513  35.413  22.726  1.00  0.00     0.017 C
HETATM   14  C16 UNL     1      36.707  36.159  24.679  1.00  0.00     0.017 C
HETATM   15  C12 UNL     1      39.196  34.834  23.187  1.00  0.00    -0.007 C
HETATM   16  C11 UNL     1      39.862  33.817  22.237  1.00  0.00     0.010 C
HETATM   17  C17 UNL     1      39.624  34.508  24.557  1.00  0.00     0.020 C
HETATM   18  C10 UNL     1      40.495  32.860  23.213  1.00  0.00    -0.013 C
HETATM   19  C18 UNL     1      41.000  33.885  24.218  1.00  0.00     0.012 C
BRANCH  10  20
HETATM   20  O2  UNL     1      34.968  33.295  23.941  1.00  0.00    -0.311 OA
BRANCH  20  21
HETATM   21  C5  UNL     1      33.934  33.336  24.820  1.00  0.00     0.289 C
HETATM   22  O1  UNL     1      32.778  33.514  24.276  1.00  0.00    -0.260 OA
BRANCH  21  23
HETATM   23  C3  UNL     1      34.076  33.200  26.237  1.00  0.00     0.009 C
HETATM   24  C2  UNL     1      34.263  32.096  26.891  1.00  0.00    -0.018 C
HETATM   25  C1  UNL     1      34.375  30.773  26.246  1.00  0.00     0.036 C
HETATM   26  C4  UNL     1      33.989  34.453  27.087  1.00  0.00     0.054 C
ENDBRANCH  21  23
ENDBRANCH  20  21
ENDBRANCH  10  20
ENDBRANCH   5   6
ENDBRANCH   1   5
BRANCH   3  27
HETATM   27  C21 UNL     1      38.147  31.046  28.914  1.00  0.00     0.174 C
HETATM   28  C22 UNL     1      37.226  31.676  29.954  1.00  0.00     0.042 C
BRANCH  27  29
HETATM   29  C23 UNL     1      37.476  29.851  28.372  1.00  0.00     0.240 C
HETATM   30  O5  UNL     1      37.717  29.452  27.191  1.00  0.00    -0.271 OA
HETATM   31  N2  UNL     1      36.540  29.087  29.121  1.00  0.00    -0.346 N
ATOM     32  H2  UNL     1      36.324  29.380  30.074  1.00  0.00     0.163 HD
BRANCH  31  33
HETATM   33  C24 UNL     1      35.876  27.909  28.591  1.00  0.00     0.180 C
BRANCH  33  34
HETATM   34  C25 UNL     1      34.416  27.885  28.969  1.00  0.00     0.073 C
BRANCH  34  35
HETATM   35  C26 UNL     1      34.163  28.023  30.413  1.00  0.00    -0.056 A
HETATM   36  C27 UNL     1      33.840  29.270  30.912  1.00  0.00     0.007 A
HETATM   37  C28 UNL     1      33.572  29.507  32.244  1.00  0.00     0.001 A
HETATM   38  C29 UNL     1      33.645  28.408  33.083  1.00  0.00     0.000 A
HETATM   39  C30 UNL     1      33.963  27.158  32.614  1.00  0.00     0.001 A
HETATM   40  C31 UNL     1      34.227  26.957  31.263  1.00  0.00     0.007 A
ENDBRANCH  34  35
ENDBRANCH  33  34
BRANCH  33  41
HETATM   41  C32 UNL     1      36.529  26.674  29.001  1.00  0.00     0.240 C
HETATM   42  O6  UNL     1      37.480  26.700  29.835  1.00  0.00    -0.271 OA
HETATM   43  N3  UNL     1      36.109  25.432  28.470  1.00  0.00    -0.364 N
HETATM   44  C33 UNL     1      36.721  24.177  28.837  1.00  0.00     0.149 C
ATOM     45  H3  UNL     1      35.342  25.423  27.798  1.00  0.00     0.161 HD
ENDBRANCH  33  41
ENDBRANCH  31  33
ENDBRANCH  27  29
ENDBRANCH   3  27
TORSDOF 11
ENDMDL