MODEL 4
REMARK VINA RESULT: -8.425390749      2.322      5.916
REMARK  10 active torsions:
REMARK  status: ('A' for Active; 'I' for Inactive)
REMARK    1  A    between atoms: C2_2  and  O1_3
REMARK    2  A    between atoms: O1_3  and  C3_4
REMARK       I    between atoms: C3_4  and  N1_6
REMARK    3  A    between atoms: N1_6  and  C4_8
REMARK    4  A    between atoms: C4_8  and  C5_9
REMARK    5  A    between atoms: C4_8  and  C8_12
REMARK    6  A    between atoms: C11_16  and  N2_17
REMARK       I    between atoms: N2_17  and  C12_19
REMARK    7  A    between atoms: C12_19  and  C13_21
REMARK    8  A    between atoms: C13_21  and  N3_22
REMARK    9  A    between atoms: C13_21  and  C27_40
REMARK       I    between atoms: N3_22  and  C14_24
REMARK       I    between atoms: C14_24  and  N4_26
REMARK   10  A    between atoms: N5_30  and  C18_31
ROOT
HETATM    1  C13 UNL     1      36.028  29.126  28.543  1.00  0.00     0.181 C
ENDROOT
BRANCH   1   2
HETATM    2  C12 UNL     1      37.375  29.609  28.292  1.00  0.00     0.241 C
HETATM    3  N2  UNL     1      38.439  28.976  27.627  1.00  0.00    -0.353 N
ATOM      4  H2  UNL     1      38.297  28.050  27.225  1.00  0.00     0.163 HD
HETATM    5  O3  UNL     1      37.647  30.791  28.748  1.00  0.00    -0.271 OA
BRANCH   3   6
HETATM    6  C11 UNL     1      39.758  29.623  27.499  1.00  0.00     0.100 C
HETATM    7  C8  UNL     1      40.382  29.338  26.208  1.00  0.00     0.042 C
HETATM    8  C9  UNL     1      41.891  29.370  26.308  1.00  0.00     0.082 C
HETATM    9  S1  UNL     1      42.222  29.140  28.055  1.00  0.00    -0.167 SA
HETATM   10  C10 UNL     1      40.536  29.065  28.665  1.00  0.00     0.099 C
BRANCH   7  11
HETATM   11  C4  UNL     1      39.999  30.412  25.185  1.00  0.00     0.097 C
BRANCH  11  12
HETATM   12  N1  UNL     1      38.826  30.185  24.440  1.00  0.00    -0.331 N
HETATM   13  C3  UNL     1      37.721  31.072  24.312  1.00  0.00     0.360 C
HETATM   14  O2  UNL     1      37.789  32.170  24.930  1.00  0.00    -0.239 OA
ATOM     15  H1  UNL     1      38.762  29.297  23.943  1.00  0.00     0.165 HD
BRANCH  13  16
HETATM   16  O1  UNL     1      36.588  30.831  23.566  1.00  0.00    -0.304 OA
BRANCH  16  17
HETATM   17  C2  UNL     1      35.324  31.192  24.137  1.00  0.00     0.176 C
HETATM   18  C1  UNL     1      34.220  31.134  23.089  1.00  0.00     0.034 C
ENDBRANCH  16  17
ENDBRANCH  13  16
ENDBRANCH  11  12
BRANCH  11  19
HETATM   19  C5  UNL     1      41.206  30.749  24.319  1.00  0.00     0.009 A
HETATM   20  C6  UNL     1      41.141  31.982  23.463  1.00  0.00     0.007 A
HETATM   21  C7  UNL     1      41.215  30.603  22.870  1.00  0.00     0.007 A
ENDBRANCH  11  19
ENDBRANCH   7  11
ENDBRANCH   3   6
ENDBRANCH   1   2
BRANCH   1  22
HETATM   22  N3  UNL     1      35.140  30.191  29.011  1.00  0.00    -0.329 N
HETATM   23  C14 UNL     1      34.058  30.715  28.290  1.00  0.00     0.319 C
HETATM   24  O4  UNL     1      33.770  30.257  27.157  1.00  0.00    -0.247 OA
HETATM   25  N4  UNL     1      33.261  31.754  28.797  1.00  0.00    -0.333 N
HETATM   26  C15 UNL     1      33.692  32.430  30.007  1.00  0.00     0.129 C
HETATM   27  C26 UNL     1      32.048  32.056  28.069  1.00  0.00     0.157 C
HETATM   28  C16 UNL     1      34.772  33.405  29.504  1.00  0.00     0.050 C
HETATM   29  C17 UNL     1      34.083  34.451  28.639  1.00  0.00     0.274 C
HETATM   30  N5  UNL     1      33.444  33.895  27.478  1.00  0.00     0.094 N
HETATM   31  C25 UNL     1      32.061  33.556  27.691  1.00  0.00     0.292 C
ATOM     32  H3  UNL     1      35.322  30.582  29.935  1.00  0.00     0.165 HD
BRANCH  30  33
HETATM   33  C18 UNL     1      33.745  34.642  26.317  1.00  0.00     0.223 C
HETATM   34  C19 UNL     1      35.234  34.767  26.056  1.00  0.00     0.036 C
HETATM   35  C20 UNL     1      35.433  35.942  25.118  1.00  0.00     0.006 C
HETATM   36  C21 UNL     1      34.694  35.725  23.814  1.00  0.00    -0.019 C
HETATM   37  C22 UNL     1      35.415  34.711  22.946  1.00  0.00     0.010 C
HETATM   38  C23 UNL     1      33.262  35.365  24.035  1.00  0.00     0.006 C
HETATM   39  C24 UNL     1      33.086  34.224  25.047  1.00  0.00     0.036 C
ENDBRANCH  30  33
ENDBRANCH   1  22
BRANCH   1  40
HETATM   40  C27 UNL     1      36.049  28.053  29.666  1.00  0.00     0.009 C
HETATM   41  C28 UNL     1      34.903  28.261  30.608  1.00  0.00     0.012 C
HETATM   42  C29 UNL     1      36.012  26.669  29.123  1.00  0.00     0.012 C
ENDBRANCH   1  40
TORSDOF 10
ENDMDL