MODEL 1
REMARK VINA RESULT: -7.106299375      0.000      0.000
REMARK  12 active torsions:
REMARK  status: ('A' for Active; 'I' for Inactive)
REMARK    1  A    between atoms: C2_2  and  C3_3
REMARK    2  A    between atoms: C3_3  and  C4_4
REMARK    3  A    between atoms: C4_4  and  C5_5
REMARK    4  A    between atoms: C5_5  and  N1_6
REMARK    5  A    between atoms: C5_5  and  C7_10
REMARK       I    between atoms: C7_10  and  N2_12
REMARK    6  A    between atoms: C12_17  and  O2_18
REMARK    7  A    between atoms: O2_18  and  C13_19
REMARK       I    between atoms: C13_19  and  N3_21
REMARK    8  A    between atoms: C19_27  and  C20_28
REMARK       I    between atoms: C20_28  and  N4_30
REMARK    9  A    between atoms: N4_30  and  C21_32
REMARK   10  A    between atoms: C27_38  and  O5_39
REMARK   11  A    between atoms: C28_41  and  C29_42
REMARK   12  A    between atoms: C29_42  and  C30_43
ROOT
HETATM    1  C7  UNL     1      34.603  31.765  26.676  1.00  0.00     0.251 C
HETATM    2  O1  UNL     1      33.455  31.999  27.207  1.00  0.00    -0.271 OA
HETATM    3  N2  UNL     1      35.541  30.956  27.337  1.00  0.00    -0.342 N
HETATM    4  C8  UNL     1      36.887  30.555  27.036  1.00  0.00     0.138 C
HETATM    5  C9  UNL     1      37.653  30.633  28.365  1.00  0.00     0.004 C
HETATM    6  C10 UNL     1      38.374  31.911  28.516  1.00  0.00     0.016 C
HETATM    7  C11 UNL     1      39.855  31.933  28.327  1.00  0.00     0.033 C
HETATM    8  C12 UNL     1      40.377  30.630  27.743  1.00  0.00     0.133 C
HETATM    9  C25 UNL     1      39.924  29.570  28.688  1.00  0.00     0.033 C
HETATM   10  C26 UNL     1      38.444  29.404  28.593  1.00  0.00     0.016 C
HETATM   11  C27 UNL     1      36.503  30.618  29.401  1.00  0.00     0.151 C
HETATM   12  C28 UNL     1      35.245  30.258  28.598  1.00  0.00     0.117 C
ENDROOT
BRANCH  11  13
HETATM   13  O5  UNL     1      36.349  31.854  30.005  1.00  0.00    -0.393 OA
ATOM     14  H5  UNL     1      35.547  31.895  30.514  1.00  0.00     0.210 HD
ENDBRANCH  11  13
BRANCH  12  15
HETATM   15  C29 UNL     1      35.104  28.789  28.476  1.00  0.00     0.032 C
BRANCH  15  16
HETATM   16  C30 UNL     1      35.253  28.062  29.761  1.00  0.00    -0.021 C
HETATM   17  C31 UNL     1      33.854  27.641  30.253  1.00  0.00     0.009 C
HETATM   18  C32 UNL     1      35.996  26.724  29.572  1.00  0.00     0.009 C
ENDBRANCH  15  16
ENDBRANCH  12  15
BRANCH   1  19
HETATM   19  C5  UNL     1      34.762  32.432  25.345  1.00  0.00     0.276 C
BRANCH  19  20
HETATM   20  C4  UNL     1      33.645  33.402  25.087  1.00  0.00     0.043 C
BRANCH  20  21
HETATM   21  C3  UNL     1      33.792  34.333  23.950  1.00  0.00     0.002 C
BRANCH  21  22
HETATM   22  C2  UNL     1      34.935  35.311  24.074  1.00  0.00    -0.004 C
HETATM   23  C1  UNL     1      35.636  35.495  22.739  1.00  0.00     0.005 C
ENDBRANCH  21  22
ENDBRANCH  20  21
ENDBRANCH  19  20
BRANCH  19  24
HETATM   24  N1  UNL     1      34.473  31.333  24.356  1.00  0.00    -0.066 N
HETATM   25  C6  UNL     1      35.668  31.044  23.587  1.00  0.00     0.267 C
ATOM     26  H12 UNL     1      34.095  30.499  24.807  1.00  0.00     0.277 HD
ATOM     27  H11 UNL     1      33.674  31.551  23.760  1.00  0.00     0.277 HD
ENDBRANCH  19  24
ENDBRANCH   1  19
BRANCH   8  28
HETATM   28  O2  UNL     1      41.750  30.676  27.496  1.00  0.00    -0.298 OA
BRANCH  28  29
HETATM   29  C13 UNL     1      42.379  30.092  26.398  1.00  0.00     0.363 C
HETATM   30  O3  UNL     1      42.641  28.883  26.450  1.00  0.00    -0.238 OA
HETATM   31  N3  UNL     1      42.717  30.842  25.244  1.00  0.00    -0.315 N
HETATM   32  C14 UNL     1      43.342  30.167  24.145  1.00  0.00     0.129 C
HETATM   33  C19 UNL     1      42.434  32.232  25.197  1.00  0.00     0.181 C
HETATM   34  C15 UNL     1      44.234  31.005  23.292  1.00  0.00     0.024 C
HETATM   35  C16 UNL     1      43.694  32.399  23.080  1.00  0.00    -0.015 C
HETATM   36  C17 UNL     1      44.548  33.238  22.198  1.00  0.00     0.010 C
HETATM   37  C18 UNL     1      43.533  32.983  24.489  1.00  0.00     0.039 C
BRANCH  33  38
HETATM   38  C20 UNL     1      41.091  32.596  24.679  1.00  0.00     0.241 C
HETATM   39  O4  UNL     1      40.313  31.704  24.249  1.00  0.00    -0.271 OA
HETATM   40  N4  UNL     1      40.595  33.937  24.628  1.00  0.00    -0.351 N
ATOM     41  H4  UNL     1      41.192  34.691  24.969  1.00  0.00     0.163 HD
BRANCH  40  42
HETATM   42  C21 UNL     1      39.299  34.269  24.122  1.00  0.00     0.022 C
HETATM   43  C22 UNL     1      39.158  33.934  22.644  1.00  0.00     0.037 C
HETATM   44  C23 UNL     1      38.161  33.576  24.833  1.00  0.00     0.037 C
HETATM   45  C24 UNL     1      39.042  35.759  24.229  1.00  0.00     0.037 C
ENDBRANCH  40  42
ENDBRANCH  33  38
ENDBRANCH  28  29
ENDBRANCH   8  28
TORSDOF 12
ENDMDL