MODEL 2
REMARK VINA RESULT: -8.839972912      0.080      1.296
REMARK  13 active torsions:
REMARK  status: ('A' for Active; 'I' for Inactive)
REMARK    1  A    between atoms: C3_3  and  C4_4
REMARK    2  A    between atoms: C4_4  and  C5_5
REMARK    3  A    between atoms: C4_4  and  C11_11
REMARK    4  A    between atoms: C5_5  and  C6_6
REMARK    5  A    between atoms: C6_6  and  C7_7
REMARK    6  A    between atoms: C7_7  and  C8_8
REMARK    7  A    between atoms: C12_12  and  C13_13
REMARK    8  A    between atoms: C13_13  and  C14_14
REMARK    9  A    between atoms: C15_15  and  O1_16
REMARK   10  A    between atoms: N2_29  and  C24_30
REMARK   11  A    between atoms: C24_30  and  C25_31
REMARK   12  A    between atoms: N5_38  and  C27_39
REMARK   13  A    between atoms: C27_39  and  C28_40
ROOT
HETATM    1  C1  UNL     1      40.437  28.688  24.995  1.00  0.00     0.112 C
HETATM    2  C2  UNL     1      39.553  29.581  25.732  1.00  0.00    -0.106 C
HETATM    3  C3  UNL     1      38.810  30.321  26.375  1.00  0.00    -0.069 C
ENDROOT
BRANCH   3   4
HETATM    4  C4  UNL     1      37.857  31.187  27.075  1.00  0.00     0.023 C
BRANCH   4   5
HETATM    5  C5  UNL     1      38.636  31.995  28.088  1.00  0.00     0.050 C
BRANCH   5   6
HETATM    6  C6  UNL     1      38.945  31.078  29.327  1.00  0.00     0.006 C
BRANCH   6   7
HETATM    7  C7  UNL     1      40.372  31.284  29.744  1.00  0.00     0.004 C
BRANCH   7   8
HETATM    8  C8  UNL     1      41.364  30.519  28.934  1.00  0.00    -0.023 C
HETATM    9  C9  UNL     1      41.333  29.037  29.206  1.00  0.00     0.009 C
HETATM   10  C10 UNL     1      42.783  30.990  29.180  1.00  0.00     0.009 C
ENDBRANCH   7   8
ENDBRANCH   6   7
ENDBRANCH   5   6
ENDBRANCH   4   5
BRANCH   4  11
HETATM   11  C11 UNL     1      36.552  31.190  26.966  1.00  0.00     0.060 A
HETATM   12  C12 UNL     1      35.582  30.531  27.723  1.00  0.00     0.000 A
HETATM   13  C21 UNL     1      34.397  30.433  26.932  1.00  0.00    -0.034 A
HETATM   14  C22 UNL     1      33.096  29.810  27.283  1.00  0.00     0.050 C
HETATM   15  C23 UNL     1      34.670  31.022  25.770  1.00  0.00     0.099 A
HETATM   16  N2  UNL     1      35.975  31.497  25.758  1.00  0.00    -0.348 N
BRANCH  12  17
HETATM   17  C13 UNL     1      35.509  30.260  28.975  1.00  0.00     0.030 C
BRANCH  17  18
HETATM   18  C14 UNL     1      35.098  29.263  29.898  1.00  0.00     0.022 A
HETATM   19  C15 UNL     1      34.088  29.536  30.836  1.00  0.00     0.153 A
HETATM   20  N1  UNL     1      33.708  28.647  31.763  1.00  0.00    -0.303 N
HETATM   21  C16 UNL     1      34.281  27.436  31.842  1.00  0.00     0.253 A
ATOM     22  H1  UNL     1      32.969  28.894  32.422  1.00  0.00     0.171 HD
HETATM   23  O2  UNL     1      33.947  26.582  32.698  1.00  0.00    -0.268 OA
HETATM   24  C17 UNL     1      35.278  27.078  30.968  1.00  0.00     0.013 A
HETATM   25  C18 UNL     1      35.950  25.755  31.005  1.00  0.00     0.054 C
HETATM   26  C19 UNL     1      35.671  27.991  30.014  1.00  0.00    -0.036 A
HETATM   27  C20 UNL     1      36.753  27.620  29.089  1.00  0.00     0.050 C
BRANCH  19  28
HETATM   28  O1  UNL     1      33.441  30.782  30.817  1.00  0.00    -0.345 OA
ATOM     29  H1  UNL     1      32.492  30.819  30.836  1.00  0.00     0.219 HD
ENDBRANCH  19  28
ENDBRANCH  17  18
ENDBRANCH  12  17
BRANCH  16  30
HETATM   30  C24 UNL     1      36.378  32.165  24.564  1.00  0.00     0.206 C
BRANCH  30  31
HETATM   31  C25 UNL     1      36.314  33.653  24.676  1.00  0.00     0.121 A
HETATM   32  N3  UNL     1      35.452  34.277  25.521  1.00  0.00    -0.283 N
HETATM   33  N4  UNL     1      35.572  35.564  25.430  1.00  0.00    -0.250 N
ATOM     34  H3  UNL     1      34.800  33.798  26.142  1.00  0.00     0.188 HD
HETATM   35  C26 UNL     1      36.531  35.816  24.506  1.00  0.00     0.342 A
ATOM     36  H4  UNL     1      35.043  36.259  25.956  1.00  0.00     0.192 HD
HETATM   37  O3  UNL     1      36.889  36.968  24.185  1.00  0.00    -0.245 OA
HETATM   38  N5  UNL     1      36.980  34.612  24.047  1.00  0.00    -0.281 N
BRANCH  38  39
HETATM   39  C27 UNL     1      37.973  34.486  23.035  1.00  0.00     0.173 C
BRANCH  39  40
HETATM   40  C28 UNL     1      39.178  33.783  23.559  1.00  0.00    -0.039 A
HETATM   41  C29 UNL     1      39.800  32.767  22.879  1.00  0.00     0.015 A
HETATM   42  C30 UNL     1      40.912  32.147  23.395  1.00  0.00    -0.061 A
HETATM   43  C31 UNL     1      41.591  31.038  22.652  1.00  0.00     0.048 C
HETATM   44  C32 UNL     1      41.413  32.562  24.633  1.00  0.00     0.013 A
HETATM   45  C33 UNL     1      40.803  33.577  25.328  1.00  0.00    -0.061 A
HETATM   46  C34 UNL     1      41.346  33.996  26.627  1.00  0.00     0.048 C
HETATM   47  C35 UNL     1      39.688  34.176  24.777  1.00  0.00     0.015 A
ENDBRANCH  39  40
ENDBRANCH  38  39
ENDBRANCH  30  31
ENDBRANCH  16  30
ENDBRANCH   4  11
ENDBRANCH   3   4
TORSDOF 13
ENDMDL