MODEL 1
REMARK VINA RESULT: -10.024774332      0.000      0.000
REMARK  3 active torsions:
REMARK  status: ('A' for Active; 'I' for Inactive)
REMARK    1  A    between atoms: C4_5  and  S1_6
REMARK    2  A    between atoms: S1_6  and  N2_7
REMARK    3  A    between atoms: C6_13  and  N3_14
ROOT
HETATM    1  N3  UNL     1     -30.714  -9.572  26.391  1.00  0.00    -0.353 N
ATOM      2  H3  UNL     1     -31.652  -9.886  26.145  1.00  0.00     0.166 HD
HETATM    3  C7  UNL     1     -29.898  -9.587  25.426  1.00  0.00     0.055 A
HETATM    4  C8  UNL     1     -28.497  -9.240  25.298  1.00  0.00     0.003 A
HETATM    5  C9  UNL     1     -27.586  -8.772  26.204  1.00  0.00     0.014 A
HETATM    6  C10 UNL     1     -26.284  -8.517  25.805  1.00  0.00     0.001 A
HETATM    7  C11 UNL     1     -25.851  -8.716  24.514  1.00  0.00     0.001 A
HETATM    8  C12 UNL     1     -26.759  -9.188  23.589  1.00  0.00     0.013 A
HETATM    9  C13 UNL     1     -28.065  -9.443  23.991  1.00  0.00    -0.013 A
HETATM   10  C14 UNL     1     -29.222  -9.942  23.232  1.00  0.00    -0.013 A
HETATM   11  C15 UNL     1     -29.340 -10.299  21.902  1.00  0.00     0.013 A
HETATM   12  C16 UNL     1     -30.561 -10.750  21.411  1.00  0.00     0.001 A
HETATM   13  C17 UNL     1     -31.662 -10.846  22.236  1.00  0.00     0.001 A
HETATM   14  C18 UNL     1     -31.504 -10.479  23.559  1.00  0.00     0.014 A
HETATM   15  C19 UNL     1     -30.309 -10.030  24.074  1.00  0.00     0.003 A
ENDROOT
BRANCH   1  16
HETATM   16  C6  UNL     1     -30.575  -9.209  27.717  1.00  0.00     0.058 A
HETATM   17  C1  UNL     1     -30.247 -10.166  28.654  1.00  0.00     0.073 A
HETATM   18  N1  UNL     1     -30.037 -11.540  28.275  1.00  0.00    -0.100 NA
HETATM   19  C2  UNL     1     -30.127  -9.766  29.966  1.00  0.00     0.030 A
HETATM   20  C3  UNL     1     -30.325  -8.454  30.341  1.00  0.00     0.027 A
HETATM   21  C4  UNL     1     -30.654  -7.476  29.420  1.00  0.00     0.081 A
HETATM   22  C5  UNL     1     -30.772  -7.885  28.108  1.00  0.00     0.056 A
BRANCH  21  23
HETATM   23  S1  UNL     1     -30.905  -5.813  29.900  1.00  0.00     0.256 S
HETATM   24  O1  UNL     1     -29.900  -5.398  30.957  1.00  0.00    -0.201 OA
HETATM   25  O2  UNL     1     -30.799  -4.879  28.726  1.00  0.00    -0.201 OA
BRANCH  23  26
HETATM   26  N2  UNL     1     -32.514  -5.638  30.548  1.00  0.00    -0.324 N
ATOM     27  H22 UNL     1     -32.969  -6.317  31.158  1.00  0.00     0.169 HD
ATOM     28  H21 UNL     1     -32.915  -4.759  30.220  1.00  0.00     0.169 HD
ENDBRANCH  23  26
ENDBRANCH  21  23
ENDBRANCH   1  16
TORSDOF 3
ENDMDL