MODEL 5
REMARK VINA RESULT: -9.180323382      1.321      1.937
REMARK  2 active torsions:
REMARK  status: ('A' for Active; 'I' for Inactive)
REMARK    1  A    between atoms: N1_8  and  C8_9
REMARK    2  A    between atoms: N4_20  and  C16_21
ROOT
HETATM    1  C1  UNL     1     -27.869  -6.390  19.518  1.00  0.00     0.048 C
HETATM    2  C2  UNL     1     -27.790  -6.743  20.964  1.00  0.00    -0.060 A
HETATM    3  C3  UNL     1     -26.969  -5.976  21.761  1.00  0.00     0.007 A
HETATM    4  C4  UNL     1     -26.877  -6.279  23.098  1.00  0.00     0.015 A
HETATM    5  C5  UNL     1     -27.593  -7.327  23.610  1.00  0.00     0.026 A
HETATM    6  C6  UNL     1     -28.427  -8.126  22.862  1.00  0.00     0.049 A
HETATM    7  C7  UNL     1     -28.502  -7.796  21.503  1.00  0.00     0.037 A
HETATM    8  N1  UNL     1     -28.805  -8.938  23.965  1.00  0.00    -0.308 N
HETATM    9  C14 UNL     1     -27.951  -8.147  24.805  1.00  0.00     0.204 A
HETATM   10  N2  UNL     1     -26.872  -8.788  25.446  1.00  0.00    -0.327 N
ATOM     11  H2  UNL     1     -26.229  -9.441  24.998  1.00  0.00     0.165 HD
HETATM   12  C15 UNL     1     -26.817  -8.431  26.671  1.00  0.00     0.199 A
HETATM   13  N3  UNL     1     -25.827  -8.917  27.563  1.00  0.00    -0.063 NA
HETATM   14  N4  UNL     1     -27.849  -7.518  27.012  1.00  0.00    -0.271 N
HETATM   15  C22 UNL     1     -28.594  -7.330  25.825  1.00  0.00     0.140 A
HETATM   16  N5  UNL     1     -29.621  -6.582  25.709  1.00  0.00    -0.384 N
ATOM     17  H51 UNL     1     -30.071  -6.010  26.423  1.00  0.00     0.157 HD
ATOM     18  H52 UNL     1     -30.158  -6.447  24.854  1.00  0.00     0.157 HD
ENDROOT
BRANCH   8  19
HETATM   19  C8  UNL     1     -29.674 -10.054  24.110  1.00  0.00     0.038 A
HETATM   20  C9  UNL     1     -30.338 -10.283  25.297  1.00  0.00     0.030 A
HETATM   21  C10 UNL     1     -31.180 -11.366  25.439  1.00  0.00     0.002 A
HETATM   22  C11 UNL     1     -31.378 -12.253  24.379  1.00  0.00     0.000 A
HETATM   23  C12 UNL     1     -30.718 -12.027  23.190  1.00  0.00     0.002 A
HETATM   24  C13 UNL     1     -29.863 -10.930  23.047  1.00  0.00     0.030 A
ENDBRANCH   8  19
BRANCH  14  25
HETATM   25  C16 UNL     1     -28.108  -6.901  28.279  1.00  0.00     0.043 A
HETATM   26  C17 UNL     1     -28.975  -7.449  29.203  1.00  0.00     0.030 A
HETATM   27  C18 UNL     1     -29.202  -6.818  30.429  1.00  0.00     0.002 A
HETATM   28  C19 UNL     1     -28.569  -5.633  30.749  1.00  0.00     0.000 A
HETATM   29  C20 UNL     1     -27.703  -5.082  29.829  1.00  0.00     0.002 A
HETATM   30  C21 UNL     1     -27.480  -5.719  28.605  1.00  0.00     0.030 A
ENDBRANCH  14  25
TORSDOF 2
ENDMDL