MODEL 4
REMARK VINA RESULT: -8.684833561      1.727      2.143
REMARK  3 active torsions:
REMARK  status: ('A' for Active; 'I' for Inactive)
REMARK    1  A    between atoms: C3_6  and  N3_7
REMARK    2  A    between atoms: N3_7  and  C4_9
REMARK    3  A    between atoms: C16_24  and  N6_25
ROOT
HETATM    1  C1  UNL     1     -25.414  -9.441  29.041  1.00  0.00     0.231 C
HETATM    2  N1  UNL     1     -25.891  -8.994  27.886  1.00  0.00    -0.410 NA
HETATM    3  C2  UNL     1     -26.363  -8.549  26.903  1.00  0.00     0.204 A
HETATM    4  N2  UNL     1     -25.989  -8.944  25.631  1.00  0.00    -0.163 N
ATOM      5  H2  UNL     1     -25.269  -9.661  25.541  1.00  0.00     0.187 HD
HETATM    6  C3  UNL     1     -26.517  -8.440  24.519  1.00  0.00     0.685 A
HETATM    7  N5  UNL     1     -27.468  -7.495  24.607  1.00  0.00    -0.191 N
ATOM      8  H5  UNL     1     -27.872  -7.111  23.752  1.00  0.00     0.184 HD
HETATM    9  C13 UNL     1     -27.901  -7.045  25.800  1.00  0.00     0.064 A
HETATM   10  C14 UNL     1     -28.887  -6.063  25.890  1.00  0.00     0.033 A
HETATM   11  C15 UNL     1     -29.337  -5.591  27.111  1.00  0.00     0.031 A
HETATM   12  C16 UNL     1     -28.794  -6.110  28.262  1.00  0.00     0.030 A
HETATM   13  C19 UNL     1     -27.818  -7.081  28.170  1.00  0.00     0.048 A
HETATM   14  C20 UNL     1     -27.370  -7.550  26.955  1.00  0.00     0.052 A
ENDROOT
BRANCH   6  15
HETATM   15  N3  UNL     1     -26.174  -8.809  23.331  1.00  0.00    -0.192 N
ATOM     16  H3  UNL     1     -25.194  -8.707  23.067  1.00  0.00     0.184 HD
BRANCH  15  17
HETATM   17  C4  UNL     1     -27.065  -9.347  22.366  1.00  0.00     0.051 A
HETATM   18  C5  UNL     1     -26.660  -9.451  21.054  1.00  0.00     0.037 A
HETATM   19  C6  UNL     1     -27.464  -9.963  20.050  1.00  0.00    -0.052 A
HETATM   20  C7  UNL     1     -27.017 -10.067  18.653  1.00  0.00     0.049 C
HETATM   21  C8  UNL     1     -28.728 -10.388  20.380  1.00  0.00    -0.035 A
HETATM   22  C9  UNL     1     -29.611 -10.937  19.352  1.00  0.00     0.050 C
HETATM   23  C10 UNL     1     -29.163 -10.299  21.682  1.00  0.00     0.053 A
HETATM   24  C11 UNL     1     -30.484 -10.729  22.100  1.00  0.00     0.100 C
HETATM   25  C12 UNL     1     -28.335  -9.777  22.684  1.00  0.00     0.053 A
HETATM   26  N4  UNL     1     -31.535 -11.089  22.427  1.00  0.00    -0.191 NA
ENDBRANCH  15  17
ENDBRANCH   6  15
BRANCH  12  27
HETATM   27  N6  UNL     1     -29.236  -5.646  29.528  1.00  0.00    -0.390 N
HETATM   28  C17 UNL     1     -28.331  -5.537  30.651  1.00  0.00     0.149 C
HETATM   29  C18 UNL     1     -30.629  -5.265  29.723  1.00  0.00     0.149 C
ENDBRANCH  12  27
TORSDOF 3
ENDMDL