MODEL 4
REMARK VINA RESULT: -8.352951786      2.398      4.714
REMARK  5 active torsions:
REMARK  status: ('A' for Active; 'I' for Inactive)
REMARK    1  A    between atoms: C1_2  and  N1_3
REMARK    2  A    between atoms: C1_2  and  C12_21
REMARK    3  A    between atoms: N1_3  and  C2_5
REMARK    4  A    between atoms: C5_10  and  N3_11
REMARK    5  A    between atoms: N3_11  and  C6_13
ROOT
HETATM    1  C2  UNL     1     -30.335 -11.212  23.044  1.00  0.00     0.123 A
HETATM    2  C3  UNL     1     -30.738 -12.439  23.539  1.00  0.00     0.066 A
HETATM    3  C4  UNL     1     -30.338 -13.570  22.895  1.00  0.00     0.110 A
HETATM    4  N2  UNL     1     -29.567 -13.446  21.801  1.00  0.00    -0.202 N
ATOM      5  H2  UNL     1     -29.272 -14.297  21.323  1.00  0.00     0.183 HD
HETATM    6  C5  UNL     1     -29.165 -12.273  21.302  1.00  0.00     0.684 A
HETATM    7  N4  UNL     1     -29.560 -11.159  21.939  1.00  0.00    -0.176 N
ATOM      8  H4  UNL     1     -29.268 -10.250  21.579  1.00  0.00     0.186 HD
ENDROOT
BRANCH   1   9
HETATM    9  N1  UNL     1     -30.735 -10.171  23.682  1.00  0.00    -0.331 N
ATOM     10  H1  UNL     1     -31.692  -9.852  23.529  1.00  0.00     0.168 HD
BRANCH   9  11
HETATM   11  C1  UNL     1     -29.921  -9.437  24.589  1.00  0.00     0.131 C
HETATM   12  S1  UNL     1     -30.514  -9.133  26.078  1.00  0.00    -0.058 SA
BRANCH  11  13
HETATM   13  C12 UNL     1     -28.590  -8.968  24.197  1.00  0.00     0.094 A
HETATM   14  C13 UNL     1     -27.375  -9.210  24.803  1.00  0.00     0.123 A
HETATM   15  N5  UNL     1     -26.409  -8.585  24.110  1.00  0.00    -0.350 N
HETATM   16  C14 UNL     1     -26.982  -7.941  23.063  1.00  0.00     0.111 A
ATOM     17  H5  UNL     1     -25.414  -8.594  24.333  1.00  0.00     0.166 HD
HETATM   18  C15 UNL     1     -26.401  -7.166  22.072  1.00  0.00     0.049 A
HETATM   19  N6  UNL     1     -28.302  -8.182  23.130  1.00  0.00    -0.304 N
HETATM   20  C16 UNL     1     -27.228  -6.621  21.116  1.00  0.00     0.005 A
HETATM   21  C17 UNL     1     -28.583  -6.871  21.187  1.00  0.00     0.018 A
HETATM   22  C18 UNL     1     -29.117  -7.645  22.186  1.00  0.00     0.099 A
ENDBRANCH  11  13
ENDBRANCH   9  11
ENDBRANCH   1   9
BRANCH   6  23
HETATM   23  N3  UNL     1     -28.429 -12.156  20.258  1.00  0.00    -0.192 N
ATOM     24  H3  UNL     1     -27.745 -12.879  20.036  1.00  0.00     0.184 HD
BRANCH  23  25
HETATM   25  C6  UNL     1     -28.567 -11.009  19.401  1.00  0.00     0.049 A
HETATM   26  C7  UNL     1     -29.771 -10.694  18.828  1.00  0.00     0.030 A
HETATM   27  C8  UNL     1     -29.916  -9.604  18.009  1.00  0.00     0.002 A
HETATM   28  C9  UNL     1     -28.801  -8.813  17.768  1.00  0.00     0.000 A
HETATM   29  C10 UNL     1     -27.581  -9.128  18.347  1.00  0.00     0.002 A
HETATM   30  C11 UNL     1     -27.471 -10.225  19.160  1.00  0.00     0.030 A
ENDBRANCH  23  25
ENDBRANCH   6  23
TORSDOF 5
ENDMDL