MODEL 4
REMARK VINA RESULT: -9.760305523      2.158      8.140
REMARK  4 active torsions:
REMARK  status: ('A' for Active; 'I' for Inactive)
REMARK    1  A    between atoms: N1_2  and  C2_4
REMARK    2  A    between atoms: C3_7  and  N3_8
REMARK    3  A    between atoms: N3_8  and  C4_10
REMARK    4  A    between atoms: C7_13  and  C8_14
ROOT
HETATM    1  C8  UNL     1     -28.785  -8.719  20.109  1.00  0.00    -0.005 A
HETATM    2  C9  UNL     1     -29.727  -9.740  20.049  1.00  0.00     0.014 A
HETATM    3  C10 UNL     1     -30.111 -10.305  18.850  1.00  0.00     0.001 A
HETATM    4  C11 UNL     1     -29.560  -9.862  17.669  1.00  0.00     0.002 A
HETATM    5  C12 UNL     1     -28.620  -8.844  17.716  1.00  0.00     0.023 A
HETATM    6  C13 UNL     1     -28.230  -8.270  18.932  1.00  0.00     0.055 A
HETATM    7  C14 UNL     1     -27.262  -7.216  18.857  1.00  0.00     0.100 C
HETATM    8  N4  UNL     1     -26.507  -6.362  18.792  1.00  0.00    -0.191 NA
ENDROOT
BRANCH   1   9
HETATM    9  C7  UNL     1     -28.377  -8.140  21.373  1.00  0.00    -0.024 A
HETATM   10  C6  UNL     1     -29.001  -7.011  21.863  1.00  0.00     0.014 A
HETATM   11  C5  UNL     1     -28.625  -6.453  23.081  1.00  0.00     0.031 A
HETATM   12  C4  UNL     1     -27.618  -7.005  23.843  1.00  0.00     0.039 A
HETATM   13  C16 UNL     1     -27.019  -8.129  23.326  1.00  0.00    -0.034 A
HETATM   14  C15 UNL     1     -27.372  -8.696  22.127  1.00  0.00     0.021 A
HETATM   15  C17 UNL     1     -25.921  -8.732  24.156  1.00  0.00     0.050 C
BRANCH  12  16
HETATM   16  N3  UNL     1     -27.278  -6.395  25.074  1.00  0.00    -0.342 N
ATOM     17  H3  UNL     1     -26.619  -5.616  25.058  1.00  0.00     0.167 HD
BRANCH  16  18
HETATM   18  C3  UNL     1     -27.751  -6.767  26.213  1.00  0.00     0.107 C
HETATM   19  N2  UNL     1     -28.995  -7.264  26.147  1.00  0.00    -0.328 N
HETATM   20  C2  UNL     1     -29.880  -7.605  27.163  1.00  0.00     0.123 C
ATOM     21  H2  UNL     1     -29.348  -7.415  25.202  1.00  0.00     0.169 HD
HETATM   22  C21 UNL     1     -29.786  -7.107  28.446  1.00  0.00     0.088 C
HETATM   23  C20 UNL     1     -28.629  -6.896  29.183  1.00  0.00     0.027 C
HETATM   24  C22 UNL     1     -31.023  -6.755  29.079  1.00  0.00     0.103 C
HETATM   25  C19 UNL     1     -27.350  -6.678  28.677  1.00  0.00     0.005 C
HETATM   26  C18 UNL     1     -26.963  -6.624  27.331  1.00  0.00     0.048 C
HETATM   27  N5  UNL     1     -32.009  -6.449  29.583  1.00  0.00    -0.191 NA
BRANCH  20  28
HETATM   28  N1  UNL     1     -30.775  -8.380  26.871  1.00  0.00    -0.379 N
HETATM   29  C1  UNL     1     -30.890  -9.644  26.312  1.00  0.00     0.147 C
ATOM     30  H1  UNL     1     -31.690  -7.992  27.101  1.00  0.00     0.160 HD
ENDBRANCH  20  28
ENDBRANCH  16  18
ENDBRANCH  12  16
ENDBRANCH   1   9
TORSDOF 4
ENDMDL