MODEL 4
REMARK VINA RESULT: -9.511058094      1.740      6.628
REMARK  4 active torsions:
REMARK  status: ('A' for Active; 'I' for Inactive)
REMARK    1  A    between atoms: C7_7  and  N1_8
REMARK    2  A    between atoms: N1_8  and  C8_10
REMARK    3  A    between atoms: C11_15  and  N3_16
REMARK    4  A    between atoms: N3_16  and  C12_18
ROOT
HETATM    1  C1  UNL     1     -29.157 -13.108  21.351  1.00  0.00     0.018 C
HETATM    2  C2  UNL     1     -29.100 -12.131  20.646  1.00  0.00    -0.078 C
HETATM    3  C3  UNL     1     -29.041 -10.952  19.825  1.00  0.00     0.019 A
HETATM    4  C4  UNL     1     -29.954 -10.734  18.811  1.00  0.00     0.021 A
HETATM    5  C5  UNL     1     -29.900  -9.600  18.019  1.00  0.00     0.004 A
HETATM    6  C6  UNL     1     -28.926  -8.644  18.219  1.00  0.00     0.029 A
HETATM    7  C7  UNL     1     -28.009  -8.852  19.228  1.00  0.00     0.035 A
HETATM    8  C21 UNL     1     -28.059  -9.986  20.025  1.00  0.00     0.050 A
ENDROOT
BRANCH   7   9
HETATM    9  N1  UNL     1     -26.989  -7.890  19.466  1.00  0.00    -0.342 N
ATOM     10  H1  UNL     1     -26.252  -7.748  18.775  1.00  0.00     0.167 HD
BRANCH   9  11
HETATM   11  C8  UNL     1     -26.993  -7.204  20.540  1.00  0.00     0.122 A
HETATM   12  C9  UNL     1     -27.270  -5.852  20.559  1.00  0.00     0.066 A
HETATM   13  C10 UNL     1     -27.263  -5.140  21.762  1.00  0.00     0.110 A
HETATM   14  N2  UNL     1     -26.984  -5.781  22.899  1.00  0.00    -0.202 N
HETATM   15  C11 UNL     1     -26.710  -7.122  22.876  1.00  0.00     0.684 A
ATOM     16  H2  UNL     1     -26.975  -5.273  23.783  1.00  0.00     0.183 HD
HETATM   17  N6  UNL     1     -26.719  -7.799  21.713  1.00  0.00    -0.176 N
ATOM     18  H6  UNL     1     -26.510  -8.797  21.722  1.00  0.00     0.186 HD
BRANCH  15  19
HETATM   19  N3  UNL     1     -26.439  -7.757  23.954  1.00  0.00    -0.192 N
ATOM     20  H3  UNL     1     -25.503  -7.711  24.356  1.00  0.00     0.184 HD
BRANCH  19  21
HETATM   21  C12 UNL     1     -27.448  -8.522  24.581  1.00  0.00     0.051 A
HETATM   22  C13 UNL     1     -27.480  -8.631  25.963  1.00  0.00     0.032 A
HETATM   23  C14 UNL     1     -28.479  -9.384  26.524  1.00  0.00     0.034 A
HETATM   24  C15 UNL     1     -29.439 -10.027  25.765  1.00  0.00     0.059 A
HETATM   25  N4  UNL     1     -30.417 -10.767  26.365  1.00  0.00    -0.362 N
HETATM   26  C19 UNL     1     -29.404  -9.917  24.393  1.00  0.00     0.061 A
HETATM   27  C16 UNL     1     -31.342 -11.384  25.583  1.00  0.00     0.113 A
ATOM     28  H4  UNL     1     -30.453 -10.856  27.380  1.00  0.00     0.165 HD
HETATM   29  C17 UNL     1     -31.321 -11.282  24.207  1.00  0.00     0.021 A
HETATM   30  C18 UNL     1     -32.322 -11.947  23.330  1.00  0.00     0.069 C
HETATM   31  N5  UNL     1     -30.347 -10.548  23.641  1.00  0.00    -0.357 N
ATOM     32  H5  UNL     1     -30.315 -10.462  22.626  1.00  0.00     0.166 HD
HETATM   33  C20 UNL     1     -28.406  -9.162  23.817  1.00  0.00     0.061 A
ENDBRANCH  19  21
ENDBRANCH  15  19
ENDBRANCH   9  11
ENDBRANCH   7   9
TORSDOF 4
ENDMDL