MODEL 1
REMARK VINA RESULT: -9.857501300      0.000      0.000
REMARK  2 active torsions:
REMARK  status: ('A' for Active; 'I' for Inactive)
REMARK    1  A    between atoms: C3_7  and  C4_8
REMARK    2  A    between atoms: C15_23  and  C16_24
ROOT
HETATM    1  C4  UNL     1     -27.549  -7.410  23.369  1.00  0.00     0.035 A
HETATM    2  C5  UNL     1     -27.170  -6.219  22.783  1.00  0.00     0.029 A
HETATM    3  C6  UNL     1     -27.383  -5.963  21.440  1.00  0.00     0.034 A
HETATM    4  C7  UNL     1     -27.995  -6.962  20.711  1.00  0.00     0.060 A
HETATM    5  N4  UNL     1     -28.324  -6.992  19.404  1.00  0.00    -0.354 N
ATOM      6  H4  UNL     1     -28.163  -6.249  18.724  1.00  0.00     0.166 HD
HETATM    7  C8  UNL     1     -28.895  -8.165  19.163  1.00  0.00     0.045 A
HETATM    8  C9  UNL     1     -29.403  -8.666  17.967  1.00  0.00     0.030 A
HETATM    9  C10 UNL     1     -29.965  -9.931  17.933  1.00  0.00     0.002 A
HETATM   10  C11 UNL     1     -29.993 -10.645  19.105  1.00  0.00     0.001 A
HETATM   11  C12 UNL     1     -29.487 -10.146  20.302  1.00  0.00     0.016 A
HETATM   12  C13 UNL     1     -28.938  -8.902  20.324  1.00  0.00     0.020 A
HETATM   13  C14 UNL     1     -28.359  -8.137  21.335  1.00  0.00     0.072 A
HETATM   14  N5  UNL     1     -28.142  -8.368  22.650  1.00  0.00    -0.355 N
ATOM     15  H5  UNL     1     -28.424  -9.248  23.082  1.00  0.00     0.166 HD
ENDROOT
BRANCH   1  16
HETATM   16  C3  UNL     1     -27.249  -7.527  24.823  1.00  0.00     0.161 C
HETATM   17  N3  UNL     1     -27.672  -6.356  25.546  1.00  0.00    -0.352 N
HETATM   18  C2  UNL     1     -28.864  -6.591  26.030  1.00  0.00     0.187 C
ATOM     19  H3  UNL     1     -27.136  -5.496  25.660  1.00  0.00     0.163 HD
HETATM   20  N1  UNL     1     -29.293  -7.908  25.665  1.00  0.00    -0.349 N
HETATM   21  N2  UNL     1     -29.571  -5.635  26.798  1.00  0.00    -0.064 NA
HETATM   22  C1  UNL     1     -30.629  -8.341  25.526  1.00  0.00     0.153 C
HETATM   23  C15 UNL     1     -28.027  -8.652  25.464  1.00  0.00     0.148 C
BRANCH  23  24
HETATM   24  C16 UNL     1     -27.481  -8.957  26.806  1.00  0.00    -0.033 A
HETATM   25  C17 UNL     1     -28.209  -9.414  27.878  1.00  0.00     0.009 A
HETATM   26  C18 UNL     1     -27.585  -9.672  29.108  1.00  0.00     0.001 A
HETATM   27  C19 UNL     1     -26.237  -9.485  29.306  1.00  0.00     0.000 A
HETATM   28  C20 UNL     1     -25.511  -9.027  28.231  1.00  0.00     0.001 A
HETATM   29  C21 UNL     1     -26.113  -8.771  27.020  1.00  0.00     0.009 A
ENDBRANCH  23  24
ENDBRANCH   1  16
TORSDOF 2
ENDMDL