MODEL 1
REMARK VINA RESULT: -8.884058945      0.000      0.000
REMARK  3 active torsions:
REMARK  status: ('A' for Active; 'I' for Inactive)
REMARK    1  A    between atoms: N1_2  and  C2_4
REMARK    2  A    between atoms: C17_23  and  C18_24
REMARK    3  A    between atoms: C18_24  and  N4_25
ROOT
HETATM    1  C2  UNL     1     -30.982 -10.125  23.738  1.00  0.00     0.101 A
HETATM    2  C3  UNL     1     -30.228  -9.121  23.158  1.00  0.00     0.061 A
HETATM    3  C4  UNL     1     -29.281  -8.494  23.919  1.00  0.00    -0.007 A
HETATM    4  C5  UNL     1     -29.098  -8.881  25.265  1.00  0.00     0.004 A
HETATM    5  C6  UNL     1     -29.857  -9.873  25.816  1.00  0.00     0.102 A
HETATM    6  N2  UNL     1     -30.783 -10.475  25.039  1.00  0.00    -0.352 N
ATOM      7  H2  UNL     1     -31.354 -11.218  25.440  1.00  0.00     0.166 HD
HETATM    8  C7  UNL     1     -28.158  -8.302  26.183  1.00  0.00     0.010 A
HETATM    9  C8  UNL     1     -27.773  -9.197  27.140  1.00  0.00     0.017 A
HETATM   10  C9  UNL     1     -26.901  -8.750  28.128  1.00  0.00     0.024 A
HETATM   11  C10 UNL     1     -26.447  -7.426  28.120  1.00  0.00     0.047 A
HETATM   12  C11 UNL     1     -25.551  -6.969  29.142  1.00  0.00     0.099 C
HETATM   13  N3  UNL     1     -24.825  -6.590  29.956  1.00  0.00    -0.191 NA
HETATM   14  C12 UNL     1     -26.863  -6.539  27.120  1.00  0.00     0.061 A
HETATM   15  C13 UNL     1     -27.721  -6.985  26.150  1.00  0.00     0.088 A
HETATM   16  O1  UNL     1     -28.058  -5.986  25.185  1.00  0.00    -0.309 OA
HETATM   17  C14 UNL     1     -28.064  -6.306  23.788  1.00  0.00     0.087 A
HETATM   18  C15 UNL     1     -27.482  -5.378  22.986  1.00  0.00     0.039 A
HETATM   19  C16 UNL     1     -27.427  -5.599  21.604  1.00  0.00     0.011 A
HETATM   20  C17 UNL     1     -27.964  -6.761  21.059  1.00  0.00    -0.032 A
HETATM   21  C20 UNL     1     -28.561  -7.720  21.854  1.00  0.00     0.024 A
HETATM   22  C21 UNL     1     -28.588  -7.451  23.192  1.00  0.00     0.010 A
ENDROOT
BRANCH   1  23
HETATM   23  N1  UNL     1     -31.851 -10.681  22.990  1.00  0.00    -0.381 N
HETATM   24  C1  UNL     1     -32.555 -11.891  23.247  1.00  0.00     0.147 C
ATOM     25  H1  UNL     1     -32.065 -10.208  22.112  1.00  0.00     0.160 HD
ENDBRANCH   1  23
BRANCH  20  26
HETATM   26  C18 UNL     1     -27.877  -6.944  19.587  1.00  0.00     0.270 C
BRANCH  26  27
HETATM   27  N4  UNL     1     -26.724  -6.290  19.028  1.00  0.00    -0.075 N
HETATM   28  C19 UNL     1     -25.739  -7.315  18.701  1.00  0.00     0.267 C
ATOM     29  H42 UNL     1     -26.955  -5.696  18.231  1.00  0.00     0.277 HD
ATOM     30  H41 UNL     1     -26.350  -5.562  19.636  1.00  0.00     0.277 HD
ENDBRANCH  26  27
ENDBRANCH  20  26
TORSDOF 3
ENDMDL