MODEL 3
REMARK VINA RESULT: -10.167421594      2.935      3.720
REMARK  2 active torsions:
REMARK  status: ('A' for Active; 'I' for Inactive)
REMARK       I    between atoms: C1_2  and  N1_3
REMARK    1  A    between atoms: C1_2  and  C16_26
REMARK    2  A    between atoms: C5_10  and  C6_11
ROOT
HETATM    1  O1  UNL     1     -30.453  -4.743  28.182  1.00  0.00    -0.266 OA
HETATM    2  C1  UNL     1     -29.702  -5.581  28.757  1.00  0.00     0.273 C
HETATM    3  N1  UNL     1     -28.687  -6.199  28.047  1.00  0.00    -0.306 N
ATOM      4  H1  UNL     1     -27.923  -6.608  28.586  1.00  0.00     0.170 HD
HETATM    5  C2  UNL     1     -28.624  -6.303  26.776  1.00  0.00     0.128 A
HETATM    6  C3  UNL     1     -27.556  -6.946  26.114  1.00  0.00     0.102 A
HETATM    7  C4  UNL     1     -27.847  -6.865  24.779  1.00  0.00     0.150 A
HETATM    8  N2  UNL     1     -27.428  -7.177  23.539  1.00  0.00    -0.324 N
ATOM      9  H2  UNL     1     -26.563  -7.676  23.332  1.00  0.00     0.169 HD
HETATM   10  C5  UNL     1     -28.313  -6.739  22.590  1.00  0.00     0.134 A
HETATM   11  N3  UNL     1     -29.262  -6.159  23.305  1.00  0.00    -0.262 N
ATOM     12  H3  UNL     1     -30.090  -5.717  22.904  1.00  0.00     0.191 HD
HETATM   13  N4  UNL     1     -29.010  -6.220  24.599  1.00  0.00    -0.176 N
HETATM   14  N5  UNL     1     -29.441  -5.901  25.808  1.00  0.00    -0.262 N
ATOM     15  H5  UNL     1     -30.312  -5.399  25.979  1.00  0.00     0.191 HD
ENDROOT
BRANCH   2  16
HETATM   16  C16 UNL     1     -29.946  -5.864  30.184  1.00  0.00     0.100 A
HETATM   17  C17 UNL     1     -30.749  -6.905  30.562  1.00  0.00     0.035 A
HETATM   18  C18 UNL     1     -30.972  -7.160  31.909  1.00  0.00     0.004 A
HETATM   19  C19 UNL     1     -30.367  -6.341  32.854  1.00  0.00     0.017 A
HETATM   20  C20 UNL     1     -29.569  -5.307  32.431  1.00  0.00     0.088 A
HETATM   21  N6  UNL     1     -29.372  -5.085  31.101  1.00  0.00    -0.361 N
ATOM     22  H6  UNL     1     -28.776  -4.313  30.803  1.00  0.00     0.165 HD
ENDBRANCH   2  16
BRANCH  10  23
HETATM   23  C6  UNL     1     -28.100  -6.941  21.160  1.00  0.00     0.021 A
HETATM   24  C7  UNL     1     -27.381  -5.980  20.433  1.00  0.00     0.016 A
HETATM   25  C8  UNL     1     -27.140  -6.114  19.085  1.00  0.00     0.002 A
HETATM   26  C9  UNL     1     -27.593  -7.198  18.387  1.00  0.00     0.012 A
HETATM   27  C10 UNL     1     -28.304  -8.157  19.079  1.00  0.00    -0.025 A
HETATM   28  C11 UNL     1     -28.748  -9.241  18.349  1.00  0.00     0.012 A
HETATM   29  C15 UNL     1     -28.553  -8.025  20.455  1.00  0.00    -0.012 A
HETATM   30  C12 UNL     1     -29.458 -10.220  19.002  1.00  0.00     0.001 A
HETATM   31  C13 UNL     1     -29.706 -10.103  20.334  1.00  0.00     0.001 A
HETATM   32  C14 UNL     1     -29.258  -9.008  21.078  1.00  0.00     0.013 A
ENDBRANCH  10  23
TORSDOF 2
ENDMDL