MODEL 5
REMARK VINA RESULT: -8.313715613      1.946      4.096
REMARK  3 active torsions:
REMARK  status: ('A' for Active; 'I' for Inactive)
REMARK    1  A    between atoms: C4_9  and  C5_10
REMARK    2  A    between atoms: N4_17  and  N5_18
REMARK    3  A    between atoms: N5_18  and  C10_20
ROOT
HETATM    1  C1  UNL     1     -26.221  -8.540  21.642  1.00  0.00     0.091 C
HETATM    2  C2  UNL     1     -27.502  -9.036  21.027  1.00  0.00     0.099 C
HETATM    3  N1  UNL     1     -27.646  -8.797  19.767  1.00  0.00    -0.322 N
ATOM      4  H1  UNL     1     -26.930  -8.302  19.236  1.00  0.00     0.169 HD
HETATM    5  C3  UNL     1     -28.844  -9.250  19.150  1.00  0.00     0.174 C
HETATM    6  S1  UNL     1     -29.094  -8.978  17.546  1.00  0.00    -0.041 SA
HETATM    7  N2  UNL     1     -29.828  -9.940  19.913  1.00  0.00    -0.340 N
ATOM      8  H2  UNL     1     -30.812  -9.942  19.645  1.00  0.00     0.164 HD
HETATM    9  C4  UNL     1     -29.356 -10.641  21.097  1.00  0.00     0.244 C
HETATM   10  N4  UNL     1     -28.476  -9.722  21.796  1.00  0.00    -0.251 N
ENDROOT
BRANCH  10  11
HETATM   11  N5  UNL     1     -28.539  -9.484  23.157  1.00  0.00    -0.279 N
ATOM     12  H5  UNL     1     -28.420 -10.284  23.777  1.00  0.00     0.189 HD
BRANCH  11  13
HETATM   13  C10 UNL     1     -28.735  -8.342  23.703  1.00  0.00     0.131 A
HETATM   14  N6  UNL     1     -29.563  -7.401  23.246  1.00  0.00    -0.351 N
HETATM   15  C11 UNL     1     -29.718  -6.223  23.874  1.00  0.00     0.090 A
ATOM     16  H6  UNL     1     -30.095  -7.582  22.394  1.00  0.00     0.166 HD
HETATM   17  C12 UNL     1     -29.025  -5.926  25.027  1.00  0.00     0.029 A
HETATM   18  C13 UNL     1     -28.154  -6.886  25.530  1.00  0.00    -0.021 A
HETATM   19  C14 UNL     1     -27.450  -6.602  26.691  1.00  0.00     0.012 A
HETATM   20  C18 UNL     1     -28.026  -8.072  24.861  1.00  0.00     0.019 A
HETATM   21  C15 UNL     1     -26.588  -7.525  27.207  1.00  0.00     0.001 A
HETATM   22  C16 UNL     1     -26.446  -8.728  26.543  1.00  0.00     0.001 A
HETATM   23  C17 UNL     1     -27.149  -9.022  25.379  1.00  0.00     0.016 A
ENDBRANCH  11  13
ENDBRANCH  10  11
BRANCH   9  24
HETATM   24  C5  UNL     1     -30.441 -11.146  21.940  1.00  0.00     0.001 A
HETATM   25  C6  UNL     1     -30.296 -12.257  22.761  1.00  0.00     0.014 A
HETATM   26  C7  UNL     1     -31.333 -12.721  23.550  1.00  0.00     0.018 A
HETATM   27  C8  UNL     1     -32.553 -12.068  23.530  1.00  0.00     0.087 A
HETATM   28  N3  UNL     1     -32.690 -11.002  22.742  1.00  0.00    -0.375 N
HETATM   29  C9  UNL     1     -31.677 -10.532  21.957  1.00  0.00     0.098 A
ATOM     30  H3  UNL     1     -33.588 -10.518  22.725  1.00  0.00     0.164 HD
ENDBRANCH   9  24
TORSDOF 3
ENDMDL