MODEL 2
REMARK VINA RESULT: -7.559594891      1.820      2.693
REMARK  15 active torsions:
REMARK  status: ('A' for Active; 'I' for Inactive)
REMARK    1  A    between atoms: N1_1  and  C1_5
REMARK    2  A    between atoms: C1_5  and  C2_6
REMARK    3  A    between atoms: C2_6  and  N2_7
REMARK    4  A    between atoms: N2_7  and  C3_10
REMARK    5  A    between atoms: C3_10  and  C4_11
REMARK       I    between atoms: C4_11  and  N3_13
REMARK    6  A    between atoms: N3_13  and  C5_15
REMARK    7  A    between atoms: C5_15  and  C6_16
REMARK    8  A    between atoms: C7_17  and  N4_18
REMARK    9  A    between atoms: N4_18  and  N5_19
REMARK   10  A    between atoms: C8_22  and  N6_23
REMARK   11  A    between atoms: N6_23  and  C9_26
REMARK   12  A    between atoms: C9_26  and  C10_27
REMARK   13  A    between atoms: C10_27  and  N7_28
REMARK       I    between atoms: N7_28  and  C11_30
REMARK   14  A    between atoms: C11_30  and  C12_32
REMARK   15  A    between atoms: C12_32  and  O3_33
ROOT
HETATM    1  C6  UNL     1      83.234  24.942   1.107  1.00  0.00     0.059 A
HETATM    2  C7  UNL     1      84.570  25.461   0.902  1.00  0.00     0.137 A
HETATM    3  C8  UNL     1      83.781  25.978   2.105  1.00  0.00     0.214 A
ENDROOT
BRANCH   1   4
HETATM    4  C5  UNL     1      82.843  23.631   1.675  1.00  0.00     0.131 C
BRANCH   4   5
HETATM    5  N3  UNL     1      83.353  22.454   1.073  1.00  0.00    -0.359 N
HETATM    6  C4  UNL     1      82.664  21.775   0.035  1.00  0.00     0.243 C
HETATM    7  O1  UNL     1      81.555  22.181  -0.414  1.00  0.00    -0.272 OA
ATOM      8  H3  UNL     1      84.246  22.082   1.397  1.00  0.00     0.162 HD
BRANCH   6   9
HETATM    9  C3  UNL     1      83.248  20.555  -0.545  1.00  0.00     0.334 C
BRANCH   9  10
HETATM   10  N2  UNL     1      83.798  19.676   0.462  1.00  0.00    -0.065 N
ATOM     11  H22 UNL     1      83.280  19.701   1.340  1.00  0.00     0.277 HD
ATOM     12  H21 UNL     1      84.693  20.001   0.828  1.00  0.00     0.277 HD
BRANCH  10  13
HETATM   13  C2  UNL     1      83.871  18.347  -0.115  1.00  0.00     0.260 C
BRANCH  13  14
HETATM   14  C1  UNL     1      84.475  17.324   0.790  1.00  0.00     0.257 C
BRANCH  14  15
HETATM   15  N1  UNL     1      84.932  17.933   2.015  1.00  0.00    -0.078 N
ATOM     16  H13 UNL     1      85.685  18.599   1.848  1.00  0.00     0.274 HD
ATOM     17  H12 UNL     1      84.240  18.577   2.398  1.00  0.00     0.274 HD
ATOM     18  H11 UNL     1      85.201  17.220   2.693  1.00  0.00     0.274 HD
ENDBRANCH  14  15
ENDBRANCH  13  14
ENDBRANCH  10  13
ENDBRANCH   9  10
ENDBRANCH   6   9
ENDBRANCH   4   5
ENDBRANCH   1   4
BRANCH   2  19
HETATM   19  N4  UNL     1      85.824  24.841   1.127  1.00  0.00    -0.141 NA
BRANCH  19  20
HETATM   20  N5  UNL     1      86.813  25.350   0.345  1.00  0.00    -0.348 N
ATOM     21  H52 UNL     1      86.685  25.546  -0.648  1.00  0.00     0.172 HD
ATOM     22  H51 UNL     1      87.681  25.509   0.857  1.00  0.00     0.172 HD
ENDBRANCH  19  20
ENDBRANCH   2  19
BRANCH   3  23
HETATM   23  N6  UNL     1      83.161  27.282   2.046  1.00  0.00    -0.067 N
ATOM     24  H62 UNL     1      83.280  27.712   1.129  1.00  0.00     0.277 HD
ATOM     25  H61 UNL     1      82.143  27.212   2.056  1.00  0.00     0.277 HD
BRANCH  23  26
HETATM   26  C9  UNL     1      83.646  28.149   3.107  1.00  0.00     0.252 C
BRANCH  26  27
HETATM   27  C10 UNL     1      82.629  28.204   4.203  1.00  0.00     0.150 C
BRANCH  27  28
HETATM   28  N7  UNL     1      81.343  27.683   3.885  1.00  0.00    -0.358 N
HETATM   29  C11 UNL     1      80.950  26.324   4.046  1.00  0.00     0.241 C
HETATM   30  O2  UNL     1      81.813  25.527   4.504  1.00  0.00    -0.271 OA
ATOM     31  H7  UNL     1      80.650  28.334   3.515  1.00  0.00     0.162 HD
BRANCH  29  32
HETATM   32  C12 UNL     1      79.618  25.811   3.714  1.00  0.00     0.266 C
BRANCH  32  33
HETATM   33  O3  UNL     1      79.498  24.484   4.189  1.00  0.00    -0.392 OA
ATOM     34  H3  UNL     1      78.612  24.177   4.039  1.00  0.00     0.210 HD
ENDBRANCH  32  33
ENDBRANCH  29  32
ENDBRANCH  27  28
ENDBRANCH  26  27
ENDBRANCH  23  26
ENDBRANCH   3  23
TORSDOF 15
ENDMDL