MODEL 3
REMARK VINA RESULT: -6.579671810      1.614      2.361
REMARK  14 active torsions:
REMARK  status: ('A' for Active; 'I' for Inactive)
REMARK    1  A    between atoms: N1_1  and  C1_5
REMARK    2  A    between atoms: C1_5  and  C2_6
REMARK    3  A    between atoms: C2_6  and  N2_7
REMARK    4  A    between atoms: N2_7  and  C3_9
REMARK    5  A    between atoms: C3_9  and  C4_10
REMARK    6  A    between atoms: N3_11  and  C5_13
REMARK    7  A    between atoms: C8_19  and  N5_20
REMARK       I    between atoms: N5_20  and  C9_22
REMARK    8  A    between atoms: C9_22  and  C10_24
REMARK    9  A    between atoms: C10_24  and  O3_25
REMARK   10  A    between atoms: C10_24  and  C11_27
REMARK   11  A    between atoms: C11_27  and  N6_28
REMARK   12  A    between atoms: N6_28  and  C12_31
REMARK   13  A    between atoms: C12_31  and  C13_32
REMARK   14  A    between atoms: C13_32  and  N7_33
ROOT
HETATM    1  C5  UNL     1      83.428  24.690   2.465  1.00  0.00     0.151 C
HETATM    2  C6  UNL     1      83.700  26.123   2.356  1.00  0.00     0.091 C
HETATM    3  N4  UNL     1      83.105  26.617   1.289  1.00  0.00    -0.337 N
ATOM      4  H4  UNL     1      83.130  27.590   0.985  1.00  0.00     0.168 HD
HETATM    5  C7  UNL     1      82.416  25.547   0.629  1.00  0.00     0.246 C
HETATM    6  O1  UNL     1      81.377  25.619  -0.027  1.00  0.00    -0.271 OA
HETATM    7  C8  UNL     1      83.255  24.369   0.935  1.00  0.00     0.204 C
ENDROOT
BRANCH   7   8
HETATM    8  N5  UNL     1      82.682  23.102   0.712  1.00  0.00    -0.343 N
HETATM    9  C9  UNL     1      83.478  22.044   0.202  1.00  0.00     0.248 C
HETATM   10  O2  UNL     1      84.717  22.242  -0.053  1.00  0.00    -0.271 OA
ATOM     11  H5  UNL     1      81.696  22.945   0.917  1.00  0.00     0.163 HD
BRANCH   9  12
HETATM   12  C10 UNL     1      82.929  20.710  -0.046  1.00  0.00     0.235 C
BRANCH  12  13
HETATM   13  O3  UNL     1      83.364  19.803   0.951  1.00  0.00    -0.384 OA
ATOM     14  H3  UNL     1      83.243  18.906   0.660  1.00  0.00     0.210 HD
ENDBRANCH  12  13
BRANCH  12  15
HETATM   15  C11 UNL     1      83.378  20.156  -1.395  1.00  0.00     0.273 C
BRANCH  15  16
HETATM   16  N6  UNL     1      84.523  19.283  -1.153  1.00  0.00    -0.071 N
ATOM     17  H62 UNL     1      85.403  19.763  -1.340  1.00  0.00     0.277 HD
ATOM     18  H61 UNL     1      84.649  19.102  -0.157  1.00  0.00     0.277 HD
BRANCH  16  19
HETATM   19  C12 UNL     1      84.425  18.067  -1.896  1.00  0.00     0.259 C
BRANCH  19  20
HETATM   20  C13 UNL     1      84.963  16.880  -1.128  1.00  0.00     0.257 C
BRANCH  20  21
HETATM   21  N7  UNL     1      84.533  17.027   0.253  1.00  0.00    -0.078 N
ATOM     22  H73 UNL     1      84.478  18.001   0.551  1.00  0.00     0.274 HD
ATOM     23  H72 UNL     1      83.551  16.790   0.393  1.00  0.00     0.274 HD
ATOM     24  H71 UNL     1      85.164  16.469   0.828  1.00  0.00     0.274 HD
ENDBRANCH  20  21
ENDBRANCH  19  20
ENDBRANCH  16  19
ENDBRANCH  15  16
ENDBRANCH  12  15
ENDBRANCH   9  12
ENDBRANCH   7   8
BRANCH   1  25
HETATM   25  N3  UNL     1      82.275  24.341   3.113  1.00  0.00    -0.386 N
HETATM   26  C4  UNL     1      81.400  25.047   3.888  1.00  0.00     0.100 C
ATOM     27  H3  UNL     1      82.018  23.361   2.994  1.00  0.00     0.159 HD
BRANCH  26  28
HETATM   28  C3  UNL     1      80.466  26.086   3.442  1.00  0.00     0.099 C
BRANCH  28  29
HETATM   29  N2  UNL     1      80.734  27.376   3.920  1.00  0.00    -0.396 N
ATOM     30  H2  UNL     1      80.290  28.199   3.515  1.00  0.00     0.158 HD
BRANCH  29  31
HETATM   31  C2  UNL     1      81.654  27.479   4.997  1.00  0.00     0.146 C
BRANCH  31  32
HETATM   32  C1  UNL     1      82.452  28.753   5.033  1.00  0.00     0.249 C
BRANCH  32  33
HETATM   33  N1  UNL     1      82.551  29.294   3.679  1.00  0.00    -0.078 N
ATOM     34  H13 UNL     1      81.836  29.997   3.490  1.00  0.00     0.274 HD
ATOM     35  H12 UNL     1      83.371  29.887   3.558  1.00  0.00     0.274 HD
ATOM     36  H11 UNL     1      82.526  28.525   3.009  1.00  0.00     0.274 HD
ENDBRANCH  32  33
ENDBRANCH  31  32
ENDBRANCH  29  31
ENDBRANCH  28  29
ENDBRANCH  26  28
ENDBRANCH   1  25
TORSDOF 14
ENDMDL