MODEL 3
REMARK VINA RESULT: -7.803338364      3.450     10.096
REMARK  13 active torsions:
REMARK  status: ('A' for Active; 'I' for Inactive)
REMARK       I    between atoms: C1_4  and  N3_6
REMARK    1  A    between atoms: N3_6  and  O1_8
REMARK    2  A    between atoms: O1_8  and  C2_9
REMARK    3  A    between atoms: C2_9  and  C3_10
REMARK    4  A    between atoms: C3_10  and  N4_11
REMARK    5  A    between atoms: N4_11  and  C4_12
REMARK    6  A    between atoms: N4_11  and  C6_18
REMARK    7  A    between atoms: C4_12  and  C5_13
REMARK    8  A    between atoms: C5_13  and  N5_14
REMARK    9  A    between atoms: C6_18  and  C7_19
REMARK       I    between atoms: C7_19  and  N6_21
REMARK   10  A    between atoms: N6_21  and  C8_23
REMARK   11  A    between atoms: C8_23  and  C9_24
REMARK   12  A    between atoms: C9_24  and  N7_25
REMARK   13  A    between atoms: N7_25  and  C10_27
ROOT
HETATM    1  N4  UNL     1      82.073  25.541   1.697  1.00  0.00    -0.284 NA
ENDROOT
BRANCH   1   2
HETATM    2  C3  UNL     1      83.338  26.191   1.602  1.00  0.00     0.123 C
BRANCH   2   3
HETATM    3  C2  UNL     1      84.216  26.240   2.780  1.00  0.00     0.216 C
BRANCH   3   4
HETATM    4  O1  UNL     1      83.632  26.378   4.021  1.00  0.00    -0.277 OA
BRANCH   4   5
HETATM    5  N3  UNL     1      83.735  27.652   4.459  1.00  0.00    -0.239 N
HETATM    6  C1  UNL     1      82.718  28.616   4.376  1.00  0.00     0.205 C
HETATM    7  N1  UNL     1      82.638  29.405   3.357  1.00  0.00    -0.372 N
HETATM    8  N2  UNL     1      81.762  28.734   5.416  1.00  0.00    -0.062 NA
ATOM      9  H12 UNL     1      81.899  30.105   3.297  1.00  0.00     0.158 HD
ATOM     10  H11 UNL     1      83.327  29.320   2.610  1.00  0.00     0.158 HD
ATOM     11  H3  UNL     1      84.619  27.935   4.883  1.00  0.00     0.197 HD
ENDBRANCH   4   5
ENDBRANCH   3   4
ENDBRANCH   2   3
ENDBRANCH   1   2
BRANCH   1  12
HETATM   12  C4  UNL     1      80.939  26.356   1.953  1.00  0.00     0.122 C
BRANCH  12  13
HETATM   13  C5  UNL     1      80.246  26.175   3.278  1.00  0.00     0.244 C
BRANCH  13  14
HETATM   14  N5  UNL     1      80.760  25.203   4.160  1.00  0.00    -0.078 N
ATOM     15  H53 UNL     1      80.604  25.506   5.121  1.00  0.00     0.274 HD
ATOM     16  H52 UNL     1      80.171  24.371   4.122  1.00  0.00     0.274 HD
ATOM     17  H51 UNL     1      81.735  24.929   4.048  1.00  0.00     0.274 HD
ENDBRANCH  13  14
ENDBRANCH  12  13
ENDBRANCH   1  12
BRANCH   1  18
HETATM   18  C6  UNL     1      81.897  24.569   0.653  1.00  0.00     0.134 C
BRANCH  18  19
HETATM   19  C7  UNL     1      82.635  23.335   0.715  1.00  0.00     0.252 C
HETATM   20  O2  UNL     1      82.044  22.351   1.284  1.00  0.00    -0.268 OA
HETATM   21  N6  UNL     1      83.924  23.073   0.221  1.00  0.00    -0.352 N
ATOM     22  H6  UNL     1      84.400  23.848  -0.241  1.00  0.00     0.163 HD
BRANCH  21  23
HETATM   23  C8  UNL     1      84.648  21.823   0.296  1.00  0.00     0.167 C
BRANCH  23  24
HETATM   24  C9  UNL     1      84.196  20.748  -0.623  1.00  0.00     0.076 C
BRANCH  24  25
HETATM   25  N7  UNL     1      83.374  19.745  -0.127  1.00  0.00    -0.381 N
ATOM     26  H7  UNL     1      82.435  20.035   0.147  1.00  0.00     0.160 HD
BRANCH  25  27
HETATM   27  C10 UNL     1      83.662  18.418   0.044  1.00  0.00     0.207 C
HETATM   28  C11 UNL     1      84.529  17.857   1.103  1.00  0.00     0.174 C
HETATM   29  N8  UNL     1      84.663  16.731   0.145  1.00  0.00    -0.143 NA
HETATM   30  N9  UNL     1      84.569  17.732  -0.870  1.00  0.00    -0.122 NA
ENDBRANCH  25  27
ENDBRANCH  24  25
ENDBRANCH  23  24
ENDBRANCH  21  23
ENDBRANCH  18  19
ENDBRANCH   1  18
TORSDOF 13
ENDMDL