MODEL 5
REMARK VINA RESULT: -6.831853238      1.383      3.038
REMARK  13 active torsions:
REMARK  status: ('A' for Active; 'I' for Inactive)
REMARK    1  A    between atoms: N1_1  and  C1_5
REMARK    2  A    between atoms: C1_5  and  C2_6
REMARK    3  A    between atoms: C2_6  and  N2_7
REMARK    4  A    between atoms: N2_7  and  C3_10
REMARK    5  A    between atoms: C3_10  and  C4_11
REMARK       I    between atoms: C4_11  and  N3_13
REMARK    6  A    between atoms: N3_13  and  C5_15
REMARK    7  A    between atoms: C5_15  and  C6_16
REMARK       I    between atoms: C6_16  and  N4_18
REMARK    8  A    between atoms: N4_18  and  C7_20
REMARK    9  A    between atoms: C8_24  and  N6_25
REMARK       I    between atoms: N6_25  and  C9_27
REMARK   10  A    between atoms: C9_27  and  C10_29
REMARK   11  A    between atoms: C10_29  and  N7_30
REMARK   12  A    between atoms: C10_29  and  C11_34
REMARK   13  A    between atoms: C11_34  and  N8_35
ROOT
HETATM    1  C7  UNL     1      84.597  27.153   2.945  1.00  0.00     0.339 A
HETATM    2  N5  UNL     1      84.379  28.547   2.737  1.00  0.00    -0.026 N
ATOM      3  H51 UNL     1      84.123  29.084   1.908  1.00  0.00     0.282 HD
ATOM      4  H52 UNL     1      85.015  29.344   2.721  1.00  0.00     0.282 HD
HETATM    5  C8  UNL     1      83.596  27.964   3.782  1.00  0.00     0.339 A
ENDROOT
BRANCH   1   6
HETATM    6  N4  UNL     1      84.030  26.279   1.908  1.00  0.00    -0.329 N
HETATM    7  C6  UNL     1      84.541  24.995   1.671  1.00  0.00     0.237 C
HETATM    8  O2  UNL     1      85.508  24.599   2.370  1.00  0.00    -0.272 OA
ATOM      9  H4  UNL     1      83.246  26.614   1.348  1.00  0.00     0.164 HD
BRANCH   7  10
HETATM   10  C5  UNL     1      84.010  24.100   0.657  1.00  0.00     0.225 C
BRANCH  10  11
HETATM   11  N3  UNL     1      84.671  22.857   0.454  1.00  0.00    -0.351 N
HETATM   12  C4  UNL     1      83.893  21.755  -0.035  1.00  0.00     0.243 C
HETATM   13  O1  UNL     1      82.658  21.916  -0.269  1.00  0.00    -0.272 OA
ATOM     14  H3  UNL     1      85.666  22.752   0.650  1.00  0.00     0.163 HD
BRANCH  12  15
HETATM   15  C3  UNL     1      84.564  20.470  -0.248  1.00  0.00     0.334 C
BRANCH  15  16
HETATM   16  N2  UNL     1      84.083  19.435   0.610  1.00  0.00    -0.065 N
ATOM     17  H22 UNL     1      83.304  19.754   1.185  1.00  0.00     0.277 HD
ATOM     18  H21 UNL     1      84.748  19.223   1.354  1.00  0.00     0.277 HD
BRANCH  16  19
HETATM   19  C2  UNL     1      83.740  18.266  -0.138  1.00  0.00     0.260 C
BRANCH  19  20
HETATM   20  C1  UNL     1      84.495  17.033   0.391  1.00  0.00     0.257 C
BRANCH  20  21
HETATM   21  N1  UNL     1      84.873  17.356   1.759  1.00  0.00    -0.078 N
ATOM     22  H13 UNL     1      85.022  18.352   1.916  1.00  0.00     0.274 HD
ATOM     23  H12 UNL     1      84.114  17.239   2.430  1.00  0.00     0.274 HD
ATOM     24  H11 UNL     1      85.692  16.783   1.964  1.00  0.00     0.274 HD
ENDBRANCH  20  21
ENDBRANCH  19  20
ENDBRANCH  16  19
ENDBRANCH  15  16
ENDBRANCH  12  15
ENDBRANCH  10  11
ENDBRANCH   7  10
ENDBRANCH   1   6
BRANCH   5  25
HETATM   25  N6  UNL     1      82.192  27.685   3.596  1.00  0.00    -0.328 N
HETATM   26  C9  UNL     1      81.595  26.440   3.907  1.00  0.00     0.251 C
HETATM   27  O3  UNL     1      82.394  25.561   4.377  1.00  0.00    -0.271 OA
ATOM     28  H6  UNL     1      81.599  28.425   3.220  1.00  0.00     0.164 HD
BRANCH  26  29
HETATM   29  C10 UNL     1      80.191  26.093   3.742  1.00  0.00     0.299 C
BRANCH  29  30
HETATM   30  N7  UNL     1      79.976  24.713   4.149  1.00  0.00    -0.065 N
ATOM     31  H73 UNL     1      79.506  24.647   5.051  1.00  0.00     0.275 HD
ATOM     32  H72 UNL     1      79.268  24.250   3.580  1.00  0.00     0.275 HD
ATOM     33  H71 UNL     1      80.864  24.209   4.140  1.00  0.00     0.275 HD
ENDBRANCH  29  30
BRANCH  29  34
HETATM   34  C11 UNL     1      79.621  26.322   2.369  1.00  0.00     0.272 C
BRANCH  34  35
HETATM   35  N8  UNL     1      80.596  26.333   1.325  1.00  0.00    -0.077 N
ATOM     36  H83 UNL     1      81.243  27.111   1.448  1.00  0.00     0.274 HD
ATOM     37  H82 UNL     1      81.243  25.551   1.432  1.00  0.00     0.274 HD
ATOM     38  H81 UNL     1      80.202  26.342   0.384  1.00  0.00     0.274 HD
ENDBRANCH  34  35
ENDBRANCH  29  34
ENDBRANCH  26  29
ENDBRANCH   5  25
TORSDOF 13
ENDMDL