MODEL 5
REMARK VINA RESULT: -8.158678979      1.413      2.084
REMARK  11 active torsions:
REMARK  status: ('A' for Active; 'I' for Inactive)
REMARK    1  A    between atoms: N2_3  and  N3_5
REMARK    2  A    between atoms: N3_5  and  N4_7
REMARK    3  A    between atoms: N4_7  and  C2_8
REMARK    4  A    between atoms: C2_8  and  C3_9
REMARK    5  A    between atoms: C4_13  and  N6_14
REMARK       I    between atoms: N6_14  and  C5_16
REMARK    6  A    between atoms: C5_16  and  C6_18
REMARK    7  A    between atoms: C6_18  and  C7_19
REMARK    8  A    between atoms: C7_19  and  C8_20
REMARK    9  A    between atoms: C8_20  and  N7_21
REMARK   10  A    between atoms: C10_26  and  C11_27
REMARK   11  A    between atoms: C11_27  and  O2_28
ROOT
HETATM    1  C3  UNL     1      83.610  26.595   2.113  1.00  0.00     0.340 C
HETATM    2  N5  UNL     1      82.801  25.417   2.065  1.00  0.00    -0.024 N
ATOM      3  H51 UNL     1      82.307  25.298   1.181  1.00  0.00     0.282 HD
ATOM      4  H52 UNL     1      81.975  25.465   2.662  1.00  0.00     0.282 HD
HETATM    5  C4  UNL     1      83.677  24.327   2.383  1.00  0.00     0.321 C
HETATM    6  C10 UNL     1      85.027  24.924   2.178  1.00  0.00     0.198 C
HETATM    7  O3  UNL     1      84.843  26.226   2.618  1.00  0.00    -0.346 OA
ENDROOT
BRANCH   5   8
HETATM    8  N6  UNL     1      83.416  23.117   1.681  1.00  0.00    -0.331 N
HETATM    9  C5  UNL     1      82.436  23.016   0.648  1.00  0.00     0.219 C
HETATM   10  O1  UNL     1      81.787  24.047   0.359  1.00  0.00    -0.274 OA
ATOM     11  H6  UNL     1      83.952  22.285   1.928  1.00  0.00     0.164 HD
BRANCH   9  12
HETATM   12  C6  UNL     1      82.241  21.740  -0.012  1.00  0.00     0.108 C
BRANCH  12  13
HETATM   13  C7  UNL     1      83.400  20.987  -0.521  1.00  0.00     0.054 C
BRANCH  13  14
HETATM   14  C8  UNL     1      83.427  19.517  -0.388  1.00  0.00     0.063 C
BRANCH  14  15
HETATM   15  N7  UNL     1      84.049  18.944   0.739  1.00  0.00    -0.347 N
HETATM   16  C9  UNL     1      84.538  17.757   0.825  1.00  0.00     0.200 C
HETATM   17  N8  UNL     1      85.136  17.345   2.056  1.00  0.00    -0.067 NA
HETATM   18  N9  UNL     1      84.515  16.830  -0.238  1.00  0.00    -0.067 NA
ATOM     19  H7  UNL     1      84.119  19.530   1.572  1.00  0.00     0.167 HD
ENDBRANCH  14  15
ENDBRANCH  13  14
ENDBRANCH  12  13
ENDBRANCH   9  12
ENDBRANCH   5   8
BRANCH   6  20
HETATM   20  C11 UNL     1      85.558  24.825   0.798  1.00  0.00     0.200 C
BRANCH  20  21
HETATM   21  O2  UNL     1      86.695  25.535   0.540  1.00  0.00    -0.398 OA
ATOM     22  H2  UNL     1      86.759  25.920  -0.327  1.00  0.00     0.209 HD
ENDBRANCH  20  21
ENDBRANCH   6  20
BRANCH   1  23
HETATM   23  C2  UNL     1      82.955  27.654   3.020  1.00  0.00     0.197 C
BRANCH  23  24
HETATM   24  N4  UNL     1      82.938  27.119   4.355  1.00  0.00    -0.121 NA
BRANCH  24  25
HETATM   25  N3  UNL     1      81.636  27.023   4.862  1.00  0.00    -0.246 N
ATOM     26  H3  UNL     1      81.457  26.686   5.808  1.00  0.00     0.203 HD
BRANCH  25  27
HETATM   27  N2  UNL     1      80.595  27.410   4.017  1.00  0.00    -0.287 N
HETATM   28  C1  UNL     1      79.872  26.462   3.494  1.00  0.00     0.207 C
HETATM   29  N1  UNL     1      80.102  25.086   3.749  1.00  0.00    -0.095 NA
ATOM     30  H2  UNL     1      80.408  28.393   3.817  1.00  0.00     0.188 HD
ENDBRANCH  25  27
ENDBRANCH  24  25
ENDBRANCH  23  24
ENDBRANCH   1  23
TORSDOF 11
ENDMDL