MODEL 4
REMARK VINA RESULT: -6.020044537      2.257      3.360
REMARK  15 active torsions:
REMARK  status: ('A' for Active; 'I' for Inactive)
REMARK    1  A    between atoms: N1_1  and  C1_5
REMARK    2  A    between atoms: C1_5  and  C2_6
REMARK    3  A    between atoms: C2_6  and  C3_7
REMARK    4  A    between atoms: C3_7  and  N2_8
REMARK    5  A    between atoms: C3_7  and  C5_15
REMARK    6  A    between atoms: N2_8  and  N3_9
REMARK    7  A    between atoms: N3_9  and  C4_10
REMARK    8  A    between atoms: C4_10  and  N4_11
REMARK       I    between atoms: C5_15  and  N5_17
REMARK    9  A    between atoms: N5_17  and  C6_19
REMARK   10  A    between atoms: N7_25  and  C9_26
REMARK   11  A    between atoms: N7_25  and  C11_30
REMARK   12  A    between atoms: C9_26  and  C10_27
REMARK   13  A    between atoms: C10_27  and  O2_28
REMARK   14  A    between atoms: C11_30  and  C12_31
REMARK   15  A    between atoms: C12_31  and  O3_32
ROOT
HETATM    1  C5  UNL     1      82.619  22.789   0.466  1.00  0.00     0.240 C
HETATM    2  O1  UNL     1      81.555  22.582  -0.063  1.00  0.00    -0.272 OA
HETATM    3  N5  UNL     1      82.773  23.933   1.329  1.00  0.00    -0.330 N
ATOM      4  H5  UNL     1      83.663  24.092   1.803  1.00  0.00     0.164 HD
ENDROOT
BRANCH   3   5
HETATM    5  C6  UNL     1      81.688  24.851   1.527  1.00  0.00     0.319 C
HETATM    6  C7  UNL     1      81.578  25.612   0.184  1.00  0.00     0.289 C
HETATM    7  N6  UNL     1      80.897  26.784   0.534  1.00  0.00    -0.047 N
HETATM    8  C8  UNL     1      80.566  26.721   1.913  1.00  0.00     0.470 C
ATOM      9  H62 UNL     1      81.421  27.626   0.296  1.00  0.00     0.279 HD
ATOM     10  H61 UNL     1      80.083  26.954  -0.056  1.00  0.00     0.279 HD
HETATM   11  N7  UNL     1      81.688  25.853   2.483  1.00  0.00    -0.017 N
BRANCH  11  12
HETATM   12  C9  UNL     1      82.794  26.747   2.435  1.00  0.00     0.268 C
BRANCH  12  13
HETATM   13  C10 UNL     1      83.405  27.233   3.693  1.00  0.00     0.192 C
BRANCH  13  14
HETATM   14  O2  UNL     1      84.796  27.353   3.672  1.00  0.00    -0.399 OA
ATOM     15  H2  UNL     1      85.258  26.831   4.319  1.00  0.00     0.209 HD
ENDBRANCH  13  14
ENDBRANCH  12  13
ENDBRANCH  11  12
BRANCH  11  16
HETATM   16  C11 UNL     1      81.256  25.426   3.771  1.00  0.00     0.268 C
BRANCH  16  17
HETATM   17  C12 UNL     1      79.766  25.600   4.021  1.00  0.00     0.192 C
BRANCH  17  18
HETATM   18  O3  UNL     1      79.295  24.328   4.452  1.00  0.00    -0.399 OA
ATOM     19  H3  UNL     1      78.351  24.412   4.523  1.00  0.00     0.209 HD
ENDBRANCH  17  18
ENDBRANCH  16  17
ENDBRANCH  11  16
ENDBRANCH   3   5
BRANCH   1  20
HETATM   20  C3  UNL     1      83.902  21.901   0.304  1.00  0.00     0.188 C
BRANCH  20  21
HETATM   21  C2  UNL     1      83.623  20.812  -0.628  1.00  0.00     0.059 C
BRANCH  21  22
HETATM   22  C1  UNL     1      84.469  19.573  -0.295  1.00  0.00     0.231 C
BRANCH  22  23
HETATM   23  N1  UNL     1      84.221  18.949   0.933  1.00  0.00    -0.079 N
ATOM     24  H13 UNL     1      83.916  19.645   1.614  1.00  0.00     0.274 HD
ATOM     25  H12 UNL     1      83.379  18.377   0.860  1.00  0.00     0.274 HD
ATOM     26  H11 UNL     1      84.978  18.393   1.329  1.00  0.00     0.274 HD
ENDBRANCH  22  23
ENDBRANCH  21  22
ENDBRANCH  20  21
BRANCH  20  27
HETATM   27  N2  UNL     1      84.892  22.854  -0.016  1.00  0.00    -0.132 NA
BRANCH  27  28
HETATM   28  N3  UNL     1      85.409  23.556   1.102  1.00  0.00    -0.120 NA
BRANCH  28  29
HETATM   29  C4  UNL     1      85.493  24.967   0.740  1.00  0.00     0.359 C
BRANCH  29  30
HETATM   30  N4  UNL     1      86.865  25.347   0.363  1.00  0.00    -0.065 N
ATOM     31  H43 UNL     1      86.936  25.548  -0.635  1.00  0.00     0.275 HD
ATOM     32  H42 UNL     1      87.111  26.269   0.726  1.00  0.00     0.275 HD
ATOM     33  H41 UNL     1      87.541  24.640   0.650  1.00  0.00     0.275 HD
ENDBRANCH  29  30
ENDBRANCH  28  29
ENDBRANCH  27  28
ENDBRANCH  20  27
ENDBRANCH   1  20
TORSDOF 15
ENDMDL