MODEL 2
REMARK VINA RESULT: -8.317159912      1.312      1.570
REMARK  13 active torsions:
REMARK  status: ('A' for Active; 'I' for Inactive)
REMARK    1  A    between atoms: N1_1  and  N2_4
REMARK    2  A    between atoms: N2_4  and  C1_5
REMARK    3  A    between atoms: C1_5  and  C2_6
REMARK    4  A    between atoms: C3_7  and  N3_8
REMARK    5  A    between atoms: N3_8  and  C4_10
REMARK    6  A    between atoms: C5_12  and  N4_13
REMARK    7  A    between atoms: C6_17  and  N5_18
REMARK       I    between atoms: N5_18  and  C7_20
REMARK    8  A    between atoms: C7_20  and  C8_22
REMARK    9  A    between atoms: C8_22  and  N6_23
REMARK   10  A    between atoms: C8_22  and  C9_27
REMARK   11  A    between atoms: C9_27  and  C10_28
REMARK   12  A    between atoms: C10_28  and  C11_29
REMARK   13  A    between atoms: C11_29  and  N7_30
ROOT
HETATM    1  C2  UNL     1      83.000  25.676   2.882  1.00  0.00     0.052 C
HETATM    2  C3  UNL     1      82.147  26.940   2.661  1.00  0.00     0.123 C
HETATM    3  C5  UNL     1      82.147  26.512   1.191  1.00  0.00     0.229 C
HETATM    4  C6  UNL     1      82.258  25.101   1.783  1.00  0.00     0.124 C
ENDROOT
BRANCH   4   5
HETATM    5  N5  UNL     1      82.779  24.155   0.869  1.00  0.00    -0.352 N
HETATM    6  C7  UNL     1      82.566  22.789   0.786  1.00  0.00     0.248 C
HETATM    7  O2  UNL     1      81.818  22.216   1.601  1.00  0.00    -0.271 OA
ATOM      8  H5  UNL     1      83.408  24.538   0.163  1.00  0.00     0.163 HD
BRANCH   6   9
HETATM    9  C8  UNL     1      83.207  21.961  -0.254  1.00  0.00     0.274 C
BRANCH   9  10
HETATM   10  N6  UNL     1      84.601  21.753   0.105  1.00  0.00    -0.067 N
ATOM     11  H63 UNL     1      84.707  21.163   0.930  1.00  0.00     0.275 HD
ATOM     12  H62 UNL     1      85.090  21.156  -0.562  1.00  0.00     0.275 HD
ATOM     13  H61 UNL     1      85.051  22.662   0.216  1.00  0.00     0.275 HD
ENDBRANCH   9  10
BRANCH   9  14
HETATM   14  C9  UNL     1      82.550  20.623  -0.387  1.00  0.00     0.044 C
BRANCH  14  15
HETATM   15  C10 UNL     1      83.014  19.933  -1.630  1.00  0.00     0.022 C
BRANCH  15  16
HETATM   16  C11 UNL     1      83.559  18.539  -1.392  1.00  0.00     0.122 C
BRANCH  16  17
HETATM   17  N7  UNL     1      83.879  18.358   0.031  1.00  0.00    -0.367 N
HETATM   18  C12 UNL     1      84.591  17.339   0.401  1.00  0.00     0.196 C
HETATM   19  N8  UNL     1      84.881  17.191   1.774  1.00  0.00    -0.067 NA
HETATM   20  N9  UNL     1      85.078  16.384  -0.515  1.00  0.00    -0.067 NA
ATOM     21  H7  UNL     1      83.544  19.028   0.722  1.00  0.00     0.161 HD
ENDBRANCH  16  17
ENDBRANCH  15  16
ENDBRANCH  14  15
ENDBRANCH   9  14
ENDBRANCH   6   9
ENDBRANCH   4   5
BRANCH   1  22
HETATM   22  C1  UNL     1      84.433  26.022   2.809  1.00  0.00     0.143 C
BRANCH  22  23
HETATM   23  N2  UNL     1      85.203  24.885   2.307  1.00  0.00    -0.148 NA
BRANCH  23  24
HETATM   24  N1  UNL     1      85.790  25.154   1.076  1.00  0.00    -0.348 N
ATOM     25  H12 UNL     1      85.278  25.116   0.194  1.00  0.00     0.172 HD
ATOM     26  H11 UNL     1      86.779  25.389   1.166  1.00  0.00     0.172 HD
ENDBRANCH  23  24
ENDBRANCH  22  23
ENDBRANCH   1  22
BRANCH   3  27
HETATM   27  N4  UNL     1      80.889  26.716   0.519  1.00  0.00    -0.071 N
ATOM     28  H43 UNL     1      80.643  27.706   0.514  1.00  0.00     0.274 HD
ATOM     29  H42 UNL     1      80.991  26.559  -0.484  1.00  0.00     0.274 HD
ATOM     30  H41 UNL     1      80.122  26.157   0.893  1.00  0.00     0.274 HD
ENDBRANCH   3  27
BRANCH   2  31
HETATM   31  N3  UNL     1      82.819  28.170   2.855  1.00  0.00    -0.361 N
ATOM     32  H3  UNL     1      83.520  28.476   2.179  1.00  0.00     0.162 HD
BRANCH  31  33
HETATM   33  C4  UNL     1      82.527  28.976   3.975  1.00  0.00     0.348 C
HETATM   34  O1  UNL     1      81.607  28.711   4.787  1.00  0.00    -0.284 OA
ENDBRANCH  31  33
ENDBRANCH   2  31
TORSDOF 13
ENDMDL