MODEL 3
REMARK VINA RESULT: -7.666275417      1.491      3.024
REMARK  13 active torsions:
REMARK  status: ('A' for Active; 'I' for Inactive)
REMARK    1  A    between atoms: N1_1  and  C1_5
REMARK    2  A    between atoms: C1_5  and  C2_6
REMARK    3  A    between atoms: C2_6  and  C3_7
REMARK    4  A    between atoms: C2_6  and  N5_13
REMARK    5  A    between atoms: C3_7  and  N2_8
REMARK    6  A    between atoms: N5_13  and  C5_15
REMARK    7  A    between atoms: C5_15  and  C6_16
REMARK    8  A    between atoms: C6_16  and  O1_17
REMARK    9  A    between atoms: O1_17  and  C7_18
REMARK   10  A    between atoms: C8_22  and  C9_23
REMARK   11  A    between atoms: C9_23  and  O2_24
REMARK   12  A    between atoms: C10_26  and  N7_27
REMARK   13  A    between atoms: C10_26  and  C11_31
ROOT
HETATM    1  O1  UNL     1      83.209  24.222   1.284  1.00  0.00    -0.355 OA
ENDROOT
BRANCH   1   2
HETATM    2  C6  UNL     1      84.561  24.110   1.090  1.00  0.00     0.189 C
BRANCH   2   3
HETATM    3  C5  UNL     1      85.044  22.980   0.243  1.00  0.00     0.140 C
BRANCH   3   4
HETATM    4  N5  UNL     1      84.328  21.798   0.535  1.00  0.00    -0.412 N
ATOM      5  H5  UNL     1      84.241  21.471   1.497  1.00  0.00     0.153 HD
BRANCH   4   6
HETATM    6  C2  UNL     1      83.734  21.074  -0.524  1.00  0.00     0.119 C
BRANCH   6   7
HETATM    7  C1  UNL     1      82.254  21.108  -0.639  1.00  0.00     0.255 C
BRANCH   7   8
HETATM    8  N1  UNL     1      81.628  22.346  -0.249  1.00  0.00    -0.077 N
ATOM      9  H13 UNL     1      82.270  22.897   0.323  1.00  0.00     0.274 HD
ATOM     10  H12 UNL     1      81.535  22.960  -1.057  1.00  0.00     0.274 HD
ATOM     11  H11 UNL     1      80.730  22.254   0.225  1.00  0.00     0.274 HD
ENDBRANCH   7   8
ENDBRANCH   6   7
BRANCH   6  12
HETATM   12  C3  UNL     1      84.230  19.640  -0.641  1.00  0.00     0.148 C
BRANCH  12  13
HETATM   13  N2  UNL     1      84.507  19.066   0.658  1.00  0.00    -0.365 N
HETATM   14  C4  UNL     1      84.681  17.784   0.763  1.00  0.00     0.197 C
HETATM   15  N3  UNL     1      84.600  16.953  -0.384  1.00  0.00    -0.067 NA
HETATM   16  N4  UNL     1      84.954  17.179   2.019  1.00  0.00    -0.067 NA
ATOM     17  H2  UNL     1      84.565  19.664   1.482  1.00  0.00     0.161 HD
ENDBRANCH  12  13
ENDBRANCH   6  12
ENDBRANCH   4   6
ENDBRANCH   3   4
ENDBRANCH   2   3
ENDBRANCH   1   2
BRANCH   1  18
HETATM   18  C7  UNL     1      82.764  24.327   2.568  1.00  0.00     0.369 C
HETATM   19  N6  UNL     1      83.805  24.789   3.513  1.00  0.00    -0.036 N
HETATM   20  C8  UNL     1      83.137  26.077   3.617  1.00  0.00     0.261 C
ATOM     21  H62 UNL     1      84.006  24.248   4.353  1.00  0.00     0.281 HD
ATOM     22  H61 UNL     1      84.790  24.744   3.249  1.00  0.00     0.281 HD
HETATM   23  C10 UNL     1      81.952  25.521   2.977  1.00  0.00     0.281 C
BRANCH  20  24
HETATM   24  C9  UNL     1      83.962  27.168   3.083  1.00  0.00     0.200 C
BRANCH  24  25
HETATM   25  O2  UNL     1      85.132  27.483   3.693  1.00  0.00    -0.399 OA
ATOM     26  H2  UNL     1      85.932  27.044   3.430  1.00  0.00     0.209 HD
ENDBRANCH  24  25
ENDBRANCH  20  24
BRANCH  23  27
HETATM   27  N7  UNL     1      80.940  25.126   3.993  1.00  0.00    -0.055 N
ATOM     28  H73 UNL     1      81.192  24.259   4.466  1.00  0.00     0.276 HD
ATOM     29  H72 UNL     1      80.950  25.746   4.803  1.00  0.00     0.276 HD
ATOM     30  H71 UNL     1      80.015  25.073   3.565  1.00  0.00     0.276 HD
ENDBRANCH  23  27
BRANCH  23  31
HETATM   31  C11 UNL     1      81.259  26.179   1.892  1.00  0.00     0.274 C
HETATM   32  N8  UNL     1      81.912  26.634   0.722  1.00  0.00    -0.060 NA
HETATM   33  O3  UNL     1      80.027  26.372   1.955  1.00  0.00    -0.274 OA
ENDBRANCH  23  31
ENDBRANCH   1  18
TORSDOF 13
ENDMDL