MODEL 2
REMARK VINA RESULT: -7.453634140      2.135      7.487
REMARK  12 active torsions:
REMARK  status: ('A' for Active; 'I' for Inactive)
REMARK    1  A    between atoms: N1_1  and  C1_4
REMARK    2  A    between atoms: C2_7  and  C3_8
REMARK    3  A    between atoms: C3_8  and  C4_9
REMARK    4  A    between atoms: C4_9  and  C5_10
REMARK    5  A    between atoms: C5_10  and  N3_11
REMARK    6  A    between atoms: N4_15  and  C6_17
REMARK    7  A    between atoms: C6_17  and  C7_18
REMARK    8  A    between atoms: C6_17  and  C10_28
REMARK    9  A    between atoms: C7_18  and  N5_19
REMARK   10  A    between atoms: N5_19  and  C8_22
REMARK   11  A    between atoms: C8_22  and  C9_23
REMARK   12  A    between atoms: C9_23  and  N6_24
ROOT
HETATM    1  C4  UNL     1      83.260  22.072   0.689  1.00  0.00     0.018 C
HETATM    2  N4  UNL     1      83.424  23.167   1.487  1.00  0.00    -0.359 N
ATOM      3  H4  UNL     1      83.226  23.008   2.475  1.00  0.00     0.165 HD
ENDROOT
BRANCH   1   4
HETATM    4  C3  UNL     1      84.522  21.615  -0.064  1.00  0.00     0.112 C
BRANCH   4   5
HETATM    5  C2  UNL     1      84.522  20.102  -0.227  1.00  0.00     0.037 A
HETATM    6  N2  UNL     1      84.610  19.315   0.844  1.00  0.00    -0.195 N
HETATM    7  C1  UNL     1      84.615  17.985   0.683  1.00  0.00     0.678 A
ATOM      8  H2  UNL     1      84.674  19.720   1.777  1.00  0.00     0.184 HD
HETATM    9  N8  UNL     1      84.532  17.429  -0.564  1.00  0.00    -0.156 N
HETATM   10  C12 UNL     1      84.443  18.204  -1.657  1.00  0.00     0.261 A
ATOM     11  H8  UNL     1      84.537  16.415  -0.665  1.00  0.00     0.187 HD
HETATM   12  C11 UNL     1      84.438  19.554  -1.482  1.00  0.00     0.100 A
HETATM   13  O2  UNL     1      84.368  17.666  -2.797  1.00  0.00    -0.268 OA
BRANCH   7  14
HETATM   14  N1  UNL     1      84.702  17.240   1.722  1.00  0.00    -0.234 N
ATOM     15  H12 UNL     1      83.925  17.176   2.379  1.00  0.00     0.174 HD
ATOM     16  H11 UNL     1      85.562  16.713   1.875  1.00  0.00     0.174 HD
ENDBRANCH   7  14
ENDBRANCH   4   5
ENDBRANCH   1   4
BRANCH   1  17
HETATM   17  C5  UNL     1      82.048  21.818  -0.134  1.00  0.00     0.282 C
BRANCH  17  18
HETATM   18  N3  UNL     1      81.321  22.983  -0.547  1.00  0.00    -0.074 N
ATOM     19  H33 UNL     1      81.885  23.534  -1.193  1.00  0.00     0.274 HD
ATOM     20  H32 UNL     1      80.552  22.713  -1.160  1.00  0.00     0.274 HD
ATOM     21  H31 UNL     1      80.972  23.578   0.205  1.00  0.00     0.274 HD
ENDBRANCH  17  18
ENDBRANCH   1  17
BRANCH   2  22
HETATM   22  C6  UNL     1      83.816  24.458   1.176  1.00  0.00     0.100 C
BRANCH  22  23
HETATM   23  C7  UNL     1      82.848  25.552   1.414  1.00  0.00     0.294 C
BRANCH  23  24
HETATM   24  N5  UNL     1      83.097  26.215   2.673  1.00  0.00    -0.068 N
ATOM     25  H52 UNL     1      84.071  26.118   2.959  1.00  0.00     0.277 HD
ATOM     26  H51 UNL     1      83.061  27.229   2.574  1.00  0.00     0.277 HD
BRANCH  24  27
HETATM   27  C8  UNL     1      82.192  25.751   3.705  1.00  0.00     0.260 C
BRANCH  27  28
HETATM   28  C9  UNL     1      80.742  25.785   3.299  1.00  0.00     0.257 C
BRANCH  28  29
HETATM   29  N6  UNL     1      79.927  24.875   4.040  1.00  0.00    -0.078 N
ATOM     30  H63 UNL     1      80.057  23.919   3.708  1.00  0.00     0.274 HD
ATOM     31  H62 UNL     1      80.275  24.771   4.993  1.00  0.00     0.274 HD
ATOM     32  H61 UNL     1      78.939  25.127   4.041  1.00  0.00     0.274 HD
ENDBRANCH  28  29
ENDBRANCH  27  28
ENDBRANCH  24  27
ENDBRANCH  23  24
ENDBRANCH  22  23
BRANCH  22  33
HETATM   33  C10 UNL     1      85.218  24.856   1.456  1.00  0.00     0.279 C
HETATM   34  N7  UNL     1      86.203  25.145   0.486  1.00  0.00    -0.056 NA
HETATM   35  O1  UNL     1      85.618  24.965   2.665  1.00  0.00    -0.270 OA
ENDBRANCH  22  33
ENDBRANCH   2  22
TORSDOF 12
ENDMDL