MODEL 2
REMARK VINA RESULT: -8.097155279      1.358      1.433
REMARK  13 active torsions:
REMARK  status: ('A' for Active; 'I' for Inactive)
REMARK    1  A    between atoms: N1_1  and  C1_5
REMARK    2  A    between atoms: C1_5  and  C2_6
REMARK    3  A    between atoms: C4_8  and  C5_9
REMARK    4  A    between atoms: C5_9  and  C6_10
REMARK    5  A    between atoms: C5_9  and  N2_12
REMARK    6  A    between atoms: N2_12  and  C7_14
REMARK    7  A    between atoms: C7_14  and  C8_15
REMARK    8  A    between atoms: C7_14  and  C9_17
REMARK    9  A    between atoms: C9_17  and  N3_18
REMARK   10  A    between atoms: C9_17  and  N4_22
REMARK   11  A    between atoms: N4_22  and  C10_25
REMARK   12  A    between atoms: C10_25  and  C11_26
REMARK   13  A    between atoms: C11_26  and  N5_27
ROOT
HETATM    1  C7  UNL     1      84.178  23.945   0.738  1.00  0.00     0.197 C
ENDROOT
BRANCH   1   2
HETATM    2  N2  UNL     1      84.308  22.571   0.639  1.00  0.00    -0.396 N
ATOM      3  H2  UNL     1      84.794  22.139   1.426  1.00  0.00     0.154 HD
BRANCH   2   4
HETATM    4  C5  UNL     1      83.902  21.685  -0.325  1.00  0.00     0.173 C
BRANCH   4   5
HETATM    5  C4  UNL     1      84.417  20.290  -0.161  1.00  0.00     0.238 C
HETATM    6  C3  UNL     1      84.683  19.492  -1.336  1.00  0.00     0.014 C
HETATM    7  C2  UNL     1      84.630  18.211  -0.902  1.00  0.00    -0.031 C
HETATM    8  C13 UNL     1      84.388  18.213   0.603  1.00  0.00     0.269 C
HETATM    9  N8  UNL     1      83.681  19.465   0.736  1.00  0.00    -0.062 N
ATOM     10  H82 UNL     1      83.594  19.820   1.688  1.00  0.00     0.278 HD
ATOM     11  H81 UNL     1      82.676  19.421   0.566  1.00  0.00     0.278 HD
BRANCH   7  12
HETATM   12  C1  UNL     1      84.793  16.933  -1.614  1.00  0.00     0.265 C
BRANCH  12  13
HETATM   13  N1  UNL     1      85.544  15.946  -0.912  1.00  0.00    -0.076 N
ATOM     14  H13 UNL     1      86.107  16.384  -0.183  1.00  0.00     0.274 HD
ATOM     15  H12 UNL     1      84.925  15.374  -0.338  1.00  0.00     0.274 HD
ATOM     16  H11 UNL     1      86.128  15.352  -1.500  1.00  0.00     0.274 HD
ENDBRANCH  12  13
ENDBRANCH   7  12
ENDBRANCH   4   5
BRANCH   4  17
HETATM   17  C6  UNL     1      82.375  21.457  -0.155  1.00  0.00     0.258 C
HETATM   18  O1  UNL     1      81.792  20.939  -1.139  1.00  0.00    -0.305 OA
ENDBRANCH   4  17
ENDBRANCH   2   4
ENDBRANCH   1   2
BRANCH   1  19
HETATM   19  C8  UNL     1      85.543  24.491   1.172  1.00  0.00     0.259 C
HETATM   20  O2  UNL     1      85.746  25.639   0.736  1.00  0.00    -0.305 OA
ENDBRANCH   1  19
BRANCH   1  21
HETATM   21  C9  UNL     1      83.249  24.442   1.778  1.00  0.00     0.408 C
BRANCH  21  22
HETATM   22  N3  UNL     1      83.971  24.551   3.080  1.00  0.00    -0.048 N
ATOM     23  H33 UNL     1      84.940  24.240   3.010  1.00  0.00     0.276 HD
ATOM     24  H32 UNL     1      84.148  25.521   3.342  1.00  0.00     0.276 HD
ATOM     25  H31 UNL     1      83.455  24.045   3.799  1.00  0.00     0.276 HD
ENDBRANCH  21  22
BRANCH  21  26
HETATM   26  N4  UNL     1      82.824  25.795   1.546  1.00  0.00    -0.042 N
ATOM     27  H42 UNL     1      83.303  26.450   2.164  1.00  0.00     0.279 HD
ATOM     28  H41 UNL     1      83.166  26.147   0.651  1.00  0.00     0.279 HD
BRANCH  26  29
HETATM   29  C10 UNL     1      81.418  25.917   1.649  1.00  0.00     0.254 C
BRANCH  29  30
HETATM   30  C11 UNL     1      80.776  25.913   2.999  1.00  0.00     0.149 C
BRANCH  30  31
HETATM   31  N5  UNL     1      81.031  27.128   3.684  1.00  0.00    -0.365 N
HETATM   32  C12 UNL     1      81.974  27.662   4.281  1.00  0.00     0.197 C
HETATM   33  N6  UNL     1      83.293  27.115   4.486  1.00  0.00    -0.067 NA
HETATM   34  N7  UNL     1      81.793  28.991   4.873  1.00  0.00    -0.067 NA
ATOM     35  H5  UNL     1      80.207  27.730   3.685  1.00  0.00     0.161 HD
ENDBRANCH  30  31
ENDBRANCH  29  30
ENDBRANCH  26  29
ENDBRANCH  21  26
ENDBRANCH   1  21
TORSDOF 13
ENDMDL