MODEL 5
REMARK VINA RESULT: -7.600982589      1.864      2.769
REMARK  12 active torsions:
REMARK  status: ('A' for Active; 'I' for Inactive)
REMARK    1  A    between atoms: C2_2  and  C3_3
REMARK    2  A    between atoms: C3_3  and  N1_4
REMARK    3  A    between atoms: N1_4  and  C4_6
REMARK    4  A    between atoms: C4_6  and  C5_7
REMARK    5  A    between atoms: N2_9  and  C6_11
REMARK    6  A    between atoms: C6_11  and  N3_13
REMARK    7  A    between atoms: C6_11  and  C10_28
REMARK       I    between atoms: N3_13  and  C8_15
REMARK    8  A    between atoms: C8_15  and  C9_17
REMARK    9  A    between atoms: C9_17  and  N6_23
REMARK   10  A    between atoms: N4_18  and  N5_20
REMARK   11  A    between atoms: N6_23  and  N7_25
REMARK       I    between atoms: C10_28  and  N8_30
REMARK   12  A    between atoms: N8_30  and  N9_32
ROOT
HETATM    1  C6  UNL     1      10.624  45.487  -1.256  1.00  0.00     0.189 C
HETATM    2  C7  UNL     1       9.674  45.079  -2.388  1.00  0.00     0.074 C
ENDROOT
BRANCH   1   3
HETATM    3  N2  UNL     1      11.072  46.798  -1.283  1.00  0.00    -0.340 N
HETATM    4  C4  UNL     1      12.100  47.480  -1.161  1.00  0.00     0.138 C
ATOM      5  H2  UNL     1      10.282  47.416  -1.469  1.00  0.00     0.164 HD
BRANCH   4   6
HETATM    6  N1  UNL     1      12.023  48.930  -1.289  1.00  0.00    -0.371 N
ATOM      7  H1  UNL     1      12.107  49.417  -2.181  1.00  0.00     0.161 HD
BRANCH   6   8
HETATM    8  C3  UNL     1      11.814  49.617  -0.020  1.00  0.00     0.148 C
BRANCH   8   9
HETATM    9  C2  UNL     1      12.999  50.401   0.392  1.00  0.00    -0.018 C
HETATM   10  C1  UNL     1      12.975  51.711   0.352  1.00  0.00     0.008 C
ENDBRANCH   8   9
ENDBRANCH   6   8
ENDBRANCH   4   6
BRANCH   4  11
HETATM   11  C5  UNL     1      13.412  46.938  -0.887  1.00  0.00     0.306 C
HETATM   12  O1  UNL     1      14.149  46.638  -1.889  1.00  0.00    -0.298 OA
ENDBRANCH   4  11
ENDBRANCH   1   3
BRANCH   1  13
HETATM   13  N3  UNL     1      11.783  44.585  -1.331  1.00  0.00    -0.320 N
HETATM   14  C8  UNL     1      12.215  44.085  -2.583  1.00  0.00     0.290 C
HETATM   15  O2  UNL     1      11.580  44.424  -3.611  1.00  0.00    -0.264 OA
ATOM     16  H3  UNL     1      12.276  44.319  -0.479  1.00  0.00     0.165 HD
BRANCH  14  17
HETATM   17  C9  UNL     1      13.360  43.203  -2.728  1.00  0.00     0.203 C
HETATM   18  N4  UNL     1      13.233  41.928  -2.855  1.00  0.00    -0.286 N
ATOM     19  H4  UNL     1      14.060  41.340  -2.956  1.00  0.00     0.188 HD
BRANCH  18  20
HETATM   20  N5  UNL     1      11.983  41.363  -2.852  1.00  0.00    -0.343 N
ATOM     21  H52 UNL     1      11.175  41.946  -2.635  1.00  0.00     0.176 HD
ATOM     22  H51 UNL     1      11.874  40.372  -3.067  1.00  0.00     0.176 HD
ENDBRANCH  18  20
BRANCH  17  23
HETATM   23  N6  UNL     1      14.715  43.698  -2.750  1.00  0.00    -0.286 N
ATOM     24  H6  UNL     1      14.924  44.677  -2.944  1.00  0.00     0.188 HD
BRANCH  23  25
HETATM   25  N7  UNL     1      15.724  42.773  -2.494  1.00  0.00    -0.343 N
ATOM     26  H72 UNL     1      15.544  41.950  -1.918  1.00  0.00     0.176 HD
ATOM     27  H71 UNL     1      16.637  42.963  -2.908  1.00  0.00     0.176 HD
ENDBRANCH  23  25
ENDBRANCH  17  23
ENDBRANCH  14  17
ENDBRANCH   1  13
BRANCH   1  28
HETATM   28  C10 UNL     1       9.936  45.108   0.018  1.00  0.00     0.284 C
HETATM   29  O3  UNL     1       9.283  45.969   0.654  1.00  0.00    -0.267 OA
HETATM   30  N8  UNL     1      10.009  43.787   0.521  1.00  0.00    -0.273 N
ATOM     31  H8  UNL     1      10.531  43.070   0.016  1.00  0.00     0.189 HD
BRANCH  30  32
HETATM   32  N9  UNL     1       9.347  43.469   1.736  1.00  0.00    -0.342 N
ATOM     33  H92 UNL     1       9.451  44.089   2.538  1.00  0.00     0.176 HD
ATOM     34  H91 UNL     1       8.777  42.625   1.787  1.00  0.00     0.176 HD
ENDBRANCH  30  32
ENDBRANCH   1  28
TORSDOF 12
ENDMDL