MODEL 1
REMARK VINA RESULT: -9.523232334      0.000      0.000
REMARK  7 active torsions:
REMARK  status: ('A' for Active; 'I' for Inactive)
REMARK    1  A    between atoms: N3_4  and  N4_6
REMARK       I    between atoms: C2_8  and  N6_10
REMARK    2  A    between atoms: N6_10  and  C3_12
REMARK    3  A    between atoms: C3_12  and  C4_13
REMARK    4  A    between atoms: C4_13  and  N7_14
REMARK    5  A    between atoms: N7_14  and  C5_16
REMARK    6  A    between atoms: C5_16  and  C6_17
REMARK    7  A    between atoms: C6_17  and  N8_18
ROOT
HETATM    1  N7  UNL     1      14.074  46.608  -1.000  1.00  0.00    -0.399 N
ATOM      2  H7  UNL     1      14.761  46.421  -0.271  1.00  0.00     0.158 HD
ENDROOT
BRANCH   1   3
HETATM    3  C4  UNL     1      13.502  47.888  -1.114  1.00  0.00     0.075 C
BRANCH   3   4
HETATM    4  C3  UNL     1      12.373  48.256  -0.226  1.00  0.00     0.166 C
BRANCH   4   5
HETATM    5  N6  UNL     1      11.670  49.460  -0.562  1.00  0.00    -0.359 N
HETATM    6  C2  UNL     1      11.872  50.672   0.185  1.00  0.00     0.203 C
HETATM    7  N4  UNL     1      12.767  51.494  -0.190  1.00  0.00    -0.272 N
HETATM    8  N5  UNL     1      11.057  50.889   1.311  1.00  0.00    -0.062 NA
ATOM      9  H4  UNL     1      13.318  51.266  -1.017  1.00  0.00     0.189 HD
ATOM     10  H6  UNL     1      11.016  49.457  -1.345  1.00  0.00     0.162 HD
BRANCH   7  11
HETATM   11  N3  UNL     1      13.031  52.675   0.464  1.00  0.00    -0.274 N
HETATM   12  C1  UNL     1      13.428  53.764  -0.065  1.00  0.00     0.215 C
HETATM   13  N1  UNL     1      13.628  53.788  -1.488  1.00  0.00    -0.065 NA
HETATM   14  N2  UNL     1      13.679  54.946   0.678  1.00  0.00    -0.065 NA
ATOM     15  H3  UNL     1      12.895  52.679   1.475  1.00  0.00     0.189 HD
ENDBRANCH   7  11
ENDBRANCH   4   5
ENDBRANCH   3   4
ENDBRANCH   1   3
BRANCH   1  16
HETATM   16  C5  UNL     1      13.698  45.581  -1.896  1.00  0.00     0.140 C
BRANCH  16  17
HETATM   17  C6  UNL     1      13.044  46.146  -3.148  1.00  0.00     0.172 C
BRANCH  17  18
HETATM   18  N8  UNL     1      11.846  45.449  -3.547  1.00  0.00    -0.247 N
HETATM   19  N9  UNL     1      11.839  44.272  -4.168  1.00  0.00    -0.246 N
HETATM   20  C7  UNL     1      10.715  43.639  -4.547  1.00  0.00     0.342 A
ATOM     21  H9  UNL     1      12.734  43.826  -4.367  1.00  0.00     0.192 HD
HETATM   22  O1  UNL     1      10.779  42.520  -5.134  1.00  0.00    -0.245 OA
HETATM   23  N10 UNL     1       9.495  44.157  -4.324  1.00  0.00    -0.270 N
HETATM   24  C8  UNL     1       9.450  45.347  -3.699  1.00  0.00     0.319 A
ATOM     25  H10 UNL     1       8.646  43.672  -4.614  1.00  0.00     0.174 HD
HETATM   26  O2  UNL     1       8.307  45.842  -3.484  1.00  0.00    -0.262 OA
HETATM   27  C9  UNL     1      10.614  45.988  -3.314  1.00  0.00     0.330 A
HETATM   28  O3  UNL     1      10.554  47.091  -2.735  1.00  0.00    -0.260 OA
ENDBRANCH  17  18
ENDBRANCH  16  17
ENDBRANCH   1  16
TORSDOF 7
ENDMDL