MODEL 4
REMARK VINA RESULT: -8.719193168      1.330      1.346
REMARK  9 active torsions:
REMARK  status: ('A' for Active; 'I' for Inactive)
REMARK    1  A    between atoms: C2_2  and  N1_3
REMARK    2  A    between atoms: C2_2  and  C3_7
REMARK       I    between atoms: C3_7  and  N2_9
REMARK    3  A    between atoms: N2_9  and  N3_11
REMARK    4  A    between atoms: N3_11  and  C4_13
REMARK    5  A    between atoms: C6_15  and  C7_16
REMARK    6  A    between atoms: C7_16  and  O2_17
REMARK    7  A    between atoms: C10_23  and  N5_24
REMARK    8  A    between atoms: N5_24  and  N6_26
REMARK    9  A    between atoms: N6_26  and  C11_28
ROOT
HETATM    1  C4  UNL     1      11.402  47.228  -1.714  1.00  0.00     0.123 C
HETATM    2  C5  UNL     1      11.997  46.091  -1.945  1.00  0.00     0.043 A
HETATM    3  C6  UNL     1      11.283  44.917  -1.873  1.00  0.00    -0.004 A
HETATM    4  C8  UNL     1      11.901  43.697  -2.116  1.00  0.00     0.099 A
HETATM    5  N4  UNL     1      13.211  43.619  -2.429  1.00  0.00    -0.361 N
ATOM      6  H4  UNL     1      13.652  42.716  -2.606  1.00  0.00     0.165 HD
HETATM    7  C9  UNL     1      13.918  44.755  -2.503  1.00  0.00     0.100 A
HETATM    8  C10 UNL     1      15.204  44.746  -2.797  1.00  0.00     0.140 C
HETATM    9  C12 UNL     1      13.328  46.003  -2.264  1.00  0.00     0.212 A
HETATM   10  O4  UNL     1      14.005  47.056  -2.337  1.00  0.00    -0.285 OA
ENDROOT
BRANCH   1  11
HETATM   11  N3  UNL     1      12.052  48.490  -1.764  1.00  0.00    -0.308 N
ATOM     12  H3  UNL     1      12.759  48.672  -2.477  1.00  0.00     0.186 HD
BRANCH  11  13
HETATM   13  N2  UNL     1      11.720  49.482  -0.839  1.00  0.00    -0.269 N
HETATM   14  C3  UNL     1      12.677  49.939   0.102  1.00  0.00     0.266 C
HETATM   15  O1  UNL     1      13.835  49.462   0.115  1.00  0.00    -0.269 OA
ATOM     16  H2  UNL     1      10.781  49.881  -0.840  1.00  0.00     0.190 HD
BRANCH  14  17
HETATM   17  C2  UNL     1      12.320  50.981   1.074  1.00  0.00     0.272 C
HETATM   18  C1  UNL     1      12.650  52.375   0.563  1.00  0.00     0.050 C
BRANCH  17  19
HETATM   19  N1  UNL     1      10.931  50.860   1.428  1.00  0.00    -0.067 N
ATOM     20  H13 UNL     1      10.786  50.132   2.127  1.00  0.00     0.275 HD
ATOM     21  H12 UNL     1      10.614  51.664   1.969  1.00  0.00     0.275 HD
ATOM     22  H11 UNL     1      10.345  50.709   0.607  1.00  0.00     0.275 HD
ENDBRANCH  17  19
ENDBRANCH  14  17
ENDBRANCH  11  13
ENDBRANCH   1  11
BRANCH   3  23
HETATM   23  C7  UNL     1       9.840  44.985  -1.528  1.00  0.00     0.205 C
BRANCH  23  24
HETATM   24  O2  UNL     1       9.692  44.561  -0.189  1.00  0.00    -0.396 OA
ATOM     25  H2  UNL     1      10.546  44.589   0.223  1.00  0.00     0.209 HD
ENDBRANCH  23  24
ENDBRANCH   3  23
BRANCH   8  26
HETATM   26  N5  UNL     1      15.947  43.577  -3.058  1.00  0.00    -0.307 N
ATOM     27  H5  UNL     1      15.567  42.673  -2.777  1.00  0.00     0.186 HD
BRANCH  26  28
HETATM   28  N6  UNL     1      17.195  43.625  -3.693  1.00  0.00    -0.278 N
ATOM     29  H6  UNL     1      17.448  42.875  -4.337  1.00  0.00     0.189 HD
BRANCH  28  30
HETATM   30  C11 UNL     1      18.110  44.668  -3.478  1.00  0.00     0.368 C
HETATM   31  O3  UNL     1      18.550  45.396  -4.384  1.00  0.00    -0.282 OA
ENDBRANCH  28  30
ENDBRANCH  26  28
ENDBRANCH   8  26
TORSDOF 9
ENDMDL