MODEL 5
REMARK VINA RESULT: -7.463249184      1.208      2.263
REMARK  12 active torsions:
REMARK  status: ('A' for Active; 'I' for Inactive)
REMARK    1  A    between atoms: N1_2  and  C3_11
REMARK    2  A    between atoms: C2_3  and  N2_4
REMARK    3  A    between atoms: N2_4  and  N3_6
REMARK    4  A    between atoms: N3_6  and  N4_8
REMARK    5  A    between atoms: C5_17  and  C6_18
REMARK    6  A    between atoms: C6_18  and  C7_19
REMARK       I    between atoms: C7_19  and  N7_21
REMARK    7  A    between atoms: N7_21  and  C8_22
REMARK    8  A    between atoms: N7_21  and  C10_26
REMARK    9  A    between atoms: C8_22  and  C9_23
REMARK   10  A    between atoms: C9_23  and  O2_24
REMARK   11  A    between atoms: C10_26  and  C11_27
REMARK   12  A    between atoms: C11_27  and  O3_28
ROOT
HETATM    1  C3  UNL     1      12.513  52.239   0.602  1.00  0.00     0.203 A
HETATM    2  N5  UNL     1      11.818  51.962   1.659  1.00  0.00    -0.269 N
ATOM      3  H5  UNL     1      11.731  52.578   2.467  1.00  0.00     0.190 HD
HETATM    4  N6  UNL     1      11.211  50.732   1.554  1.00  0.00    -0.283 N
ATOM      5  H6  UNL     1      10.614  50.295   2.256  1.00  0.00     0.188 HD
HETATM    6  C4  UNL     1      11.565  50.177   0.290  1.00  0.00     0.119 A
HETATM    7  C5  UNL     1      11.185  49.007  -0.190  1.00  0.00     0.032 C
HETATM    8  N8  UNL     1      12.403  51.153  -0.316  1.00  0.00    -0.312 N
ATOM      9  H8  UNL     1      12.842  51.089  -1.234  1.00  0.00     0.170 HD
ENDROOT
BRANCH   7  10
HETATM   10  C6  UNL     1      11.621  48.535  -1.527  1.00  0.00     0.134 C
BRANCH  10  11
HETATM   11  C7  UNL     1      12.570  47.415  -1.373  1.00  0.00     0.223 C
HETATM   12  O1  UNL     1      13.771  47.695  -1.040  1.00  0.00    -0.273 OA
HETATM   13  N7  UNL     1      12.156  46.079  -1.590  1.00  0.00    -0.348 N
BRANCH  13  14
HETATM   14  C8  UNL     1      13.174  45.032  -1.425  1.00  0.00     0.151 C
BRANCH  14  15
HETATM   15  C9  UNL     1      14.008  44.913  -2.696  1.00  0.00     0.183 C
BRANCH  15  16
HETATM   16  O2  UNL     1      15.228  45.545  -2.542  1.00  0.00    -0.399 OA
ATOM     17  H2  UNL     1      15.180  46.446  -2.841  1.00  0.00     0.209 HD
ENDBRANCH  15  16
ENDBRANCH  14  15
ENDBRANCH  13  14
BRANCH  13  18
HETATM   18  C10 UNL     1      10.808  45.789  -1.944  1.00  0.00     0.151 C
BRANCH  18  19
HETATM   19  C11 UNL     1      10.608  45.312  -3.360  1.00  0.00     0.183 C
BRANCH  19  20
HETATM   20  O3  UNL     1      11.007  46.349  -4.203  1.00  0.00    -0.399 OA
ATOM     21  H3  UNL     1      11.494  46.970  -3.672  1.00  0.00     0.209 HD
ENDBRANCH  19  20
ENDBRANCH  18  19
ENDBRANCH  13  18
ENDBRANCH  10  11
ENDBRANCH   7  10
BRANCH   1  22
HETATM   22  N1  UNL     1      13.255  53.437   0.414  1.00  0.00    -0.317 N
HETATM   23  C1  UNL     1      13.437  53.970  -0.926  1.00  0.00     0.160 C
HETATM   24  C2  UNL     1      13.780  54.083   1.397  1.00  0.00     0.203 C
BRANCH  24  25
HETATM   25  N2  UNL     1      14.519  55.268   1.259  1.00  0.00    -0.282 N
ATOM     26  H2  UNL     1      14.221  55.908   0.522  1.00  0.00     0.189 HD
BRANCH  25  27
HETATM   27  N3  UNL     1      15.600  55.658   2.009  1.00  0.00    -0.248 N
ATOM     28  H3  UNL     1      15.706  55.390   2.987  1.00  0.00     0.207 HD
BRANCH  27  29
HETATM   29  N4  UNL     1      16.530  56.434   1.360  1.00  0.00    -0.331 N
ATOM     30  H42 UNL     1      17.439  56.055   1.092  1.00  0.00     0.178 HD
ATOM     31  H41 UNL     1      16.252  57.396   1.170  1.00  0.00     0.178 HD
ENDBRANCH  27  29
ENDBRANCH  25  27
ENDBRANCH  24  25
ENDBRANCH   1  22
TORSDOF 12
ENDMDL