MODEL 1
REMARK VINA RESULT: -8.314369783      0.000      0.000
REMARK  12 active torsions:
REMARK  status: ('A' for Active; 'I' for Inactive)
REMARK    1  A    between atoms: N2_3  and  N3_5
REMARK    2  A    between atoms: C2_7  and  N4_8
REMARK    3  A    between atoms: C2_7  and  C9_22
REMARK    4  A    between atoms: N4_8  and  N5_10
REMARK       I    between atoms: N5_10  and  C3_12
REMARK    5  A    between atoms: C3_12  and  C4_14
REMARK    6  A    between atoms: C4_14  and  N6_15
REMARK    7  A    between atoms: N7_18  and  C7_19
REMARK    8  A    between atoms: C9_22  and  O3_23
REMARK    9  A    between atoms: C9_22  and  C10_25
REMARK   10  A    between atoms: C10_25  and  C11_26
REMARK   11  A    between atoms: C11_26  and  N8_27
REMARK   12  A    between atoms: C11_26  and  N9_31
ROOT
HETATM    1  N3  UNL     1      13.817  45.747  -2.732  1.00  0.00    -0.285 N
ATOM      2  H3  UNL     1      14.490  46.436  -2.396  1.00  0.00     0.188 HD
HETATM    3  C2  UNL     1      12.640  46.164  -2.972  1.00  0.00     0.140 C
ENDROOT
BRANCH   3   4
HETATM    4  N4  UNL     1      12.314  47.533  -2.771  1.00  0.00    -0.283 N
ATOM      5  H4  UNL     1      11.619  47.998  -3.354  1.00  0.00     0.188 HD
BRANCH   4   6
HETATM    6  N5  UNL     1      12.984  48.231  -1.732  1.00  0.00    -0.267 N
HETATM    7  C3  UNL     1      12.301  48.666  -0.571  1.00  0.00     0.254 C
HETATM    8  O1  UNL     1      11.066  48.404  -0.503  1.00  0.00    -0.270 OA
ATOM      9  H5  UNL     1      13.981  48.424  -1.826  1.00  0.00     0.190 HD
BRANCH   7  10
HETATM   10  C4  UNL     1      13.035  49.384   0.476  1.00  0.00     0.233 C
BRANCH  10  11
HETATM   11  N6  UNL     1      12.706  50.789   0.536  1.00  0.00    -0.342 N
HETATM   12  C5  UNL     1      11.756  51.390   1.273  1.00  0.00     0.110 A
HETATM   13  C6  UNL     1      11.835  52.731   0.980  1.00  0.00     0.117 A
HETATM   14  N7  UNL     1      12.824  52.933   0.074  1.00  0.00    -0.295 N
HETATM   15  C8  UNL     1      13.352  51.719  -0.189  1.00  0.00     0.192 A
BRANCH  14  16
HETATM   16  C7  UNL     1      13.225  54.170  -0.487  1.00  0.00     0.360 C
HETATM   17  O2  UNL     1      13.713  54.243  -1.634  1.00  0.00    -0.283 OA
ENDBRANCH  14  16
ENDBRANCH  10  11
ENDBRANCH   7  10
ENDBRANCH   4   6
ENDBRANCH   3   4
BRANCH   3  18
HETATM   18  C9  UNL     1      11.598  45.233  -3.457  1.00  0.00     0.192 C
BRANCH  18  19
HETATM   19  O3  UNL     1      11.983  44.527  -4.596  1.00  0.00    -0.388 OA
ATOM     20  H3  UNL     1      12.307  45.089  -5.290  1.00  0.00     0.210 HD
ENDBRANCH  18  19
BRANCH  18  21
HETATM   21  C10 UNL     1      10.298  45.955  -3.603  1.00  0.00     0.101 C
BRANCH  21  22
HETATM   22  C11 UNL     1       9.115  45.042  -3.353  1.00  0.00     0.380 C
BRANCH  22  23
HETATM   23  N8  UNL     1       7.879  45.564  -3.874  1.00  0.00    -0.050 N
ATOM     24  H83 UNL     1       7.921  45.652  -4.890  1.00  0.00     0.276 HD
ATOM     25  H82 UNL     1       7.132  44.873  -3.797  1.00  0.00     0.276 HD
ATOM     26  H81 UNL     1       7.603  46.446  -3.444  1.00  0.00     0.276 HD
ENDBRANCH  22  23
BRANCH  22  27
HETATM   27  N9  UNL     1       9.420  43.726  -3.899  1.00  0.00    -0.050 N
ATOM     28  H93 UNL     1       9.650  43.759  -4.893  1.00  0.00     0.276 HD
ATOM     29  H92 UNL     1      10.310  43.360  -3.561  1.00  0.00     0.276 HD
ATOM     30  H91 UNL     1       8.639  43.102  -3.699  1.00  0.00     0.276 HD
ENDBRANCH  22  27
ENDBRANCH  21  22
ENDBRANCH  18  21
ENDBRANCH   3  18
BRANCH   1  31
HETATM   31  N2  UNL     1      14.272  44.459  -2.879  1.00  0.00    -0.297 N
HETATM   32  C1  UNL     1      15.396  44.088  -2.376  1.00  0.00     0.206 C
HETATM   33  N1  UNL     1      15.892  42.755  -2.513  1.00  0.00    -0.095 NA
ATOM     34  H2  UNL     1      13.708  43.785  -3.397  1.00  0.00     0.187 HD
ENDBRANCH   1  31
TORSDOF 12
ENDMDL