MODEL 4
REMARK VINA RESULT: -7.652658674      0.881      1.082
REMARK  11 active torsions:
REMARK  status: ('A' for Active; 'I' for Inactive)
REMARK    1  A    between atoms: O1_2  and  C2_3
REMARK    2  A    between atoms: C2_3  and  C3_4
REMARK    3  A    between atoms: C2_3  and  C9_26
REMARK    4  A    between atoms: C3_4  and  N3_10
REMARK    5  A    between atoms: N1_5  and  N2_7
REMARK    6  A    between atoms: N3_10  and  C4_12
REMARK    7  A    between atoms: C4_12  and  C5_13
REMARK    8  A    between atoms: C5_13  and  N4_14
REMARK    9  A    between atoms: C7_16  and  N5_17
REMARK   10  A    between atoms: C9_26  and  N8_27
REMARK   11  A    between atoms: C9_26  and  C10_31
ROOT
HETATM    1  C3  UNL     1      11.948  43.716  -3.005  1.00  0.00     0.123 C
HETATM    2  N1  UNL     1      11.594  42.596  -3.460  1.00  0.00    -0.294 N
ATOM      3  H1  UNL     1      10.685  42.618  -3.919  1.00  0.00     0.187 HD
ENDROOT
BRANCH   1   4
HETATM    4  C2  UNL     1      11.135  44.953  -3.119  1.00  0.00     0.226 C
BRANCH   4   5
HETATM    5  O1  UNL     1       9.836  44.816  -2.643  1.00  0.00    -0.381 OA
HETATM    6  C1  UNL     1       8.870  44.794  -3.615  1.00  0.00     0.202 C
ENDBRANCH   4   5
BRANCH   4   7
HETATM    7  C9  UNL     1      11.742  46.152  -2.472  1.00  0.00     0.280 C
BRANCH   7   8
HETATM    8  N8  UNL     1      12.274  47.046  -3.485  1.00  0.00    -0.066 N
ATOM      9  H83 UNL     1      12.599  46.540  -4.309  1.00  0.00     0.275 HD
ATOM     10  H82 UNL     1      11.541  47.600  -3.930  1.00  0.00     0.275 HD
ATOM     11  H81 UNL     1      13.006  47.632  -3.083  1.00  0.00     0.275 HD
ENDBRANCH   7   8
BRANCH   7  12
HETATM   12  C10 UNL     1      10.870  46.908  -1.582  1.00  0.00     0.267 C
HETATM   13  O3  UNL     1      10.478  48.048  -1.797  1.00  0.00    -0.305 OA
ENDBRANCH   7  12
ENDBRANCH   4   7
ENDBRANCH   1   4
BRANCH   1  14
HETATM   14  N3  UNL     1      13.200  43.826  -2.339  1.00  0.00    -0.375 N
ATOM     15  H3  UNL     1      13.219  43.592  -1.346  1.00  0.00     0.160 HD
BRANCH  14  16
HETATM   16  C4  UNL     1      14.438  44.236  -2.935  1.00  0.00     0.143 C
BRANCH  16  17
HETATM   17  C5  UNL     1      15.616  43.485  -2.347  1.00  0.00     0.168 C
BRANCH  17  18
HETATM   18  N4  UNL     1      16.767  44.300  -2.169  1.00  0.00    -0.294 N
HETATM   19  C6  UNL     1      17.605  44.616  -3.171  1.00  0.00     0.158 A
HETATM   20  C7  UNL     1      18.703  45.410  -2.927  1.00  0.00     0.120 A
HETATM   21  N6  UNL     1      18.926  45.867  -1.683  1.00  0.00    -0.293 N
HETATM   22  C8  UNL     1      18.074  45.542  -0.685  1.00  0.00     0.340 A
ATOM     23  H6  UNL     1      19.736  46.458  -1.492  1.00  0.00     0.172 HD
HETATM   24  O2  UNL     1      18.340  46.002   0.464  1.00  0.00    -0.245 OA
HETATM   25  N7  UNL     1      17.006  44.766  -0.929  1.00  0.00    -0.249 N
ATOM     26  H7  UNL     1      16.371  44.527  -0.168  1.00  0.00     0.192 HD
BRANCH  20  27
HETATM   27  N5  UNL     1      19.511  45.713  -3.897  1.00  0.00    -0.384 N
ATOM     28  H52 UNL     1      19.360  45.339  -4.833  1.00  0.00     0.157 HD
ATOM     29  H51 UNL     1      20.306  46.328  -3.723  1.00  0.00     0.157 HD
ENDBRANCH  20  27
ENDBRANCH  17  18
ENDBRANCH  16  17
ENDBRANCH  14  16
ENDBRANCH   1  14
BRANCH   2  30
HETATM   30  N2  UNL     1      12.164  41.371  -3.468  1.00  0.00    -0.344 N
ATOM     31  H22 UNL     1      11.528  40.653  -3.121  1.00  0.00     0.176 HD
ATOM     32  H21 UNL     1      13.082  41.025  -3.745  1.00  0.00     0.176 HD
ENDBRANCH   2  30
TORSDOF 11
ENDMDL