MODEL 1
REMARK VINA RESULT: -8.763969155      0.000      0.000
REMARK  10 active torsions:
REMARK  status: ('A' for Active; 'I' for Inactive)
REMARK    1  A    between atoms: N1_1  and  C1_5
REMARK    2  A    between atoms: C1_5  and  O1_6
REMARK    3  A    between atoms: C1_5  and  C2_8
REMARK    4  A    between atoms: C2_8  and  C3_9
REMARK    5  A    between atoms: C3_9  and  C4_10
REMARK    6  A    between atoms: C3_9  and  N2_12
REMARK       I    between atoms: N2_12  and  C5_14
REMARK    7  A    between atoms: C5_14  and  C6_16
REMARK    8  A    between atoms: C6_16  and  N3_17
REMARK    9  A    between atoms: C6_16  and  N4_21
REMARK   10  A    between atoms: N4_21  and  C7_23
ROOT
HETATM    1  C6  UNL     1      12.485  47.409  -1.172  1.00  0.00     0.376 C
ENDROOT
BRANCH   1   2
HETATM    2  C5  UNL     1      12.900  48.615  -0.403  1.00  0.00     0.268 C
HETATM    3  N2  UNL     1      12.089  49.770  -0.321  1.00  0.00    -0.347 N
ATOM      4  H2  UNL     1      11.191  49.776  -0.806  1.00  0.00     0.163 HD
HETATM    5  O3  UNL     1      14.007  48.591   0.187  1.00  0.00    -0.269 OA
BRANCH   3   6
HETATM    6  C3  UNL     1      12.489  50.954   0.431  1.00  0.00     0.150 C
BRANCH   6   7
HETATM    7  C2  UNL     1      12.979  52.030  -0.494  1.00  0.00     0.093 C
BRANCH   7   8
HETATM    8  C1  UNL     1      12.936  53.382   0.128  1.00  0.00     0.318 C
BRANCH   8   9
HETATM    9  N1  UNL     1      13.352  54.437  -0.760  1.00  0.00    -0.053 N
ATOM     10  H13 UNL     1      13.983  55.099  -0.307  1.00  0.00     0.277 HD
ATOM     11  H12 UNL     1      13.989  54.106  -1.484  1.00  0.00     0.277 HD
ATOM     12  H11 UNL     1      12.526  54.893  -1.148  1.00  0.00     0.277 HD
ENDBRANCH   8   9
BRANCH   8  13
HETATM   13  O1  UNL     1      13.617  53.501   1.322  1.00  0.00    -0.370 OA
ATOM     14  H1  UNL     1      13.296  54.264   1.789  1.00  0.00     0.212 HD
ENDBRANCH   8  13
ENDBRANCH   7   8
ENDBRANCH   6   7
BRANCH   6  15
HETATM   15  C4  UNL     1      11.349  51.343   1.282  1.00  0.00     0.256 C
HETATM   16  O2  UNL     1      11.488  51.576   2.488  1.00  0.00    -0.305 OA
ENDBRANCH   6  15
ENDBRANCH   3   6
ENDBRANCH   1   2
BRANCH   1  17
HETATM   17  N3  UNL     1      11.373  47.703  -2.052  1.00  0.00    -0.049 N
ATOM     18  H33 UNL     1      10.772  46.889  -2.181  1.00  0.00     0.277 HD
ATOM     19  H32 UNL     1      10.699  48.328  -1.608  1.00  0.00     0.277 HD
ATOM     20  H31 UNL     1      11.695  48.076  -2.945  1.00  0.00     0.277 HD
ENDBRANCH   1  17
BRANCH   1  21
HETATM   21  N4  UNL     1      13.611  47.062  -2.003  1.00  0.00    -0.337 N
ATOM     22  H4  UNL     1      13.889  47.694  -2.754  1.00  0.00     0.163 HD
BRANCH  21  23
HETATM   23  C7  UNL     1      14.260  45.997  -1.823  1.00  0.00     0.175 C
HETATM   24  N5  UNL     1      15.027  45.910  -0.739  1.00  0.00    -0.305 N
HETATM   25  C8  UNL     1      16.184  45.227  -0.586  1.00  0.00     0.248 C
ATOM     26  H5  UNL     1      14.701  46.424   0.079  1.00  0.00     0.170 HD
HETATM   27  O4  UNL     1      16.834  45.514   0.438  1.00  0.00    -0.268 OA
HETATM   28  C9  UNL     1      16.720  44.251  -1.434  1.00  0.00     0.091 C
HETATM   29  C10 UNL     1      16.124  43.716  -2.561  1.00  0.00     0.097 C
HETATM   30  N6  UNL     1      14.923  44.029  -3.074  1.00  0.00    -0.330 N
HETATM   31  C11 UNL     1      14.062  45.045  -2.831  1.00  0.00     0.289 C
ATOM     32  H6  UNL     1      14.595  43.373  -3.784  1.00  0.00     0.168 HD
HETATM   33  O5  UNL     1      13.036  45.138  -3.542  1.00  0.00    -0.264 OA
ENDBRANCH  21  23
ENDBRANCH   1  21
TORSDOF 10
ENDMDL