MODEL 3
REMARK VINA RESULT: -9.310574825      1.482      2.370
REMARK  9 active torsions:
REMARK  status: ('A' for Active; 'I' for Inactive)
REMARK    1  A    between atoms: N1_1  and  C1_4
REMARK    2  A    between atoms: C5_17  and  O1_18
REMARK    3  A    between atoms: C6_20  and  C7_21
REMARK    4  A    between atoms: C7_21  and  N6_22
REMARK    5  A    between atoms: N6_22  and  C8_25
REMARK    6  A    between atoms: C8_25  and  O2_26
REMARK    7  A    between atoms: O2_26  and  C9_27
REMARK    8  A    between atoms: C9_27  and  C10_28
REMARK    9  A    between atoms: C10_28  and  N7_29
ROOT
HETATM    1  C1  UNL     1      12.285  41.812  -3.210  1.00  0.00     0.679 A
HETATM    2  N2  UNL     1      11.154  42.510  -3.378  1.00  0.00    -0.176 N
ATOM      3  H2  UNL     1      10.303  42.014  -3.644  1.00  0.00     0.186 HD
HETATM    4  C2  UNL     1      11.101  43.847  -3.206  1.00  0.00     0.129 A
HETATM    5  N3  UNL     1       9.973  44.422  -3.390  1.00  0.00    -0.384 N
ATOM      6  H31 UNL     1       9.933  45.433  -3.260  1.00  0.00     0.157 HD
ATOM      7  H32 UNL     1       9.151  43.880  -3.657  1.00  0.00     0.157 HD
HETATM    8  C3  UNL     1      12.224  44.586  -2.841  1.00  0.00     0.061 A
HETATM    9  C4  UNL     1      13.377  43.841  -2.675  1.00  0.00     0.133 A
HETATM   10  N4  UNL     1      13.393  42.507  -2.854  1.00  0.00    -0.176 N
ATOM     11  H4  UNL     1      14.268  42.002  -2.718  1.00  0.00     0.186 HD
HETATM   12  N5  UNL     1      14.381  44.571  -2.340  1.00  0.00    -0.345 N
ATOM     13  H5  UNL     1      15.329  44.237  -2.166  1.00  0.00     0.164 HD
HETATM   14  C5  UNL     1      13.947  45.934  -2.253  1.00  0.00     0.252 A
HETATM   15  C6  UNL     1      12.493  45.855  -2.615  1.00  0.00     0.011 A
ENDROOT
BRANCH  15  16
HETATM   16  C7  UNL     1      11.552  46.980  -2.708  1.00  0.00     0.274 C
BRANCH  16  17
HETATM   17  N6  UNL     1      12.108  48.236  -2.230  1.00  0.00    -0.051 N
ATOM     18  H62 UNL     1      13.127  48.215  -2.204  1.00  0.00     0.280 HD
ATOM     19  H61 UNL     1      11.990  48.988  -2.909  1.00  0.00     0.280 HD
BRANCH  17  20
HETATM   20  C8  UNL     1      11.541  48.578  -0.941  1.00  0.00     0.399 C
BRANCH  20  21
HETATM   21  O2  UNL     1      12.469  48.651   0.059  1.00  0.00    -0.363 OA
BRANCH  21  22
HETATM   22  C9  UNL     1      13.215  49.792   0.131  1.00  0.00     0.189 C
BRANCH  22  23
HETATM   23  C10 UNL     1      12.431  51.059   0.354  1.00  0.00     0.148 C
BRANCH  23  24
HETATM   24  N7  UNL     1      12.803  52.047  -0.636  1.00  0.00    -0.365 N
HETATM   25  C11 UNL     1      13.215  53.239  -0.282  1.00  0.00     0.197 C
HETATM   26  N8  UNL     1      13.557  54.137  -1.318  1.00  0.00    -0.067 NA
HETATM   27  N9  UNL     1      13.304  53.580   1.089  1.00  0.00    -0.067 NA
ATOM     28  H7  UNL     1      12.744  51.811  -1.627  1.00  0.00     0.161 HD
ENDBRANCH  23  24
ENDBRANCH  22  23
ENDBRANCH  21  22
ENDBRANCH  20  21
ENDBRANCH  17  20
ENDBRANCH  16  17
ENDBRANCH  15  16
BRANCH  14  29
HETATM   29  O1  UNL     1      14.147  46.343  -0.941  1.00  0.00    -0.373 OA
ATOM     30  H1  UNL     1      13.494  47.005  -0.752  1.00  0.00     0.212 HD
ENDBRANCH  14  29
BRANCH   1  31
HETATM   31  N1  UNL     1      12.328  40.534  -3.378  1.00  0.00    -0.234 N
ATOM     32  H12 UNL     1      11.754  40.077  -4.086  1.00  0.00     0.174 HD
ATOM     33  H11 UNL     1      12.932  39.936  -2.813  1.00  0.00     0.174 HD
ENDBRANCH   1  31
TORSDOF 9
ENDMDL