MODEL 4
REMARK VINA RESULT: -8.477955323      1.748      2.414
REMARK  10 active torsions:
REMARK  status: ('A' for Active; 'I' for Inactive)
REMARK    1  A    between atoms: O1_3  and  C2_4
REMARK    2  A    between atoms: C2_4  and  N4_20
REMARK    3  A    between atoms: N2_5  and  C3_7
REMARK    4  A    between atoms: C3_7  and  C4_8
REMARK       I    between atoms: C4_8  and  N3_10
REMARK    5  A    between atoms: N3_10  and  C5_12
REMARK    6  A    between atoms: C5_12  and  C6_13
REMARK    7  A    between atoms: C5_12  and  C7_15
REMARK    8  A    between atoms: C7_15  and  O4_16
REMARK    9  A    between atoms: C7_15  and  O5_18
REMARK       I    between atoms: N4_20  and  C8_22
REMARK       I    between atoms: C8_22  and  N6_26
REMARK   10  A    between atoms: N6_26  and  N7_28
ROOT
HETATM    1  N1  UNL     1       9.787  45.174  -0.277  1.00  0.00    -0.163 NA
HETATM    2  C1  UNL     1      10.891  45.045  -0.625  1.00  0.00     0.236 C
HETATM    3  O1  UNL     1      12.203  44.869  -1.025  1.00  0.00    -0.205 OA
ENDROOT
BRANCH   3   4
HETATM    4  C2  UNL     1      12.670  45.563  -2.123  1.00  0.00     0.249 C
HETATM    5  N2  UNL     1      13.268  46.651  -1.990  1.00  0.00    -0.346 N
ATOM      6  H2  UNL     1      13.559  47.058  -2.878  1.00  0.00     0.163 HD
BRANCH   5   7
HETATM    7  C3  UNL     1      13.628  47.439  -0.876  1.00  0.00     0.226 C
BRANCH   7   8
HETATM    8  C4  UNL     1      12.728  48.643  -0.716  1.00  0.00     0.236 C
HETATM    9  O2  UNL     1      11.541  48.645  -1.126  1.00  0.00    -0.272 OA
HETATM   10  N3  UNL     1      13.213  49.819  -0.085  1.00  0.00    -0.344 N
ATOM     11  H3  UNL     1      14.175  49.834   0.254  1.00  0.00     0.163 HD
BRANCH  10  12
HETATM   12  C5  UNL     1      12.402  50.983   0.091  1.00  0.00     0.200 C
BRANCH  12  13
HETATM   13  C6  UNL     1      13.226  52.234   0.150  1.00  0.00     0.261 C
HETATM   14  O3  UNL     1      12.781  53.249  -0.329  1.00  0.00    -0.304 OA
ENDBRANCH  12  13
BRANCH  12  15
HETATM   15  C7  UNL     1      11.640  50.899   1.392  1.00  0.00     0.283 C
BRANCH  15  16
HETATM   16  O4  UNL     1      10.464  50.148   1.209  1.00  0.00    -0.369 OA
ATOM     17  H4  UNL     1      10.629  49.237   1.420  1.00  0.00     0.212 HD
ENDBRANCH  15  16
BRANCH  15  18
HETATM   18  O5  UNL     1      11.370  52.149   1.920  1.00  0.00    -0.369 OA
ATOM     19  H5  UNL     1      10.440  52.285   2.064  1.00  0.00     0.212 HD
ENDBRANCH  15  18
ENDBRANCH  12  15
ENDBRANCH  10  12
ENDBRANCH   7   8
ENDBRANCH   5   7
BRANCH   4  20
HETATM   20  N4  UNL     1      12.448  44.997  -3.407  1.00  0.00    -0.153 N
HETATM   21  C8  UNL     1      11.134  44.690  -3.831  1.00  0.00     0.694 C
HETATM   22  N5  UNL     1      10.312  45.637  -4.136  1.00  0.00    -0.233 N
HETATM   23  N6  UNL     1      10.676  43.347  -3.935  1.00  0.00    -0.118 N
ATOM     24  H52 UNL     1      10.641  46.600  -4.061  1.00  0.00     0.174 HD
ATOM     25  H51 UNL     1       9.364  45.415  -4.441  1.00  0.00     0.174 HD
ATOM     26  H6  UNL     1       9.677  43.157  -3.854  1.00  0.00     0.207 HD
ATOM     27  H4  UNL     1      13.238  44.812  -4.025  1.00  0.00     0.188 HD
BRANCH  23  28
HETATM   28  N7  UNL     1      11.558  42.280  -4.147  1.00  0.00    -0.235 N
HETATM   29  N8  UNL     1      11.948  41.534  -3.197  1.00  0.00    -0.330 N
ATOM     30  H82 UNL     1      11.600  41.732  -2.259  1.00  0.00     0.178 HD
ATOM     31  H81 UNL     1      12.591  40.757  -3.351  1.00  0.00     0.178 HD
ATOM     32  H7  UNL     1      11.896  42.098  -5.092  1.00  0.00     0.208 HD
ENDBRANCH  23  28
ENDBRANCH   4  20
ENDBRANCH   3   4
TORSDOF 10
ENDMDL