MODEL 2
REMARK VINA RESULT: -8.035329792      2.323      7.103
REMARK  10 active torsions:
REMARK  status: ('A' for Active; 'I' for Inactive)
REMARK       I    between atoms: C2_2  and  N1_4
REMARK    1  A    between atoms: N1_4  and  N2_6
REMARK       I    between atoms: N2_6  and  C3_8
REMARK    2  A    between atoms: C3_8  and  C4_10
REMARK    3  A    between atoms: C4_10  and  N3_11
REMARK    4  A    between atoms: C4_10  and  C5_15
REMARK       I    between atoms: C5_15  and  N4_17
REMARK    5  A    between atoms: N4_17  and  C6_19
REMARK    6  A    between atoms: C6_19  and  C8_21
REMARK       I    between atoms: C8_21  and  N5_23
REMARK    7  A    between atoms: N5_23  and  C9_25
REMARK    8  A    between atoms: C9_25  and  C11_27
REMARK    9  A    between atoms: C11_27  and  N6_28
REMARK   10  A    between atoms: C11_27  and  N7_32
ROOT
HETATM    1  C5  UNL     1      12.332  45.202  -2.458  1.00  0.00     0.258 C
HETATM    2  O3  UNL     1      12.567  45.279  -1.233  1.00  0.00    -0.271 OA
HETATM    3  N4  UNL     1      12.459  43.979  -3.152  1.00  0.00    -0.346 N
ATOM      4  H4  UNL     1      12.260  43.940  -4.152  1.00  0.00     0.163 HD
ENDROOT
BRANCH   3   5
HETATM    5  C6  UNL     1      12.866  42.782  -2.455  1.00  0.00     0.172 C
HETATM    6  C7  UNL     1      12.332  41.580  -3.234  1.00  0.00     0.042 C
BRANCH   5   7
HETATM    7  C8  UNL     1      14.339  42.702  -2.304  1.00  0.00     0.240 C
HETATM    8  O4  UNL     1      14.891  41.588  -2.183  1.00  0.00    -0.271 OA
HETATM    9  N5  UNL     1      15.099  43.878  -2.296  1.00  0.00    -0.351 N
ATOM     10  H5  UNL     1      14.610  44.767  -2.396  1.00  0.00     0.163 HD
BRANCH   9  11
HETATM   11  C9  UNL     1      16.543  43.905  -2.154  1.00  0.00     0.138 C
HETATM   12  C10 UNL     1      16.876  44.499  -0.812  1.00  0.00     0.036 C
BRANCH  11  13
HETATM   13  C11 UNL     1      17.183  44.660  -3.296  1.00  0.00     0.400 C
BRANCH  13  14
HETATM   14  N6  UNL     1      18.432  45.253  -2.863  1.00  0.00    -0.048 N
ATOM     15  H63 UNL     1      18.472  45.359  -1.849  1.00  0.00     0.276 HD
ATOM     16  H62 UNL     1      19.218  44.613  -2.977  1.00  0.00     0.276 HD
ATOM     17  H61 UNL     1      18.586  46.138  -3.345  1.00  0.00     0.276 HD
ENDBRANCH  13  14
BRANCH  13  18
HETATM   18  N7  UNL     1      17.474  43.721  -4.348  1.00  0.00    -0.048 N
ATOM     19  H73 UNL     1      18.433  43.374  -4.312  1.00  0.00     0.276 HD
ATOM     20  H72 UNL     1      17.000  42.826  -4.220  1.00  0.00     0.276 HD
ATOM     21  H71 UNL     1      17.248  44.162  -5.239  1.00  0.00     0.276 HD
ENDBRANCH  13  18
ENDBRANCH  11  13
ENDBRANCH   9  11
ENDBRANCH   5   7
ENDBRANCH   3   5
BRANCH   1  22
HETATM   22  C4  UNL     1      11.915  46.426  -3.178  1.00  0.00     0.367 C
BRANCH  22  23
HETATM   23  C3  UNL     1      11.299  47.394  -2.232  1.00  0.00     0.276 C
HETATM   24  N2  UNL     1      12.085  48.408  -1.646  1.00  0.00    -0.265 N
ATOM     25  H2  UNL     1      13.076  48.471  -1.877  1.00  0.00     0.190 HD
HETATM   26  O2  UNL     1      10.094  47.304  -1.964  1.00  0.00    -0.269 OA
BRANCH  24  27
HETATM   27  N1  UNL     1      11.524  49.336  -0.746  1.00  0.00    -0.268 N
HETATM   28  C2  UNL     1      12.333  50.015   0.193  1.00  0.00     0.232 C
HETATM   29  C1  UNL     1      11.738  50.976   1.121  1.00  0.00     0.119 C
HETATM   30  O1  UNL     1      13.560  49.785   0.222  1.00  0.00    -0.272 OA
ATOM     31  H1  UNL     1      10.521  49.521  -0.773  1.00  0.00     0.190 HD
ENDBRANCH  24  27
ENDBRANCH  22  23
BRANCH  22  32
HETATM   32  N3  UNL     1      10.966  46.114  -4.248  1.00  0.00    -0.058 N
ATOM     33  H33 UNL     1      10.344  45.345  -3.999  1.00  0.00     0.275 HD
ATOM     34  H32 UNL     1      10.259  46.842  -4.361  1.00  0.00     0.275 HD
ATOM     35  H31 UNL     1      11.475  45.934  -5.113  1.00  0.00     0.275 HD
ENDBRANCH  22  32
ENDBRANCH   1  22
TORSDOF 10
ENDMDL