MODEL 3
REMARK VINA RESULT: -7.651203744      1.352      1.520
REMARK  13 active torsions:
REMARK  status: ('A' for Active; 'I' for Inactive)
REMARK    1  A    between atoms: N1_1  and  C1_5
REMARK    2  A    between atoms: C1_5  and  C2_6
REMARK    3  A    between atoms: C2_6  and  N2_7
REMARK    4  A    between atoms: N2_7  and  C3_10
REMARK    5  A    between atoms: C3_10  and  C4_11
REMARK       I    between atoms: C4_11  and  N3_13
REMARK    6  A    between atoms: N3_13  and  C5_15
REMARK    7  A    between atoms: N5_20  and  C7_21
REMARK    8  A    between atoms: C7_21  and  C8_22
REMARK    9  A    between atoms: C8_22  and  N6_23
REMARK   10  A    between atoms: N6_23  and  C9_25
REMARK   11  A    between atoms: C9_25  and  C10_26
REMARK   12  A    between atoms: C10_26  and  N7_27
REMARK   13  A    between atoms: N7_27  and  N8_28
ROOT
HETATM    1  C5  UNL     1      79.846  27.644  -2.661  1.00  0.00     0.273 C
HETATM    2  C6  UNL     1      78.727  28.405  -2.069  1.00  0.00     0.268 C
HETATM    3  O2  UNL     1      78.806  29.562  -1.623  1.00  0.00    -0.269 OA
HETATM    4  N4  UNL     1      77.595  27.549  -2.124  1.00  0.00    -0.263 N
ATOM      5  H4  UNL     1      76.716  27.709  -1.630  1.00  0.00     0.190 HD
HETATM    6  N5  UNL     1      77.857  26.466  -2.946  1.00  0.00    -0.255 N
HETATM    7  C11 UNL     1      79.167  26.593  -3.445  1.00  0.00     0.270 C
HETATM    8  O3  UNL     1      79.700  25.931  -4.406  1.00  0.00    -0.269 OA
ENDROOT
BRANCH   1   9
HETATM    9  N3  UNL     1      80.564  27.010  -1.579  1.00  0.00    -0.339 N
HETATM   10  C4  UNL     1      81.969  26.958  -1.582  1.00  0.00     0.244 C
HETATM   11  O1  UNL     1      82.607  27.462  -2.524  1.00  0.00    -0.272 OA
ATOM     12  H3  UNL     1      80.046  26.596  -0.804  1.00  0.00     0.163 HD
BRANCH  10  13
HETATM   13  C3  UNL     1      82.688  26.312  -0.476  1.00  0.00     0.334 C
BRANCH  13  14
HETATM   14  N2  UNL     1      83.221  25.055  -0.926  1.00  0.00    -0.065 N
ATOM     15  H22 UNL     1      83.498  25.103  -1.906  1.00  0.00     0.277 HD
ATOM     16  H21 UNL     1      82.489  24.349  -0.997  1.00  0.00     0.277 HD
BRANCH  14  17
HETATM   17  C2  UNL     1      84.316  24.589  -0.096  1.00  0.00     0.260 C
BRANCH  17  18
HETATM   18  C1  UNL     1      85.595  25.355  -0.431  1.00  0.00     0.257 C
BRANCH  18  19
HETATM   19  N1  UNL     1      86.285  24.620  -1.498  1.00  0.00    -0.078 N
ATOM     20  H13 UNL     1      87.296  24.582  -1.364  1.00  0.00     0.274 HD
ATOM     21  H12 UNL     1      86.108  23.616  -1.468  1.00  0.00     0.274 HD
ATOM     22  H11 UNL     1      86.018  25.044  -2.387  1.00  0.00     0.274 HD
ENDBRANCH  18  19
ENDBRANCH  17  18
ENDBRANCH  14  17
ENDBRANCH  13  14
ENDBRANCH  10  13
ENDBRANCH   1   9
BRANCH   6  23
HETATM   23  C7  UNL     1      76.932  25.375  -3.249  1.00  0.00     0.171 C
BRANCH  23  24
HETATM   24  C8  UNL     1      77.710  24.105  -2.909  1.00  0.00     0.135 C
BRANCH  24  25
HETATM   25  N6  UNL     1      77.164  23.005  -3.633  1.00  0.00    -0.418 N
ATOM     26  H6  UNL     1      76.750  23.111  -4.559  1.00  0.00     0.153 HD
BRANCH  25  27
HETATM   27  C9  UNL     1      77.238  21.745  -2.967  1.00  0.00     0.131 C
BRANCH  27  28
HETATM   28  C10 UNL     1      77.609  21.809  -1.524  1.00  0.00     0.153 C
BRANCH  28  29
HETATM   29  N7  UNL     1      78.382  20.695  -1.066  1.00  0.00    -0.147 NA
BRANCH  29  30
HETATM   30  N8  UNL     1      78.083  20.354   0.238  1.00  0.00    -0.348 N
ATOM     31  H82 UNL     1      77.641  19.471   0.495  1.00  0.00     0.172 HD
ATOM     32  H81 UNL     1      78.355  21.082   0.898  1.00  0.00     0.172 HD
ENDBRANCH  29  30
ENDBRANCH  28  29
ENDBRANCH  27  28
ENDBRANCH  25  27
ENDBRANCH  24  25
ENDBRANCH  23  24
ENDBRANCH   6  23
TORSDOF 13
ENDMDL