MODEL 1
REMARK VINA RESULT: -8.691691696      0.000      0.000
REMARK  15 active torsions:
REMARK  status: ('A' for Active; 'I' for Inactive)
REMARK    1  A    between atoms: N2_4  and  N3_6
REMARK       I    between atoms: N3_6  and  C1_8
REMARK    2  A    between atoms: N5_10  and  C2_12
REMARK    3  A    between atoms: C2_12  and  C3_13
REMARK    4  A    between atoms: C3_13  and  C4_14
REMARK    5  A    between atoms: C4_14  and  C5_15
REMARK    6  A    between atoms: C5_15  and  N6_16
REMARK    7  A    between atoms: C5_15  and  C6_20
REMARK    8  A    between atoms: C6_20  and  C7_21
REMARK    9  A    between atoms: C7_21  and  N8_25
REMARK   10  A    between atoms: N8_25  and  N9_27
REMARK       I    between atoms: N9_27  and  C8_29
REMARK   11  A    between atoms: C8_29  and  C9_31
REMARK   12  A    between atoms: C9_31  and  O2_32
REMARK   13  A    between atoms: O2_32  and  C10_33
REMARK   14  A    between atoms: C10_33  and  C11_34
REMARK   15  A    between atoms: C11_34  and  N10_35
ROOT
HETATM    1  C5  UNL     1      80.556  27.177  -2.477  1.00  0.00     0.190 C
ENDROOT
BRANCH   1   2
HETATM    2  C4  UNL     1      81.487  26.705  -1.399  1.00  0.00     0.035 C
BRANCH   2   3
HETATM    3  C3  UNL     1      81.398  25.248  -1.082  1.00  0.00     0.022 C
BRANCH   3   4
HETATM    4  C2  UNL     1      82.752  24.663  -0.712  1.00  0.00     0.122 C
BRANCH   4   5
HETATM    5  N5  UNL     1      83.542  25.598   0.035  1.00  0.00    -0.363 N
HETATM    6  C1  UNL     1      84.807  25.510   0.191  1.00  0.00     0.204 C
HETATM    7  N3  UNL     1      85.590  24.468  -0.358  1.00  0.00    -0.260 N
HETATM    8  N4  UNL     1      85.467  26.509   0.954  1.00  0.00    -0.062 NA
ATOM      9  H3  UNL     1      85.526  23.514  -0.005  1.00  0.00     0.191 HD
ATOM     10  H5  UNL     1      83.062  26.385   0.471  1.00  0.00     0.162 HD
BRANCH   7  11
HETATM   11  N2  UNL     1      86.462  24.801  -1.413  1.00  0.00    -0.247 N
HETATM   12  N1  UNL     1      86.762  23.996  -2.329  1.00  0.00    -0.331 N
ATOM     13  H12 UNL     1      86.348  23.064  -2.292  1.00  0.00     0.178 HD
ATOM     14  H11 UNL     1      87.394  24.237  -3.093  1.00  0.00     0.178 HD
ATOM     15  H2  UNL     1      86.867  25.737  -1.434  1.00  0.00     0.207 HD
ENDBRANCH   7  11
ENDBRANCH   4   5
ENDBRANCH   3   4
ENDBRANCH   2   3
ENDBRANCH   1   2
BRANCH   1  16
HETATM   16  N6  UNL     1      80.771  26.370  -3.678  1.00  0.00    -0.075 N
ATOM     17  H63 UNL     1      81.699  26.509  -4.078  1.00  0.00     0.274 HD
ATOM     18  H62 UNL     1      80.852  25.375  -3.469  1.00  0.00     0.274 HD
ATOM     19  H61 UNL     1      80.026  26.566  -4.347  1.00  0.00     0.274 HD
ENDBRANCH   1  16
BRANCH   1  20
HETATM   20  C6  UNL     1      79.116  26.957  -1.991  1.00  0.00     0.110 C
BRANCH  20  21
HETATM   21  C7  UNL     1      78.118  27.198  -3.051  1.00  0.00     0.091 C
HETATM   22  N7  UNL     1      77.655  28.394  -3.277  1.00  0.00    -0.388 N
ATOM     23  H72 UNL     1      78.007  29.159  -2.700  1.00  0.00     0.157 HD
ATOM     24  H71 UNL     1      76.966  28.561  -4.009  1.00  0.00     0.157 HD
BRANCH  21  25
HETATM   25  N8  UNL     1      77.637  26.153  -3.840  1.00  0.00    -0.287 N
ATOM     26  H8  UNL     1      77.645  26.268  -4.853  1.00  0.00     0.188 HD
BRANCH  25  27
HETATM   27  N9  UNL     1      77.153  24.975  -3.320  1.00  0.00    -0.267 N
HETATM   28  C8  UNL     1      77.876  23.803  -3.084  1.00  0.00     0.259 C
HETATM   29  O1  UNL     1      79.126  23.737  -3.360  1.00  0.00    -0.269 OA
ATOM     30  H9  UNL     1      76.162  24.956  -3.081  1.00  0.00     0.190 HD
BRANCH  28  31
HETATM   31  C9  UNL     1      77.242  22.600  -2.526  1.00  0.00     0.272 C
BRANCH  31  32
HETATM   32  O2  UNL     1      77.795  21.403  -2.794  1.00  0.00    -0.380 OA
BRANCH  32  33
HETATM   33  C10 UNL     1      77.636  20.810  -3.990  1.00  0.00     0.195 C
BRANCH  33  34
HETATM   34  C11 UNL     1      78.402  19.592  -4.374  1.00  0.00     0.255 C
BRANCH  34  35
HETATM   35  N10 UNL     1      79.800  20.065  -4.577  1.00  0.00    -0.077 N
ATOM     36 3H10 UNL     1      80.215  19.763  -5.459  1.00  0.00     0.274 HD
ATOM     37 2H10 UNL     1      79.877  21.067  -4.750  1.00  0.00     0.274 HD
ATOM     38 1H10 UNL     1      80.309  19.747  -3.752  1.00  0.00     0.274 HD
ENDBRANCH  34  35
ENDBRANCH  33  34
ENDBRANCH  32  33
ENDBRANCH  31  32
ENDBRANCH  28  31
ENDBRANCH  25  27
ENDBRANCH  21  25
ENDBRANCH  20  21
ENDBRANCH   1  20
TORSDOF 15
ENDMDL