MODEL 3
REMARK VINA RESULT: -7.248583557      2.603      8.115
REMARK  14 active torsions:
REMARK  status: ('A' for Active; 'I' for Inactive)
REMARK    1  A    between atoms: N1_2  and  C2_3
REMARK       I    between atoms: N1_2  and  C7_24
REMARK    2  A    between atoms: C2_3  and  C3_4
REMARK    3  A    between atoms: C3_4  and  C4_5
REMARK    4  A    between atoms: C4_5  and  N2_6
REMARK    5  A    between atoms: N2_6  and  S1_8
REMARK    6  A    between atoms: S1_8  and  N3_11
REMARK    7  A    between atoms: N3_11  and  C5_13
REMARK    8  A    between atoms: C5_13  and  C6_14
REMARK    9  A    between atoms: C6_14  and  N4_15
REMARK   10  A    between atoms: C6_14  and  N5_19
REMARK   11  A    between atoms: N5_19  and  N6_20
REMARK   12  A    between atoms: N6_20  and  N7_21
REMARK   13  A    between atoms: C7_24  and  C8_26
REMARK   14  A    between atoms: C8_26  and  N8_27
ROOT
HETATM    1  S1  UNL     1      82.083  26.657  -1.590  1.00  0.00     0.315 S
HETATM    2  O1  UNL     1      82.826  27.645  -2.478  1.00  0.00    -0.183 OA
HETATM    3  O2  UNL     1      81.219  27.526  -0.690  1.00  0.00    -0.183 OA
ENDROOT
BRANCH   1   4
HETATM    4  N2  UNL     1      81.084  25.709  -2.624  1.00  0.00    -0.303 N
ATOM      5  H2  UNL     1      81.125  25.688  -3.642  1.00  0.00     0.173 HD
BRANCH   4   6
HETATM    6  C4  UNL     1      80.178  24.946  -1.794  1.00  0.00     0.135 C
BRANCH   6   7
HETATM    7  C3  UNL     1      78.731  25.272  -2.084  1.00  0.00     0.040 C
BRANCH   7   8
HETATM    8  C2  UNL     1      78.494  25.529  -3.552  1.00  0.00     0.127 C
BRANCH   8   9
HETATM    9  N1  UNL     1      77.770  26.818  -3.701  1.00  0.00    -0.355 N
HETATM   10  C1  UNL     1      76.378  26.898  -3.350  1.00  0.00     0.152 C
HETATM   11  C7  UNL     1      78.549  27.881  -4.193  1.00  0.00     0.244 C
HETATM   12  O3  UNL     1      79.798  27.682  -4.474  1.00  0.00    -0.272 OA
BRANCH  11  13
HETATM   13  C8  UNL     1      78.052  29.233  -4.420  1.00  0.00     0.332 C
BRANCH  13  14
HETATM   14  N8  UNL     1      78.863  30.316  -3.954  1.00  0.00    -0.071 N
ATOM     15  H83 UNL     1      78.331  31.185  -4.008  1.00  0.00     0.274 HD
ATOM     16  H82 UNL     1      78.990  30.233  -2.945  1.00  0.00     0.274 HD
ATOM     17  H81 UNL     1      79.770  30.445  -4.401  1.00  0.00     0.274 HD
ENDBRANCH  13  14
ENDBRANCH  11  13
ENDBRANCH   8   9
ENDBRANCH   7   8
ENDBRANCH   6   7
ENDBRANCH   4   6
ENDBRANCH   1   4
BRANCH   1  18
HETATM   18  N3  UNL     1      83.120  25.717  -0.709  1.00  0.00    -0.300 N
ATOM     19  H3  UNL     1      83.062  24.701  -0.790  1.00  0.00     0.173 HD
BRANCH  18  20
HETATM   20  C5  UNL     1      84.073  26.280   0.143  1.00  0.00     0.185 C
BRANCH  20  21
HETATM   21  C6  UNL     1      85.215  25.273   0.342  1.00  0.00     0.311 C
BRANCH  21  22
HETATM   22  N4  UNL     1      85.935  25.614   1.544  1.00  0.00    -0.058 N
ATOM     23  H43 UNL     1      85.462  26.334   2.090  1.00  0.00     0.276 HD
ATOM     24  H42 UNL     1      85.908  24.867   2.238  1.00  0.00     0.276 HD
ATOM     25  H41 UNL     1      86.889  25.878   1.295  1.00  0.00     0.276 HD
ENDBRANCH  21  22
BRANCH  21  26
HETATM   26  N5  UNL     1      86.044  25.358  -0.839  1.00  0.00    -0.092 NA
BRANCH  26  27
HETATM   27  N6  UNL     1      86.868  24.261  -1.002  1.00  0.00    -0.037 NA
BRANCH  27  28
HETATM   28  N7  UNL     1      87.050  23.905  -2.337  1.00  0.00    -0.332 N
ATOM     29  H72 UNL     1      87.835  23.333  -2.651  1.00  0.00     0.173 HD
ATOM     30  H71 UNL     1      86.325  24.271  -2.953  1.00  0.00     0.173 HD
ENDBRANCH  27  28
ENDBRANCH  26  27
ENDBRANCH  21  26
ENDBRANCH  20  21
ENDBRANCH  18  20
ENDBRANCH   1  18
TORSDOF 14
ENDMDL