MODEL 5
REMARK VINA RESULT: -7.562784802      1.186      1.580
REMARK  14 active torsions:
REMARK  status: ('A' for Active; 'I' for Inactive)
REMARK    1  A    between atoms: N2_4  and  N3_6
REMARK       I    between atoms: N3_6  and  C1_8
REMARK    2  A    between atoms: N5_10  and  C2_12
REMARK    3  A    between atoms: C2_12  and  C3_13
REMARK    4  A    between atoms: C3_13  and  N6_14
REMARK    5  A    between atoms: N6_14  and  C4_17
REMARK    6  A    between atoms: C4_17  and  C5_18
REMARK    7  A    between atoms: C5_18  and  O1_19
REMARK    8  A    between atoms: O1_19  and  C6_20
REMARK    9  A    between atoms: C6_20  and  C7_21
REMARK   10  A    between atoms: C7_21  and  N7_22
REMARK   11  A    between atoms: C7_21  and  C8_26
REMARK   12  A    between atoms: C7_21  and  C9_29
REMARK   13  A    between atoms: C9_29  and  N9_30
REMARK   14  A    between atoms: C9_29  and  C10_34
ROOT
HETATM    1  C5  UNL     1      81.937  26.886  -2.400  1.00  0.00     0.195 C
ENDROOT
BRANCH   1   2
HETATM    2  C4  UNL     1      82.094  26.610  -0.946  1.00  0.00     0.258 C
BRANCH   2   3
HETATM    3  N6  UNL     1      82.999  25.470  -0.696  1.00  0.00    -0.072 N
ATOM      4  H62 UNL     1      83.279  24.968  -1.539  1.00  0.00     0.277 HD
ATOM      5  H61 UNL     1      82.553  24.677  -0.235  1.00  0.00     0.277 HD
BRANCH   3   6
HETATM    6  C3  UNL     1      84.101  26.036   0.042  1.00  0.00     0.252 C
BRANCH   6   7
HETATM    7  C2  UNL     1      85.310  25.133   0.111  1.00  0.00     0.150 C
BRANCH   7   8
HETATM    8  N5  UNL     1      85.691  24.620  -1.159  1.00  0.00    -0.362 N
HETATM    9  C1  UNL     1      86.876  24.185  -1.392  1.00  0.00     0.204 C
HETATM   10  N3  UNL     1      87.930  24.161  -0.434  1.00  0.00    -0.260 N
HETATM   11  N4  UNL     1      87.124  23.700  -2.718  1.00  0.00    -0.062 NA
ATOM     12  H3  UNL     1      88.845  24.523  -0.702  1.00  0.00     0.191 HD
ATOM     13  H5  UNL     1      85.000  24.597  -1.909  1.00  0.00     0.162 HD
BRANCH  10  14
HETATM   14  N2  UNL     1      87.758  23.666   0.845  1.00  0.00    -0.247 N
HETATM   15  N1  UNL     1      88.449  22.695   1.282  1.00  0.00    -0.331 N
ATOM     16  H12 UNL     1      89.143  22.281   0.660  1.00  0.00     0.178 HD
ATOM     17  H11 UNL     1      88.322  22.329   2.226  1.00  0.00     0.178 HD
ATOM     18  H2  UNL     1      87.059  24.091   1.453  1.00  0.00     0.207 HD
ENDBRANCH  10  14
ENDBRANCH   7   8
ENDBRANCH   6   7
ENDBRANCH   3   6
ENDBRANCH   2   3
ENDBRANCH   1   2
BRANCH   1  19
HETATM   19  O1  UNL     1      81.119  27.967  -2.643  1.00  0.00    -0.386 OA
BRANCH  19  20
HETATM   20  C6  UNL     1      80.151  27.695  -3.566  1.00  0.00     0.218 C
BRANCH  20  21
HETATM   21  C7  UNL     1      78.776  28.117  -3.142  1.00  0.00     0.255 C
BRANCH  21  22
HETATM   22  N7  UNL     1      78.694  29.592  -3.123  1.00  0.00    -0.057 N
ATOM     23  H73 UNL     1      78.906  30.000  -4.033  1.00  0.00     0.276 HD
ATOM     24  H72 UNL     1      77.734  29.922  -3.033  1.00  0.00     0.276 HD
ATOM     25  H71 UNL     1      79.298  29.958  -2.386  1.00  0.00     0.276 HD
ENDBRANCH  21  22
BRANCH  21  26
HETATM   26  C8  UNL     1      78.498  27.623  -1.777  1.00  0.00     0.272 C
HETATM   27  N8  UNL     1      78.233  28.504  -0.704  1.00  0.00    -0.060 NA
HETATM   28  O2  UNL     1      78.496  26.387  -1.570  1.00  0.00    -0.274 OA
ENDBRANCH  21  26
BRANCH  21  29
HETATM   29  C9  UNL     1      77.669  27.655  -4.055  1.00  0.00     0.291 C
BRANCH  29  30
HETATM   30  N9  UNL     1      76.421  27.458  -3.314  1.00  0.00    -0.066 N
ATOM     31  H93 UNL     1      75.889  28.325  -3.237  1.00  0.00     0.275 HD
ATOM     32  H92 UNL     1      75.748  26.910  -3.850  1.00  0.00     0.275 HD
ATOM     33  H91 UNL     1      76.598  27.045  -2.399  1.00  0.00     0.275 HD
ENDBRANCH  29  30
BRANCH  29  34
HETATM   34  C10 UNL     1      77.396  28.671  -5.106  1.00  0.00     0.267 C
HETATM   35  O3  UNL     1      76.536  28.479  -5.928  1.00  0.00    -0.305 OA
ENDBRANCH  29  34
ENDBRANCH  21  29
ENDBRANCH  20  21
ENDBRANCH  19  20
ENDBRANCH   1  19
TORSDOF 14
ENDMDL