MODEL 2
REMARK VINA RESULT: -8.067755251      1.341      7.035
REMARK  13 active torsions:
REMARK  status: ('A' for Active; 'I' for Inactive)
REMARK    1  A    between atoms: C1_4  and  C2_5
REMARK    2  A    between atoms: C1_4  and  N3_10
REMARK    3  A    between atoms: C2_5  and  N2_6
REMARK    4  A    between atoms: N3_10  and  C3_12
REMARK    5  A    between atoms: C3_12  and  C4_13
REMARK    6  A    between atoms: C4_13  and  N4_14
REMARK       I    between atoms: N4_14  and  C5_16
REMARK    7  A    between atoms: C5_16  and  C6_18
REMARK    8  A    between atoms: N7_21  and  C7_22
REMARK    9  A    between atoms: C7_22  and  C8_23
REMARK       I    between atoms: C8_23  and  N8_25
REMARK   10  A    between atoms: N8_25  and  C9_27
REMARK   11  A    between atoms: C9_27  and  C10_28
REMARK   12  A    between atoms: C10_28  and  C11_29
REMARK   13  A    between atoms: C11_29  and  N9_30
ROOT
HETATM    1  N4  UNL     1      77.111  23.868  -3.302  1.00  0.00    -0.357 N
ATOM      2  H4  UNL     1      76.263  24.387  -3.528  1.00  0.00     0.162 HD
HETATM    3  C5  UNL     1      78.342  24.585  -3.179  1.00  0.00     0.254 C
HETATM    4  O1  UNL     1      79.375  23.901  -2.894  1.00  0.00    -0.270 OA
ENDROOT
BRANCH   3   5
HETATM    5  C6  UNL     1      78.419  26.047  -3.370  1.00  0.00     0.279 C
HETATM    6  N5  UNL     1      78.614  26.460  -4.755  1.00  0.00    -0.100 NA
HETATM    7  N6  UNL     1      79.730  27.230  -4.398  1.00  0.00    -0.052 NA
HETATM    8  N7  UNL     1      79.786  26.503  -3.231  1.00  0.00    -0.179 NA
BRANCH   8   9
HETATM    9  C7  UNL     1      80.101  27.197  -2.028  1.00  0.00     0.216 C
BRANCH   9  10
HETATM   10  C8  UNL     1      81.557  27.058  -1.760  1.00  0.00     0.232 C
HETATM   11  O2  UNL     1      82.396  27.622  -2.540  1.00  0.00    -0.272 OA
HETATM   12  N8  UNL     1      82.020  26.309  -0.655  1.00  0.00    -0.360 N
ATOM     13  H8  UNL     1      81.328  25.868  -0.050  1.00  0.00     0.162 HD
BRANCH  12  14
HETATM   14  C9  UNL     1      83.415  26.131  -0.332  1.00  0.00     0.124 C
BRANCH  14  15
HETATM   15  C10 UNL     1      83.869  24.716  -0.248  1.00  0.00     0.047 C
BRANCH  15  16
HETATM   16  C11 UNL     1      85.361  24.584  -0.068  1.00  0.00     0.231 C
BRANCH  16  17
HETATM   17  N9  UNL     1      86.051  24.574  -1.340  1.00  0.00    -0.079 N
ATOM     18  H93 UNL     1      85.481  24.990  -2.076  1.00  0.00     0.274 HD
ATOM     19  H92 UNL     1      86.827  25.236  -1.348  1.00  0.00     0.274 HD
ATOM     20  H91 UNL     1      86.359  23.635  -1.592  1.00  0.00     0.274 HD
ENDBRANCH  16  17
ENDBRANCH  15  16
ENDBRANCH  14  15
ENDBRANCH  12  14
ENDBRANCH   9  10
ENDBRANCH   8   9
ENDBRANCH   3   5
BRANCH   1  21
HETATM   21  C4  UNL     1      77.023  22.442  -3.117  1.00  0.00     0.142 C
BRANCH  21  22
HETATM   22  C3  UNL     1      77.149  21.760  -4.453  1.00  0.00     0.140 C
BRANCH  22  23
HETATM   23  N3  UNL     1      77.343  20.345  -4.222  1.00  0.00    -0.377 N
ATOM     24  H3  UNL     1      76.549  19.709  -4.293  1.00  0.00     0.160 HD
BRANCH  23  25
HETATM   25  C1  UNL     1      78.621  19.834  -3.902  1.00  0.00     0.096 C
HETATM   26  N1  UNL     1      79.639  20.125  -4.633  1.00  0.00    -0.388 N
ATOM     27  H12 UNL     1      80.561  19.756  -4.402  1.00  0.00     0.157 HD
ATOM     28  H11 UNL     1      79.534  20.724  -5.452  1.00  0.00     0.157 HD
BRANCH  25  29
HETATM   29  C2  UNL     1      78.773  18.966  -2.716  1.00  0.00     0.304 C
BRANCH  29  30
HETATM   30  N2  UNL     1      78.776  19.793  -1.508  1.00  0.00    -0.073 N
ATOM     31  H23 UNL     1      77.862  19.817  -1.054  1.00  0.00     0.274 HD
ATOM     32  H22 UNL     1      79.304  19.365  -0.747  1.00  0.00     0.274 HD
ATOM     33  H21 UNL     1      79.117  20.726  -1.738  1.00  0.00     0.274 HD
ENDBRANCH  29  30
ENDBRANCH  25  29
ENDBRANCH  23  25
ENDBRANCH  22  23
ENDBRANCH  21  22
ENDBRANCH   1  21
TORSDOF 13
ENDMDL