MODEL 1
REMARK VINA RESULT: -8.161762929      0.000      0.000
REMARK  12 active torsions:
REMARK  status: ('A' for Active; 'I' for Inactive)
REMARK    1  A    between atoms: C1_2  and  N1_3
REMARK    2  A    between atoms: N1_3  and  C2_5
REMARK    3  A    between atoms: C2_5  and  C3_6
REMARK    4  A    between atoms: C3_6  and  N2_7
REMARK    5  A    between atoms: N2_7  and  C4_10
REMARK    6  A    between atoms: C4_10  and  C5_11
REMARK    7  A    between atoms: C5_11  and  C6_12
REMARK    8  A    between atoms: C6_12  and  N3_13
REMARK       I    between atoms: N3_13  and  C7_15
REMARK    9  A    between atoms: C7_15  and  C8_17
REMARK   10  A    between atoms: C10_22  and  C11_23
REMARK   11  A    between atoms: C11_23  and  O4_24
REMARK   12  A    between atoms: C12_29  and  O5_30
ROOT
HETATM    1  N3  UNL     1      81.665  26.062  -1.172  1.00  0.00    -0.359 N
ATOM      2  H3  UNL     1      80.898  25.414  -0.993  1.00  0.00     0.162 HD
HETATM    3  C7  UNL     1      81.529  26.981  -2.231  1.00  0.00     0.244 C
HETATM    4  O2  UNL     1      82.452  27.777  -2.512  1.00  0.00    -0.271 OA
ENDROOT
BRANCH   3   5
HETATM    5  C8  UNL     1      80.276  26.982  -2.994  1.00  0.00     0.233 C
HETATM    6  N4  UNL     1      79.287  26.036  -2.491  1.00  0.00    -0.342 N
HETATM    7  C9  UNL     1      77.991  26.021  -3.100  1.00  0.00     0.251 C
ATOM      8  H4  UNL     1      79.512  25.402  -1.724  1.00  0.00     0.163 HD
HETATM    9  O3  UNL     1      77.237  25.065  -2.990  1.00  0.00    -0.271 OA
HETATM   10  C10 UNL     1      77.682  27.275  -3.867  1.00  0.00     0.303 C
HETATM   11  N5  UNL     1      78.222  28.355  -3.051  1.00  0.00    -0.032 N
HETATM   12  C12 UNL     1      79.692  28.345  -3.152  1.00  0.00     0.352 C
ATOM     13  H52 UNL     1      77.822  29.262  -3.293  1.00  0.00     0.281 HD
ATOM     14  H51 UNL     1      77.900  28.309  -2.085  1.00  0.00     0.281 HD
BRANCH  10  15
HETATM   15  C11 UNL     1      76.220  27.506  -4.050  1.00  0.00     0.207 C
BRANCH  15  16
HETATM   16  O4  UNL     1      75.465  27.260  -2.899  1.00  0.00    -0.398 OA
ATOM     17  H4  UNL     1      74.537  27.144  -3.069  1.00  0.00     0.209 HD
ENDBRANCH  15  16
ENDBRANCH  10  15
BRANCH  12  18
HETATM   18  O5  UNL     1      80.090  28.931  -4.347  1.00  0.00    -0.368 OA
ATOM     19  H5  UNL     1      79.387  28.926  -4.986  1.00  0.00     0.212 HD
ENDBRANCH  12  18
ENDBRANCH   3   5
BRANCH   1  20
HETATM   20  C6  UNL     1      82.814  25.990  -0.339  1.00  0.00     0.124 C
BRANCH  20  21
HETATM   21  C5  UNL     1      83.485  24.665  -0.372  1.00  0.00     0.047 C
BRANCH  21  22
HETATM   22  C4  UNL     1      84.907  24.768   0.158  1.00  0.00     0.234 C
BRANCH  22  23
HETATM   23  N2  UNL     1      85.840  24.811  -0.944  1.00  0.00    -0.074 N
ATOM     24  H22 UNL     1      85.853  25.739  -1.368  1.00  0.00     0.277 HD
ATOM     25  H21 UNL     1      85.492  24.267  -1.732  1.00  0.00     0.277 HD
BRANCH  23  26
HETATM   26  C3  UNL     1      87.156  24.402  -0.595  1.00  0.00     0.251 C
BRANCH  26  27
HETATM   27  C2  UNL     1      87.269  23.897   0.788  1.00  0.00     0.149 C
BRANCH  27  28
HETATM   28  N1  UNL     1      88.367  23.019   1.062  1.00  0.00    -0.367 N
ATOM     29  H1  UNL     1      89.314  23.289   0.797  1.00  0.00     0.161 HD
BRANCH  28  30
HETATM   30  C1  UNL     1      88.133  21.755   1.711  1.00  0.00     0.348 C
HETATM   31  O1  UNL     1      87.097  21.634   2.374  1.00  0.00    -0.284 OA
ENDBRANCH  28  30
ENDBRANCH  27  28
ENDBRANCH  26  27
ENDBRANCH  23  26
ENDBRANCH  22  23
ENDBRANCH  21  22
ENDBRANCH  20  21
ENDBRANCH   1  20
TORSDOF 12
ENDMDL