MODEL 4
REMARK VINA RESULT: -8.072526366      1.512      1.855
REMARK  12 active torsions:
REMARK  status: ('A' for Active; 'I' for Inactive)
REMARK       I    between atoms: C1_4  and  N3_6
REMARK    1  A    between atoms: N3_6  and  C2_8
REMARK    2  A    between atoms: C2_8  and  C3_9
REMARK    3  A    between atoms: C3_9  and  N4_10
REMARK    4  A    between atoms: N4_10  and  C4_13
REMARK    5  A    between atoms: C4_13  and  C5_14
REMARK       I    between atoms: C5_14  and  N5_16
REMARK    6  A    between atoms: N5_16  and  C6_18
REMARK    7  A    between atoms: C6_18  and  C7_19
REMARK    8  A    between atoms: N7_24  and  C9_25
REMARK    9  A    between atoms: C9_25  and  C10_26
REMARK       I    between atoms: C10_26  and  N8_28
REMARK   10  A    between atoms: N8_28  and  C11_30
REMARK   11  A    between atoms: C11_30  and  C12_31
REMARK   12  A    between atoms: C12_31  and  N9_32
ROOT
HETATM    1  C6  UNL     1      79.854  28.017  -3.339  1.00  0.00     0.171 C
ENDROOT
BRANCH   1   2
HETATM    2  N5  UNL     1      80.255  27.089  -2.304  1.00  0.00    -0.356 N
HETATM    3  C5  UNL     1      81.633  26.961  -1.913  1.00  0.00     0.243 C
HETATM    4  O1  UNL     1      82.463  27.674  -2.501  1.00  0.00    -0.272 OA
ATOM      5  H5  UNL     1      79.548  26.516  -1.843  1.00  0.00     0.162 HD
BRANCH   3   6
HETATM    6  C4  UNL     1      82.035  26.027  -0.866  1.00  0.00     0.335 C
BRANCH   6   7
HETATM    7  N4  UNL     1      83.435  25.718  -0.797  1.00  0.00    -0.062 N
ATOM      8  H42 UNL     1      83.917  26.004  -1.649  1.00  0.00     0.278 HD
ATOM      9  H41 UNL     1      83.593  24.712  -0.851  1.00  0.00     0.278 HD
BRANCH   7  10
HETATM   10  C3  UNL     1      84.049  26.270   0.346  1.00  0.00     0.277 C
BRANCH  10  11
HETATM   11  C2  UNL     1      85.511  26.079   0.523  1.00  0.00     0.090 C
BRANCH  11  12
HETATM   12  N3  UNL     1      86.034  24.775   0.456  1.00  0.00    -0.343 N
HETATM   13  C1  UNL     1      86.860  24.311  -0.587  1.00  0.00     0.185 C
HETATM   14  N1  UNL     1      86.572  24.417  -1.848  1.00  0.00    -0.374 N
HETATM   15  N2  UNL     1      88.085  23.674  -0.247  1.00  0.00    -0.064 NA
ATOM     16  H12 UNL     1      87.170  24.082  -2.603  1.00  0.00     0.158 HD
ATOM     17  H11 UNL     1      85.694  24.875  -2.092  1.00  0.00     0.158 HD
ATOM     18  H3  UNL     1      85.802  24.126   1.208  1.00  0.00     0.167 HD
ENDBRANCH  11  12
ENDBRANCH  10  11
ENDBRANCH   7  10
ENDBRANCH   6   7
ENDBRANCH   3   6
ENDBRANCH   1   2
BRANCH   1  19
HETATM   19  C7  UNL     1      78.368  28.264  -3.262  1.00  0.00     0.285 C
HETATM   20  N6  UNL     1      77.950  29.128  -4.385  1.00  0.00    -0.045 N
HETATM   21  C8  UNL     1      76.963  28.105  -4.779  1.00  0.00     0.332 C
ATOM     22  H62 UNL     1      77.655  30.090  -4.212  1.00  0.00     0.280 HD
ATOM     23  H61 UNL     1      78.638  29.467  -5.057  1.00  0.00     0.280 HD
HETATM   24  N7  UNL     1      77.613  27.231  -3.877  1.00  0.00    -0.234 NA
BRANCH  24  25
HETATM   25  C9  UNL     1      76.913  26.279  -3.127  1.00  0.00     0.137 C
BRANCH  25  26
HETATM   26  C10 UNL     1      77.514  24.964  -2.934  1.00  0.00     0.251 C
HETATM   27  O2  UNL     1      78.657  24.756  -2.454  1.00  0.00    -0.268 OA
HETATM   28  N8  UNL     1      76.769  23.813  -3.309  1.00  0.00    -0.355 N
ATOM     29  H8  UNL     1      75.835  23.951  -3.698  1.00  0.00     0.162 HD
BRANCH  28  30
HETATM   30  C11 UNL     1      77.251  22.469  -3.174  1.00  0.00     0.150 C
BRANCH  30  31
HETATM   31  C12 UNL     1      77.023  21.622  -4.389  1.00  0.00     0.249 C
BRANCH  31  32
HETATM   32  N9  UNL     1      77.950  20.500  -4.428  1.00  0.00    -0.078 N
ATOM     33  H93 UNL     1      78.757  20.660  -3.826  1.00  0.00     0.274 HD
ATOM     34  H92 UNL     1      77.566  19.679  -3.960  1.00  0.00     0.274 HD
ATOM     35  H91 UNL     1      78.231  20.290  -5.386  1.00  0.00     0.274 HD
ENDBRANCH  31  32
ENDBRANCH  30  31
ENDBRANCH  28  30
ENDBRANCH  25  26
ENDBRANCH  24  25
ENDBRANCH   1  19
TORSDOF 12
ENDMDL