MODEL 2
REMARK VINA RESULT: -6.976706773      1.144      1.245
REMARK  15 active torsions:
REMARK  status: ('A' for Active; 'I' for Inactive)
REMARK    1  A    between atoms: C1_4  and  N2_5
REMARK    2  A    between atoms: N2_5  and  C2_7
REMARK    3  A    between atoms: C2_7  and  N3_8
REMARK    4  A    between atoms: N3_8  and  C3_9
REMARK    5  A    between atoms: N3_8  and  C5_13
REMARK    6  A    between atoms: C3_9  and  C4_10
REMARK    7  A    between atoms: C4_10  and  O1_11
REMARK    8  A    between atoms: C5_13  and  C6_14
REMARK    9  A    between atoms: C5_13  and  N5_19
REMARK   10  A    between atoms: C6_14  and  N4_15
REMARK   11  A    between atoms: C8_21  and  N6_22
REMARK   12  A    between atoms: C9_26  and  C10_27
REMARK       I    between atoms: C10_27  and  N7_29
REMARK   13  A    between atoms: N7_29  and  C11_31
REMARK   14  A    between atoms: C11_31  and  C12_32
REMARK   15  A    between atoms: C12_32  and  O3_33
ROOT
HETATM    1  C5  UNL     1      79.241  27.975  -2.792  1.00  0.00     0.351 C
ENDROOT
BRANCH   1   2
HETATM    2  N3  UNL     1      78.659  28.233  -4.041  1.00  0.00    -0.344 N
BRANCH   2   3
HETATM    3  C2  UNL     1      77.787  27.319  -4.641  1.00  0.00     0.181 C
BRANCH   3   4
HETATM    4  N2  UNL     1      76.401  27.641  -4.708  1.00  0.00    -0.349 N
ATOM      5  H2  UNL     1      76.058  28.331  -5.377  1.00  0.00     0.167 HD
BRANCH   4   6
HETATM    6  C1  UNL     1      75.506  26.983  -3.825  1.00  0.00     0.174 C
HETATM    7  N1  UNL     1      75.692  25.790  -3.382  1.00  0.00    -0.395 N
ATOM      8  H12 UNL     1      76.534  25.305  -3.692  1.00  0.00     0.156 HD
ATOM      9  H11 UNL     1      75.049  25.317  -2.747  1.00  0.00     0.156 HD
ENDBRANCH   4   6
ENDBRANCH   3   4
ENDBRANCH   2   3
BRANCH   2  10
HETATM   10  C3  UNL     1      78.415  29.613  -4.345  1.00  0.00     0.151 C
BRANCH  10  11
HETATM   11  C4  UNL     1      79.613  30.446  -4.008  1.00  0.00     0.183 C
BRANCH  11  12
HETATM   12  O1  UNL     1      80.743  30.162  -4.747  1.00  0.00    -0.399 OA
ATOM     13  H1  UNL     1      81.473  30.752  -4.603  1.00  0.00     0.209 HD
ENDBRANCH  11  12
ENDBRANCH  10  11
ENDBRANCH   2  10
ENDBRANCH   1   2
BRANCH   1  14
HETATM   14  C6  UNL     1      78.335  27.823  -1.605  1.00  0.00     0.286 C
BRANCH  14  15
HETATM   15  N4  UNL     1      78.320  28.904  -0.683  1.00  0.00    -0.076 N
ATOM     16  H43 UNL     1      79.261  29.285  -0.583  1.00  0.00     0.274 HD
ATOM     17  H42 UNL     1      77.840  29.703  -1.097  1.00  0.00     0.274 HD
ATOM     18  H41 UNL     1      77.928  28.707   0.238  1.00  0.00     0.274 HD
ENDBRANCH  14  15
ENDBRANCH   1  14
BRANCH   1  19
HETATM   19  N5  UNL     1      80.100  26.790  -2.921  1.00  0.00     0.131 N
HETATM   20  C7  UNL     1      81.363  27.053  -2.272  1.00  0.00     0.311 C
HETATM   21  C8  UNL     1      81.397  25.563  -1.944  1.00  0.00     0.254 C
HETATM   22  C9  UNL     1      79.885  25.755  -1.961  1.00  0.00     0.348 C
BRANCH  21  23
HETATM   23  N6  UNL     1      81.946  25.226  -0.660  1.00  0.00    -0.071 N
ATOM     24  H63 UNL     1      82.844  25.693  -0.530  1.00  0.00     0.274 HD
ATOM     25  H62 UNL     1      81.402  25.670   0.080  1.00  0.00     0.274 HD
ATOM     26  H61 UNL     1      82.042  24.228  -0.473  1.00  0.00     0.274 HD
ENDBRANCH  21  23
BRANCH  22  27
HETATM   27  C10 UNL     1      79.235  24.513  -2.465  1.00  0.00     0.253 C
HETATM   28  O2  UNL     1      79.253  24.232  -3.690  1.00  0.00    -0.271 OA
HETATM   29  N7  UNL     1      78.577  23.614  -1.589  1.00  0.00    -0.357 N
ATOM     30  H7  UNL     1      78.566  23.846  -0.597  1.00  0.00     0.162 HD
BRANCH  29  31
HETATM   31  C11 UNL     1      77.921  22.396  -1.996  1.00  0.00     0.148 C
BRANCH  31  32
HETATM   32  C12 UNL     1      76.600  22.586  -2.664  1.00  0.00     0.183 C
BRANCH  32  33
HETATM   33  O3  UNL     1      76.742  22.745  -4.045  1.00  0.00    -0.399 OA
ATOM     34  H3  UNL     1      75.905  22.901  -4.466  1.00  0.00     0.209 HD
ENDBRANCH  32  33
ENDBRANCH  31  32
ENDBRANCH  29  31
ENDBRANCH  22  27
ENDBRANCH   1  19
TORSDOF 15
ENDMDL