MODEL 5
REMARK VINA RESULT: -8.254247066      2.935      4.513
REMARK  12 active torsions:
REMARK  status: ('A' for Active; 'I' for Inactive)
REMARK       I    between atoms: C1_4  and  N3_6
REMARK    1  A    between atoms: N3_6  and  N4_8
REMARK    2  A    between atoms: N4_8  and  C2_9
REMARK    3  A    between atoms: C2_9  and  C3_10
REMARK    4  A    between atoms: C3_10  and  N5_11
REMARK    5  A    between atoms: N5_11  and  C4_13
REMARK    6  A    between atoms: C4_13  and  C5_14
REMARK    7  A    between atoms: C6_16  and  C7_17
REMARK    8  A    between atoms: C7_17  and  N6_18
REMARK       I    between atoms: N6_18  and  C8_19
REMARK    9  A    between atoms: C8_19  and  C9_21
REMARK   10  A    between atoms: C9_21  and  N7_22
REMARK   11  A    between atoms: N7_22  and  C10_24
REMARK   12  A    between atoms: C11_26  and  N8_27
ROOT
HETATM    1  C5  UNL     1      79.012  25.561  -2.230  1.00  0.00     0.173 C
HETATM    2  O1  UNL     1      79.540  26.577  -1.500  1.00  0.00    -0.368 OA
HETATM    3  C6  UNL     1      80.814  26.068  -1.832  1.00  0.00     0.207 C
HETATM    4  C11 UNL     1      80.263  25.618  -3.135  1.00  0.00     0.248 C
ENDROOT
BRANCH   1   5
HETATM    5  C4  UNL     1      77.841  25.728  -3.217  1.00  0.00     0.147 C
BRANCH   5   6
HETATM    6  N5  UNL     1      77.533  24.312  -3.519  1.00  0.00    -0.417 N
ATOM      7  H5  UNL     1      77.224  24.034  -4.450  1.00  0.00     0.153 HD
BRANCH   6   8
HETATM    8  C3  UNL     1      77.675  23.352  -2.489  1.00  0.00     0.131 C
BRANCH   8   9
HETATM    9  C2  UNL     1      76.860  22.161  -3.017  1.00  0.00     0.154 C
BRANCH   9  10
HETATM   10  N4  UNL     1      77.260  21.752  -4.339  1.00  0.00    -0.137 NA
BRANCH  10  11
HETATM   11  N3  UNL     1      77.590  20.391  -4.268  1.00  0.00    -0.278 N
HETATM   12  C1  UNL     1      78.679  19.776  -3.609  1.00  0.00     0.197 C
HETATM   13  N1  UNL     1      78.619  19.390  -2.417  1.00  0.00    -0.373 N
HETATM   14  N2  UNL     1      79.876  19.430  -4.367  1.00  0.00    -0.063 NA
ATOM     15  H12 UNL     1      79.405  18.946  -1.941  1.00  0.00     0.158 HD
ATOM     16  H11 UNL     1      77.782  19.632  -1.887  1.00  0.00     0.158 HD
ATOM     17  H3  UNL     1      76.958  19.758  -4.759  1.00  0.00     0.185 HD
ENDBRANCH  10  11
ENDBRANCH   9  10
ENDBRANCH   8   9
ENDBRANCH   6   8
ENDBRANCH   5   6
ENDBRANCH   1   5
BRANCH   4  18
HETATM   18  N8  UNL     1      80.071  26.601  -4.138  1.00  0.00    -0.070 N
ATOM     19  H83 UNL     1      79.773  27.496  -3.750  1.00  0.00     0.274 HD
ATOM     20  H82 UNL     1      80.951  26.909  -4.552  1.00  0.00     0.274 HD
ATOM     21  H81 UNL     1      79.418  26.246  -4.837  1.00  0.00     0.274 HD
ENDBRANCH   4  18
BRANCH   3  22
HETATM   22  C7  UNL     1      82.021  26.890  -1.740  1.00  0.00     0.193 C
BRANCH  22  23
HETATM   23  N6  UNL     1      82.968  26.557  -0.874  1.00  0.00    -0.384 NA
HETATM   24  C8  UNL     1      83.972  26.218   0.049  1.00  0.00     0.308 C
HETATM   25  O2  UNL     1      84.397  27.066   0.846  1.00  0.00    -0.255 OA
BRANCH  24  26
HETATM   26  C9  UNL     1      84.418  24.779   0.026  1.00  0.00     0.241 C
BRANCH  26  27
HETATM   27  N7  UNL     1      85.417  24.627  -1.074  1.00  0.00    -0.358 N
ATOM     28  H7  UNL     1      85.106  24.523  -2.041  1.00  0.00     0.162 HD
BRANCH  27  29
HETATM   29  C10 UNL     1      86.738  24.630  -0.780  1.00  0.00     0.348 C
HETATM   30  O3  UNL     1      87.762  24.279  -1.396  1.00  0.00    -0.284 OA
ENDBRANCH  27  29
ENDBRANCH  26  27
ENDBRANCH  24  26
ENDBRANCH  22  23
ENDBRANCH   3  22
TORSDOF 12
ENDMDL