MODEL 4
REMARK VINA RESULT: -8.200879045      1.995      7.614
REMARK  12 active torsions:
REMARK  status: ('A' for Active; 'I' for Inactive)
REMARK    1  A    between atoms: N1_1  and  C1_5
REMARK    2  A    between atoms: C1_5  and  C2_6
REMARK    3  A    between atoms: C2_6  and  N2_7
REMARK    4  A    between atoms: N2_7  and  C3_9
REMARK    5  A    between atoms: C3_9  and  C4_10
REMARK       I    between atoms: C4_10  and  N3_12
REMARK    6  A    between atoms: N3_12  and  C5_14
REMARK    7  A    between atoms: C6_18  and  N5_19
REMARK       I    between atoms: N5_19  and  C7_21
REMARK    8  A    between atoms: C7_21  and  C8_23
REMARK    9  A    between atoms: C8_23  and  N6_24
REMARK   10  A    between atoms: N6_24  and  C9_26
REMARK   11  A    between atoms: C9_26  and  C10_27
REMARK   12  A    between atoms: C10_27  and  N7_28
REMARK       I    between atoms: N7_28  and  C11_30
ROOT
HETATM    1  C5  UNL     1      81.295  27.381  -1.298  1.00  0.00     0.339 A
HETATM    2  N4  UNL     1      80.940  27.689  -2.648  1.00  0.00    -0.026 N
ATOM      3  H41 UNL     1      81.291  27.392  -3.558  1.00  0.00     0.282 HD
ATOM      4  H42 UNL     1      81.038  28.516  -3.235  1.00  0.00     0.282 HD
HETATM    5  C6  UNL     1      79.909  27.204  -1.765  1.00  0.00     0.339 A
ENDROOT
BRANCH   5   6
HETATM    6  N5  UNL     1      79.366  25.884  -1.989  1.00  0.00    -0.329 N
HETATM    7  C7  UNL     1      78.915  25.530  -3.286  1.00  0.00     0.236 C
HETATM    8  O2  UNL     1      79.010  26.394  -4.197  1.00  0.00    -0.272 OA
ATOM      9  H5  UNL     1      79.307  25.214  -1.222  1.00  0.00     0.164 HD
BRANCH   7  10
HETATM   10  C8  UNL     1      78.359  24.180  -3.512  1.00  0.00     0.217 C
BRANCH  10  11
HETATM   11  N6  UNL     1      76.943  24.117  -3.353  1.00  0.00    -0.412 N
ATOM     12  H6  UNL     1      76.344  24.923  -3.532  1.00  0.00     0.153 HD
BRANCH  11  13
HETATM   13  C9  UNL     1      76.414  22.861  -2.927  1.00  0.00     0.134 C
BRANCH  13  14
HETATM   14  C10 UNL     1      76.990  21.797  -3.871  1.00  0.00     0.143 C
BRANCH  14  15
HETATM   15  N7  UNL     1      77.834  20.873  -3.142  1.00  0.00    -0.344 N
HETATM   16  C11 UNL     1      78.519  19.875  -3.863  1.00  0.00     0.328 C
HETATM   17  N8  UNL     1      79.343  18.966  -3.187  1.00  0.00    -0.040 NA
HETATM   18  O3  UNL     1      78.391  19.801  -5.102  1.00  0.00    -0.251 OA
ATOM     19  H7  UNL     1      77.930  20.944  -2.129  1.00  0.00     0.163 HD
ENDBRANCH  14  15
ENDBRANCH  13  14
ENDBRANCH  11  13
ENDBRANCH  10  11
ENDBRANCH   7  10
ENDBRANCH   5   6
BRANCH   1  20
HETATM   20  N3  UNL     1      82.016  26.149  -1.012  1.00  0.00    -0.329 N
HETATM   21  C4  UNL     1      83.204  26.215  -0.247  1.00  0.00     0.236 C
HETATM   22  O1  UNL     1      83.603  27.325   0.162  1.00  0.00    -0.272 OA
ATOM     23  H3  UNL     1      81.670  25.254  -1.357  1.00  0.00     0.164 HD
BRANCH  21  24
HETATM   24  C3  UNL     1      83.942  24.994   0.053  1.00  0.00     0.217 C
BRANCH  24  25
HETATM   25  N2  UNL     1      85.007  24.654  -0.827  1.00  0.00    -0.412 N
ATOM     26  H2  UNL     1      84.847  24.109  -1.675  1.00  0.00     0.153 HD
BRANCH  25  27
HETATM   27  C2  UNL     1      86.307  25.112  -0.465  1.00  0.00     0.141 C
BRANCH  27  28
HETATM   28  C1  UNL     1      87.325  24.325  -1.273  1.00  0.00     0.248 C
BRANCH  28  29
HETATM   29  N1  UNL     1      86.829  23.905  -2.548  1.00  0.00    -0.078 N
ATOM     30  H13 UNL     1      87.575  23.499  -3.112  1.00  0.00     0.274 HD
ATOM     31  H12 UNL     1      86.228  23.086  -2.452  1.00  0.00     0.274 HD
ATOM     32  H11 UNL     1      86.352  24.648  -3.057  1.00  0.00     0.274 HD
ENDBRANCH  28  29
ENDBRANCH  27  28
ENDBRANCH  25  27
ENDBRANCH  24  25
ENDBRANCH  21  24
ENDBRANCH   1  20
TORSDOF 12
ENDMDL