MODEL 2
REMARK VINA RESULT: -8.223318285      1.306      1.462
REMARK  15 active torsions:
REMARK  status: ('A' for Active; 'I' for Inactive)
REMARK    1  A    between atoms: C2_7  and  C3_8
REMARK    2  A    between atoms: C3_8  and  C4_9
REMARK    3  A    between atoms: C4_9  and  N4_10
REMARK    4  A    between atoms: C4_9  and  N5_14
REMARK    5  A    between atoms: N5_14  and  C5_16
REMARK    6  A    between atoms: C5_16  and  C6_17
REMARK    7  A    between atoms: C6_17  and  N6_18
REMARK    8  A    between atoms: N6_18  and  C7_20
REMARK    9  A    between atoms: C7_20  and  C8_21
REMARK   10  A    between atoms: C8_21  and  O1_22
REMARK   11  A    between atoms: O1_22  and  N7_23
REMARK       I    between atoms: N7_23  and  C9_25
REMARK   12  A    between atoms: C9_25  and  C10_27
REMARK   13  A    between atoms: C10_27  and  N8_28
REMARK   14  A    between atoms: C10_27  and  C11_32
REMARK   15  A    between atoms: C11_32  and  N9_33
ROOT
HETATM    1  N6  UNL     1      41.558 -67.784  31.779  1.00  0.00    -0.418 N
ATOM      2  H6  UNL     1      41.946 -68.314  32.561  1.00  0.00     0.153 HD
ENDROOT
BRANCH   1   3
HETATM    3  C6  UNL     1      41.027 -66.463  31.964  1.00  0.00     0.133 C
BRANCH   3   4
HETATM    4  C5  UNL     1      41.060 -66.280  33.520  1.00  0.00     0.135 C
BRANCH   4   5
HETATM    5  N5  UNL     1      42.414 -66.317  33.844  1.00  0.00    -0.394 N
ATOM      6  H5  UNL     1      42.938 -67.136  33.536  1.00  0.00     0.155 HD
BRANCH   5   7
HETATM    7  C4  UNL     1      43.112 -65.358  34.541  1.00  0.00     0.284 C
BRANCH   7   8
HETATM    8  C3  UNL     1      42.832 -63.899  34.340  1.00  0.00     0.133 C
BRANCH   8   9
HETATM    9  C2  UNL     1      44.124 -63.354  33.781  1.00  0.00     0.118 A
HETATM   10  N1  UNL     1      45.088 -62.543  34.161  1.00  0.00    -0.269 N
HETATM   11  C1  UNL     1      45.376 -61.756  35.367  1.00  0.00     0.181 C
HETATM   12  N2  UNL     1      45.756 -62.697  33.035  1.00  0.00    -0.238 N
HETATM   13  N3  UNL     1      44.811 -63.508  32.629  1.00  0.00    -0.273 N
ATOM     14  H2  UNL     1      46.629 -62.340  32.648  1.00  0.00     0.208 HD
ATOM     15  H3  UNL     1      44.655 -64.045  31.776  1.00  0.00     0.190 HD
ENDBRANCH   8   9
ENDBRANCH   7   8
BRANCH   7  16
HETATM   16  N4  UNL     1      43.233 -65.579  35.990  1.00  0.00    -0.058 N
ATOM     17  H43 UNL     1      43.765 -64.849  36.463  1.00  0.00     0.276 HD
ATOM     18  H42 UNL     1      42.355 -65.447  36.490  1.00  0.00     0.276 HD
ATOM     19  H41 UNL     1      43.632 -66.510  36.118  1.00  0.00     0.276 HD
ENDBRANCH   7  16
ENDBRANCH   5   7
ENDBRANCH   4   5
ENDBRANCH   3   4
ENDBRANCH   1   3
BRANCH   1  20
HETATM   20  C7  UNL     1      41.523 -68.325  30.469  1.00  0.00     0.142 C
BRANCH  20  21
HETATM   21  C8  UNL     1      41.382 -69.865  30.598  1.00  0.00     0.220 C
BRANCH  21  22
HETATM   22  O1  UNL     1      42.601 -70.284  30.978  1.00  0.00    -0.276 OA
BRANCH  22  23
HETATM   23  N7  UNL     1      43.644 -70.082  30.269  1.00  0.00    -0.233 N
HETATM   24  C9  UNL     1      44.800 -70.867  30.164  1.00  0.00     0.273 C
HETATM   25  O2  UNL     1      44.955 -71.933  30.796  1.00  0.00    -0.269 OA
ATOM     26  H7  UNL     1      43.634 -69.233  29.701  1.00  0.00     0.197 HD
BRANCH  24  27
HETATM   27  C10 UNL     1      45.922 -70.435  29.259  1.00  0.00     0.301 C
BRANCH  27  28
HETATM   28  N8  UNL     1      47.165 -70.379  29.996  1.00  0.00    -0.065 N
ATOM     29  H83 UNL     1      47.535 -69.429  30.048  1.00  0.00     0.275 HD
ATOM     30  H82 UNL     1      47.025 -70.540  30.994  1.00  0.00     0.275 HD
ATOM     31  H81 UNL     1      47.841 -71.030  29.597  1.00  0.00     0.275 HD
ENDBRANCH  27  28
BRANCH  27  32
HETATM   32  C11 UNL     1      46.052 -71.404  28.124  1.00  0.00     0.272 C
BRANCH  32  33
HETATM   33  N9  UNL     1      45.404 -70.892  26.930  1.00  0.00    -0.077 N
ATOM     34  H93 UNL     1      44.616 -71.475  26.649  1.00  0.00     0.274 HD
ATOM     35  H92 UNL     1      44.897 -70.026  27.118  1.00  0.00     0.274 HD
ATOM     36  H91 UNL     1      46.077 -70.777  26.172  1.00  0.00     0.274 HD
ENDBRANCH  32  33
ENDBRANCH  27  32
ENDBRANCH  24  27
ENDBRANCH  22  23
ENDBRANCH  21  22
ENDBRANCH  20  21
ENDBRANCH   1  20
TORSDOF 15
ENDMDL