MODEL 2
REMARK VINA RESULT: -7.189873102      1.027      1.240
REMARK  13 active torsions:
REMARK  status: ('A' for Active; 'I' for Inactive)
REMARK    1  A    between atoms: N1_1  and  C1_5
REMARK    2  A    between atoms: C1_5  and  C2_6
REMARK    3  A    between atoms: C2_6  and  N2_7
REMARK    4  A    between atoms: N2_7  and  C3_9
REMARK    5  A    between atoms: C3_9  and  C4_10
REMARK    6  A    between atoms: C5_11  and  O1_12
REMARK    7  A    between atoms: C6_14  and  N3_15
REMARK    8  A    between atoms: C7_19  and  N4_20
REMARK       I    between atoms: N4_20  and  C8_22
REMARK    9  A    between atoms: C8_22  and  C9_24
REMARK   10  A    between atoms: C9_24  and  N5_25
REMARK   11  A    between atoms: N5_25  and  C10_27
REMARK   12  A    between atoms: C10_27  and  C11_28
REMARK   13  A    between atoms: C11_28  and  N6_29
ROOT
HETATM    1  C4  UNL     1      41.450 -66.049  33.322  1.00  0.00     0.080 C
HETATM    2  C5  UNL     1      41.794 -65.237  32.089  1.00  0.00     0.161 C
HETATM    3  C6  UNL     1      40.542 -65.864  31.451  1.00  0.00     0.236 C
HETATM    4  C7  UNL     1      40.788 -67.052  32.355  1.00  0.00     0.129 C
ENDROOT
BRANCH   4   5
HETATM    5  N4  UNL     1      41.735 -68.001  31.833  1.00  0.00    -0.349 N
HETATM    6  C8  UNL     1      41.344 -69.298  31.457  1.00  0.00     0.257 C
HETATM    7  O2  UNL     1      40.145 -69.639  31.578  1.00  0.00    -0.267 OA
ATOM      8  H4  UNL     1      42.713 -67.727  31.733  1.00  0.00     0.163 HD
BRANCH   6   9
HETATM    9  C9  UNL     1      42.311 -70.302  30.911  1.00  0.00     0.162 C
BRANCH   9  10
HETATM   10  N5  UNL     1      43.453 -70.505  31.708  1.00  0.00    -0.373 N
ATOM     11  H5  UNL     1      43.746 -69.780  32.363  1.00  0.00     0.164 HD
BRANCH  10  12
HETATM   12  C10 UNL     1      44.196 -71.694  31.612  1.00  0.00     0.080 C
BRANCH  12  13
HETATM   13  C11 UNL     1      45.672 -71.563  31.353  1.00  0.00     0.166 C
BRANCH  13  14
HETATM   14  N6  UNL     1      46.085 -71.956  30.052  1.00  0.00    -0.362 N
HETATM   15  C12 UNL     1      46.080 -71.084  29.086  1.00  0.00     0.197 C
HETATM   16  N7  UNL     1      46.493 -71.482  27.797  1.00  0.00    -0.067 NA
HETATM   17  N8  UNL     1      45.664 -69.757  29.336  1.00  0.00    -0.067 NA
ATOM     18  H6  UNL     1      46.384 -72.915  29.877  1.00  0.00     0.162 HD
ENDBRANCH  13  14
ENDBRANCH  12  13
ENDBRANCH  10  12
ENDBRANCH   9  10
ENDBRANCH   6   9
ENDBRANCH   4   5
BRANCH   1  19
HETATM   19  C3  UNL     1      42.673 -66.587  33.998  1.00  0.00     0.069 C
BRANCH  19  20
HETATM   20  N2  UNL     1      43.736 -65.679  34.159  1.00  0.00    -0.380 N
ATOM     21  H2  UNL     1      44.442 -65.578  33.430  1.00  0.00     0.164 HD
BRANCH  20  22
HETATM   22  C2  UNL     1      43.813 -64.912  35.337  1.00  0.00     0.087 C
BRANCH  22  23
HETATM   23  C1  UNL     1      43.440 -63.449  35.171  1.00  0.00     0.274 C
BRANCH  23  24
HETATM   24  N1  UNL     1      41.976 -63.366  35.231  1.00  0.00    -0.075 N
ATOM     25  H13 UNL     1      41.608 -63.476  36.176  1.00  0.00     0.274 HD
ATOM     26  H12 UNL     1      41.622 -62.424  35.061  1.00  0.00     0.274 HD
ATOM     27  H11 UNL     1      41.608 -64.055  34.575  1.00  0.00     0.274 HD
ENDBRANCH  23  24
ENDBRANCH  22  23
ENDBRANCH  20  22
ENDBRANCH  19  20
ENDBRANCH   1  19
BRANCH   3  28
HETATM   28  N3  UNL     1      39.397 -65.065  31.777  1.00  0.00    -0.071 N
ATOM     29  H33 UNL     1      38.761 -64.958  30.987  1.00  0.00     0.274 HD
ATOM     30  H32 UNL     1      38.758 -65.544  32.413  1.00  0.00     0.274 HD
ATOM     31  H31 UNL     1      39.709 -64.166  32.146  1.00  0.00     0.274 HD
ENDBRANCH   3  28
BRANCH   2  32
HETATM   32  O1  UNL     1      41.642 -63.882  32.253  1.00  0.00    -0.393 OA
ATOM     33  H1  UNL     1      42.462 -63.407  32.321  1.00  0.00     0.210 HD
ENDBRANCH   2  32
TORSDOF 13
ENDMDL