MODEL 1
REMARK VINA RESULT: -8.513531007      0.000      0.000
REMARK  13 active torsions:
REMARK  status: ('A' for Active; 'I' for Inactive)
REMARK    1  A    between atoms: N1_2  and  C2_5
REMARK    2  A    between atoms: C2_5  and  C3_6
REMARK    3  A    between atoms: C3_6  and  C4_7
REMARK    4  A    between atoms: C4_7  and  N2_8
REMARK    5  A    between atoms: N2_8  and  C5_11
REMARK    6  A    between atoms: C5_11  and  C6_12
REMARK       I    between atoms: C6_12  and  N3_14
REMARK    7  A    between atoms: N3_14  and  C7_16
REMARK    8  A    between atoms: C7_16  and  C8_17
REMARK    9  A    between atoms: C9_21  and  N5_22
REMARK   10  A    between atoms: N5_22  and  C10_24
REMARK   11  A    between atoms: C10_24  and  C11_28
REMARK   12  A    between atoms: C11_28  and  N7_29
REMARK   13  A    between atoms: C11_28  and  C12_33
ROOT
HETATM    1  C8  UNL     1      40.772 -65.915  31.601  1.00  0.00     0.255 A
HETATM    2  N4  UNL     1      39.826 -64.944  32.125  1.00  0.00    -0.043 N
ATOM      3  H41 UNL     1      39.056 -64.992  32.791  1.00  0.00     0.280 HD
ATOM      4  H42 UNL     1      39.032 -64.442  31.728  1.00  0.00     0.280 HD
HETATM    5  C9  UNL     1      41.248 -64.657  32.241  1.00  0.00     0.318 A
ENDROOT
BRANCH   1   6
HETATM    6  C7  UNL     1      40.871 -67.213  32.344  1.00  0.00     0.159 C
BRANCH   6   7
HETATM    7  N3  UNL     1      41.715 -68.174  31.656  1.00  0.00    -0.358 N
HETATM    8  C6  UNL     1      41.206 -69.452  31.333  1.00  0.00     0.243 C
HETATM    9  O1  UNL     1      40.029 -69.763  31.635  1.00  0.00    -0.272 OA
ATOM     10  H3  UNL     1      42.673 -67.926  31.407  1.00  0.00     0.162 HD
BRANCH   8  11
HETATM   11  C5  UNL     1      42.028 -70.479  30.628  1.00  0.00     0.334 C
BRANCH  11  12
HETATM   12  N2  UNL     1      43.279 -69.886  30.236  1.00  0.00    -0.067 N
ATOM     13  H22 UNL     1      43.463 -69.046  30.784  1.00  0.00     0.277 HD
ATOM     14  H21 UNL     1      43.203 -69.473  29.306  1.00  0.00     0.277 HD
BRANCH  12  15
HETATM   15  C4  UNL     1      44.398 -70.785  30.298  1.00  0.00     0.234 C
BRANCH  15  16
HETATM   16  C3  UNL     1      44.378 -71.517  31.598  1.00  0.00     0.055 C
BRANCH  16  17
HETATM   17  C2  UNL     1      45.787 -71.769  32.134  1.00  0.00     0.233 C
BRANCH  17  18
HETATM   18  N1  UNL     1      46.300 -70.485  32.572  1.00  0.00    -0.079 N
HETATM   19  C1  UNL     1      47.595 -70.184  32.050  1.00  0.00     0.266 C
ATOM     20  H12 UNL     1      46.296 -70.423  33.590  1.00  0.00     0.276 HD
ATOM     21  H11 UNL     1      45.639 -69.738  32.355  1.00  0.00     0.276 HD
ENDBRANCH  17  18
ENDBRANCH  16  17
ENDBRANCH  15  16
ENDBRANCH  12  15
ENDBRANCH  11  12
ENDBRANCH   8  11
ENDBRANCH   6   7
ENDBRANCH   1   6
BRANCH   5  22
HETATM   22  N5  UNL     1      41.792 -64.636  33.558  1.00  0.00    -0.349 N
ATOM     23  H5  UNL     1      41.174 -64.636  34.369  1.00  0.00     0.163 HD
BRANCH  22  24
HETATM   24  C10 UNL     1      43.212 -64.614  33.734  1.00  0.00     0.112 C
HETATM   25  N6  UNL     1      43.822 -65.643  34.205  1.00  0.00    -0.387 N
ATOM     26  H62 UNL     1      43.266 -66.462  34.448  1.00  0.00     0.157 HD
ATOM     27  H61 UNL     1      44.835 -65.627  34.331  1.00  0.00     0.157 HD
BRANCH  24  28
HETATM   28  C11 UNL     1      44.021 -63.420  33.382  1.00  0.00     0.338 C
BRANCH  28  29
HETATM   29  N7  UNL     1      45.153 -63.742  32.564  1.00  0.00    -0.060 N
ATOM     30  H73 UNL     1      45.076 -64.686  32.187  1.00  0.00     0.275 HD
ATOM     31  H72 UNL     1      45.136 -63.214  31.692  1.00  0.00     0.275 HD
ATOM     32  H71 UNL     1      46.040 -63.614  33.052  1.00  0.00     0.275 HD
ENDBRANCH  28  29
BRANCH  28  33
HETATM   33  C12 UNL     1      44.481 -62.755  34.620  1.00  0.00     0.269 C
HETATM   34  N8  UNL     1      45.823 -62.316  34.771  1.00  0.00    -0.060 NA
HETATM   35  O2  UNL     1      43.672 -62.574  35.558  1.00  0.00    -0.274 OA
ENDBRANCH  28  33
ENDBRANCH  24  28
ENDBRANCH  22  24
ENDBRANCH   5  22
TORSDOF 13
ENDMDL