MODEL 2
REMARK VINA RESULT: -7.643160012      1.284      2.216
REMARK  13 active torsions:
REMARK  status: ('A' for Active; 'I' for Inactive)
REMARK    1  A    between atoms: C1_4  and  C2_6
REMARK    2  A    between atoms: C2_6  and  N3_7
REMARK    3  A    between atoms: N3_7  and  C3_9
REMARK    4  A    between atoms: N5_14  and  C5_15
REMARK    5  A    between atoms: C5_15  and  C6_16
REMARK    6  A    between atoms: C6_16  and  C7_17
REMARK    7  A    between atoms: C6_16  and  N8_25
REMARK    8  A    between atoms: C7_17  and  N6_18
REMARK    9  A    between atoms: N6_18  and  C8_21
REMARK   10  A    between atoms: C8_21  and  C9_22
REMARK   11  A    between atoms: N8_25  and  C10_28
REMARK   12  A    between atoms: C10_28  and  C11_29
REMARK   13  A    between atoms: C11_29  and  N9_30
ROOT
HETATM    1  C6  UNL     1      40.937 -66.426  31.820  1.00  0.00     0.231 C
ENDROOT
BRANCH   1   2
HETATM    2  C5  UNL     1      41.303 -67.239  30.634  1.00  0.00     0.189 C
BRANCH   2   3
HETATM    3  N5  UNL     1      41.572 -68.637  30.897  1.00  0.00    -0.226 N
HETATM    4  C4  UNL     1      40.787 -69.584  31.415  1.00  0.00     0.355 A
HETATM    5  N4  UNL     1      41.474 -70.768  31.456  1.00  0.00    -0.139 N
HETATM    6  O1  UNL     1      39.603 -69.524  31.832  1.00  0.00    -0.244 OA
HETATM    7  C3  UNL     1      42.693 -70.542  30.959  1.00  0.00     0.697 A
ATOM      8  H4  UNL     1      41.119 -71.659  31.802  1.00  0.00     0.189 HD
HETATM    9  N10 UNL     1      42.742 -69.249  30.623  1.00  0.00    -0.126 N
ATOM     10  H10 UNL     1      43.555 -68.787  30.214  1.00  0.00     0.206 HD
BRANCH   7  11
HETATM   11  N3  UNL     1      43.639 -71.441  30.838  1.00  0.00    -0.218 N
ATOM     12  H3  UNL     1      43.421 -72.366  30.467  1.00  0.00     0.178 HD
BRANCH  11  13
HETATM   13  C2  UNL     1      45.007 -71.115  31.237  1.00  0.00     0.210 C
BRANCH  13  14
HETATM   14  C1  UNL     1      45.861 -70.959  30.066  1.00  0.00     0.105 C
HETATM   15  N1  UNL     1      46.783 -71.817  29.823  1.00  0.00    -0.390 N
ATOM     16  H12 UNL     1      47.381 -71.708  29.003  1.00  0.00     0.157 HD
ATOM     17  H11 UNL     1      46.914 -72.609  30.452  1.00  0.00     0.157 HD
HETATM   18  N2  UNL     1      45.678 -69.861  29.192  1.00  0.00    -0.086 NA
ENDBRANCH  13  14
ENDBRANCH  11  13
ENDBRANCH   7  11
ENDBRANCH   2   3
ENDBRANCH   1   2
BRANCH   1  19
HETATM   19  C7  UNL     1      41.301 -64.975  31.794  1.00  0.00     0.267 C
BRANCH  19  20
HETATM   20  N6  UNL     1      42.694 -64.701  31.735  1.00  0.00    -0.065 N
ATOM     21  H62 UNL     1      43.243 -65.466  32.127  1.00  0.00     0.277 HD
ATOM     22  H61 UNL     1      43.042 -64.733  30.777  1.00  0.00     0.277 HD
BRANCH  20  23
HETATM   23  C8  UNL     1      43.007 -63.449  32.367  1.00  0.00     0.331 C
BRANCH  23  24
HETATM   24  C9  UNL     1      44.249 -63.601  33.151  1.00  0.00     0.256 C
HETATM   25  N7  UNL     1      45.206 -62.561  33.296  1.00  0.00    -0.061 NA
HETATM   26  O2  UNL     1      44.483 -64.693  33.718  1.00  0.00    -0.275 OA
ENDBRANCH  23  24
ENDBRANCH  20  23
ENDBRANCH  19  20
ENDBRANCH   1  19
BRANCH   1  27
HETATM   27  N8  UNL     1      41.333 -66.998  33.060  1.00  0.00    -0.066 N
ATOM     28  H82 UNL     1      41.033 -67.971  33.113  1.00  0.00     0.277 HD
ATOM     29  H81 UNL     1      42.344 -67.123  33.085  1.00  0.00     0.277 HD
BRANCH  27  30
HETATM   30  C10 UNL     1      40.896 -66.285  34.203  1.00  0.00     0.260 C
BRANCH  30  31
HETATM   31  C11 UNL     1      41.995 -65.929  35.186  1.00  0.00     0.257 C
BRANCH  31  32
HETATM   32  N9  UNL     1      41.787 -64.530  35.562  1.00  0.00    -0.078 N
ATOM     33  H93 UNL     1      42.632 -63.963  35.486  1.00  0.00     0.274 HD
ATOM     34  H92 UNL     1      41.223 -64.012  34.888  1.00  0.00     0.274 HD
ATOM     35  H91 UNL     1      41.389 -64.535  36.502  1.00  0.00     0.274 HD
ENDBRANCH  31  32
ENDBRANCH  30  31
ENDBRANCH  27  30
ENDBRANCH   1  27
TORSDOF 13
ENDMDL