MODEL 2
REMARK VINA RESULT: -8.194120832      1.207      1.375
REMARK  12 active torsions:
REMARK  status: ('A' for Active; 'I' for Inactive)
REMARK    1  A    between atoms: N1_1  and  C1_5
REMARK    2  A    between atoms: C1_5  and  C2_6
REMARK    3  A    between atoms: C2_6  and  N2_7
REMARK       I    between atoms: N2_7  and  C3_9
REMARK    4  A    between atoms: C3_9  and  C4_11
REMARK    5  A    between atoms: C7_17  and  C8_18
REMARK       I    between atoms: C8_18  and  N4_20
REMARK    6  A    between atoms: N4_20  and  C9_22
REMARK    7  A    between atoms: C9_22  and  C10_23
REMARK       I    between atoms: C10_23  and  N5_25
REMARK    8  A    between atoms: N5_25  and  C11_27
REMARK    9  A    between atoms: C11_27  and  C12_28
REMARK   10  A    between atoms: C12_28  and  N6_29
REMARK   11  A    between atoms: N6_29  and  C13_32
REMARK   12  A    between atoms: C13_32  and  N7_33
ROOT
HETATM    1  C8  UNL     1      40.823 -65.842  32.533  1.00  0.00     0.224 C
HETATM    2  O2  UNL     1      40.080 -65.267  31.710  1.00  0.00    -0.273 OA
HETATM    3  N4  UNL     1      41.392 -67.085  32.130  1.00  0.00    -0.352 N
ATOM      4  H4  UNL     1      41.997 -67.571  32.792  1.00  0.00     0.162 HD
ENDROOT
BRANCH   1   5
HETATM    5  C7  UNL     1      41.138 -65.330  33.849  1.00  0.00     0.119 C
HETATM    6  C4  UNL     1      41.584 -63.932  33.995  1.00  0.00     0.289 C
HETATM    7  N3  UNL     1      42.067 -63.943  35.397  1.00  0.00    -0.061 N
HETATM    8  C5  UNL     1      42.722 -65.196  35.601  1.00  0.00     0.234 C
ATOM      9  H32 UNL     1      42.655 -63.140  35.625  1.00  0.00     0.278 HD
ATOM     10  H31 UNL     1      41.330 -63.760  36.077  1.00  0.00     0.278 HD
HETATM   11  C6  UNL     1      42.162 -66.160  34.594  1.00  0.00     0.044 C
BRANCH   6  12
HETATM   12  C3  UNL     1      42.743 -63.514  33.185  1.00  0.00     0.249 C
HETATM   13  N2  UNL     1      43.945 -63.171  33.826  1.00  0.00    -0.358 N
ATOM     14  H2  UNL     1      43.931 -63.252  34.843  1.00  0.00     0.162 HD
HETATM   15  O1  UNL     1      42.661 -63.465  31.943  1.00  0.00    -0.271 OA
BRANCH  13  16
HETATM   16  C2  UNL     1      45.178 -62.730  33.275  1.00  0.00     0.150 C
BRANCH  16  17
HETATM   17  C1  UNL     1      46.008 -61.785  34.059  1.00  0.00     0.249 C
BRANCH  17  18
HETATM   18  N1  UNL     1      46.307 -62.110  35.409  1.00  0.00    -0.078 N
ATOM     19  H13 UNL     1      46.352 -61.251  35.956  1.00  0.00     0.274 HD
ATOM     20  H12 UNL     1      45.496 -62.566  35.828  1.00  0.00     0.274 HD
ATOM     21  H11 UNL     1      47.138 -62.670  35.599  1.00  0.00     0.274 HD
ENDBRANCH  17  18
ENDBRANCH  16  17
ENDBRANCH  13  16
ENDBRANCH   6  12
ENDBRANCH   1   5
BRANCH   3  22
HETATM   22  C9  UNL     1      41.167 -67.692  30.858  1.00  0.00     0.225 C
BRANCH  22  23
HETATM   23  C10 UNL     1      41.596 -69.111  30.792  1.00  0.00     0.235 C
HETATM   24  O3  UNL     1      41.099 -69.892  29.950  1.00  0.00    -0.272 OA
HETATM   25  N5  UNL     1      42.579 -69.614  31.678  1.00  0.00    -0.358 N
ATOM     26  H5  UNL     1      43.002 -69.001  32.375  1.00  0.00     0.162 HD
BRANCH  25  27
HETATM   27  C11 UNL     1      42.979 -70.995  31.592  1.00  0.00     0.150 C
BRANCH  27  28
HETATM   28  C12 UNL     1      44.313 -71.185  30.946  1.00  0.00     0.253 C
BRANCH  28  29
HETATM   29  N6  UNL     1      44.462 -70.185  29.926  1.00  0.00    -0.050 N
ATOM     30  H62 UNL     1      43.619 -70.104  29.357  1.00  0.00     0.279 HD
ATOM     31  H61 UNL     1      44.476 -69.246  30.323  1.00  0.00     0.279 HD
BRANCH  29  32
HETATM   32  C13 UNL     1      45.641 -70.432  29.101  1.00  0.00     0.460 C
BRANCH  32  33
HETATM   33  N7  UNL     1      46.779 -70.787  29.912  1.00  0.00    -0.056 N
ATOM     34  H73 UNL     1      47.389 -69.986  30.073  1.00  0.00     0.276 HD
ATOM     35  H72 UNL     1      46.509 -70.974  30.877  1.00  0.00     0.276 HD
ATOM     36  H71 UNL     1      47.290 -71.572  29.507  1.00  0.00     0.276 HD
ENDBRANCH  32  33
ENDBRANCH  29  32
ENDBRANCH  28  29
ENDBRANCH  27  28
ENDBRANCH  25  27
ENDBRANCH  22  23
ENDBRANCH   3  22
TORSDOF 12
ENDMDL