MODEL 2
REMARK VINA RESULT: -4.218311795      2.476      6.126
REMARK  12 active torsions:
REMARK  status: ('A' for Active; 'I' for Inactive)
REMARK    1  A    between atoms: N2_3  and  C2_5
REMARK    2  A    between atoms: C3_6  and  C4_7
REMARK    3  A    between atoms: C4_7  and  N3_8
REMARK    4  A    between atoms: N3_8  and  C5_10
REMARK    5  A    between atoms: C6_12  and  N4_13
REMARK    6  A    between atoms: C8_18  and  O2_19
REMARK    7  A    between atoms: O2_19  and  C9_20
REMARK    8  A    between atoms: C9_20  and  N7_21
REMARK    9  A    between atoms: C9_20  and  N8_25
REMARK   10  A    between atoms: N8_25  and  C10_28
REMARK   11  A    between atoms: C10_28  and  C11_29
REMARK   12  A    between atoms: C11_29  and  O3_30
ROOT
HETATM    1  C2  UNL     1      45.031 -63.360  33.656  1.00  0.00     0.120 C
HETATM    2  C3  UNL     1      45.177 -61.853  33.606  1.00  0.00     0.054 C
HETATM    3  C6  UNL     1      44.762 -61.864  35.079  1.00  0.00     0.122 C
HETATM    4  C8  UNL     1      43.945 -63.101  34.709  1.00  0.00     0.172 C
ENDROOT
BRANCH   4   5
HETATM    5  O2  UNL     1      43.834 -64.052  35.678  1.00  0.00    -0.329 OA
BRANCH   5   6
HETATM    6  C9  UNL     1      42.538 -64.547  35.687  1.00  0.00     0.522 C
BRANCH   6   7
HETATM    7  N7  UNL     1      41.608 -63.544  35.207  1.00  0.00    -0.027 N
ATOM      8  H73 UNL     1      40.724 -63.958  34.912  1.00  0.00     0.279 HD
ATOM      9  H72 UNL     1      41.257 -62.959  35.966  1.00  0.00     0.279 HD
ATOM     10  H71 UNL     1      42.033 -62.988  34.465  1.00  0.00     0.279 HD
ENDBRANCH   6   7
BRANCH   6  11
HETATM   11  N8  UNL     1      42.412 -65.785  34.949  1.00  0.00    -0.021 N
ATOM     12  H82 UNL     1      42.995 -65.783  34.111  1.00  0.00     0.282 HD
ATOM     13  H81 UNL     1      42.852 -66.562  35.443  1.00  0.00     0.282 HD
BRANCH  11  14
HETATM   14  C10 UNL     1      41.020 -66.070  34.631  1.00  0.00     0.263 C
BRANCH  14  15
HETATM   15  C11 UNL     1      40.929 -66.304  33.127  1.00  0.00     0.192 C
BRANCH  15  16
HETATM   16  O3  UNL     1      42.110 -66.970  32.769  1.00  0.00    -0.399 OA
ATOM     17  H3  UNL     1      42.605 -66.355  32.241  1.00  0.00     0.209 HD
ENDBRANCH  15  16
ENDBRANCH  14  15
ENDBRANCH  11  14
ENDBRANCH   6  11
ENDBRANCH   5   6
ENDBRANCH   4   5
BRANCH   1  18
HETATM   18  N2  UNL     1      44.565 -63.988  32.462  1.00  0.00    -0.380 N
HETATM   19  C1  UNL     1      43.345 -63.780  32.096  1.00  0.00     0.185 C
HETATM   20  N1  UNL     1      42.811 -64.380  30.907  1.00  0.00    -0.097 NA
ATOM     21  H2  UNL     1      45.181 -64.586  31.912  1.00  0.00     0.160 HD
ENDBRANCH   1  18
BRANCH   3  22
HETATM   22  N4  UNL     1      45.864 -62.220  35.950  1.00  0.00    -0.359 N
HETATM   23  C7  UNL     1      46.318 -61.328  36.761  1.00  0.00     0.197 C
HETATM   24  N5  UNL     1      47.393 -61.697  37.602  1.00  0.00    -0.067 NA
HETATM   25  N6  UNL     1      45.801 -60.010  36.851  1.00  0.00    -0.067 NA
ATOM     26  H4  UNL     1      46.270 -63.155  35.922  1.00  0.00     0.162 HD
ENDBRANCH   3  22
BRANCH   2  27
HETATM   27  C4  UNL     1      46.577 -61.367  33.357  1.00  0.00     0.130 C
BRANCH  27  28
HETATM   28  N3  UNL     1      46.906 -60.179  34.067  1.00  0.00    -0.368 N
ATOM     29  H3  UNL     1      47.270 -60.235  35.018  1.00  0.00     0.161 HD
BRANCH  28  30
HETATM   30  C5  UNL     1      46.726 -58.927  33.448  1.00  0.00     0.348 C
HETATM   31  O1  UNL     1      46.168 -57.963  34.026  1.00  0.00    -0.284 OA
ENDBRANCH  28  30
ENDBRANCH  27  28
ENDBRANCH   2  27
TORSDOF 12
ENDMDL