MODEL 2
REMARK VINA RESULT: -8.182517707      1.652      7.913
REMARK  12 active torsions:
REMARK  status: ('A' for Active; 'I' for Inactive)
REMARK    1  A    between atoms: N1_1  and  C1_5
REMARK    2  A    between atoms: C1_5  and  C2_6
REMARK       I    between atoms: C2_6  and  N2_8
REMARK    3  A    between atoms: N2_8  and  C3_10
REMARK    4  A    between atoms: C3_10  and  C4_11
REMARK       I    between atoms: C4_11  and  N3_13
REMARK    5  A    between atoms: N3_13  and  C5_15
REMARK    6  A    between atoms: C5_15  and  C6_16
REMARK    7  A    between atoms: C6_16  and  N4_17
REMARK    8  A    between atoms: N4_17  and  C7_20
REMARK    9  A    between atoms: C7_20  and  C8_21
REMARK   10  A    between atoms: C8_21  and  N5_22
REMARK   11  A    between atoms: N5_22  and  C9_25
REMARK   12  A    between atoms: C10_29  and  N7_30
REMARK       I    between atoms: N7_30  and  C11_32
ROOT
HETATM    1  N4  UNL     1      42.351 -69.299  30.691  1.00  0.00    -0.072 N
ATOM      2  H41 UNL     1      43.068 -68.834  31.247  1.00  0.00     0.277 HD
ATOM      3  H42 UNL     1      42.608 -68.940  29.771  1.00  0.00     0.277 HD
ENDROOT
BRANCH   1   4
HETATM    4  C6  UNL     1      41.048 -68.879  31.069  1.00  0.00     0.252 C
BRANCH   4   5
HETATM    5  C5  UNL     1      41.032 -67.400  31.442  1.00  0.00     0.150 C
BRANCH   5   6
HETATM    6  N3  UNL     1      41.892 -67.197  32.591  1.00  0.00    -0.358 N
HETATM    7  C4  UNL     1      41.775 -65.993  33.351  1.00  0.00     0.235 C
HETATM    8  O2  UNL     1      40.940 -65.119  33.032  1.00  0.00    -0.272 OA
ATOM      9  H3  UNL     1      42.574 -67.908  32.855  1.00  0.00     0.162 HD
BRANCH   7  10
HETATM   10  C3  UNL     1      42.643 -65.774  34.524  1.00  0.00     0.225 C
BRANCH  10  11
HETATM   11  N2  UNL     1      43.739 -64.892  34.222  1.00  0.00    -0.351 N
HETATM   12  C2  UNL     1      43.732 -63.553  34.656  1.00  0.00     0.243 C
HETATM   13  O1  UNL     1      42.767 -63.072  35.315  1.00  0.00    -0.272 OA
ATOM     14  H2  UNL     1      44.532 -65.242  33.686  1.00  0.00     0.163 HD
BRANCH  12  15
HETATM   15  C1  UNL     1      44.911 -62.696  34.316  1.00  0.00     0.332 C
BRANCH  15  16
HETATM   16  N1  UNL     1      45.344 -62.996  32.969  1.00  0.00    -0.071 N
ATOM     17  H13 UNL     1      44.589 -63.373  32.395  1.00  0.00     0.274 HD
ATOM     18  H12 UNL     1      45.532 -62.154  32.425  1.00  0.00     0.274 HD
ATOM     19  H11 UNL     1      46.150 -63.620  33.008  1.00  0.00     0.274 HD
ENDBRANCH  15  16
ENDBRANCH  12  15
ENDBRANCH  10  11
ENDBRANCH   7  10
ENDBRANCH   5   6
ENDBRANCH   4   5
ENDBRANCH   1   4
BRANCH   1  20
HETATM   20  C7  UNL     1      42.481 -70.723  30.753  1.00  0.00     0.260 C
BRANCH  20  21
HETATM   21  C8  UNL     1      43.329 -71.163  31.920  1.00  0.00     0.262 C
BRANCH  21  22
HETATM   22  N5  UNL     1      44.514 -71.855  31.520  1.00  0.00    -0.041 N
ATOM     23  H52 UNL     1      44.568 -72.772  31.964  1.00  0.00     0.279 HD
ATOM     24  H51 UNL     1      44.454 -72.146  30.543  1.00  0.00     0.279 HD
BRANCH  22  25
HETATM   25  C9  UNL     1      45.704 -71.104  31.755  1.00  0.00     0.434 A
HETATM   26  N6  UNL     1      46.890 -71.807  31.185  1.00  0.00    -0.018 N
HETATM   27  C10 UNL     1      46.552 -70.534  30.658  1.00  0.00     0.349 A
ATOM     28  H62 UNL     1      47.739 -72.203  31.588  1.00  0.00     0.282 HD
ATOM     29  H61 UNL     1      47.034 -72.728  30.771  1.00  0.00     0.282 HD
BRANCH  27  30
HETATM   30  N7  UNL     1      45.900 -70.318  29.406  1.00  0.00    -0.314 N
HETATM   31  C11 UNL     1      46.070 -71.220  28.300  1.00  0.00     0.330 C
HETATM   32  N8  UNL     1      45.411 -70.973  27.083  1.00  0.00    -0.040 NA
HETATM   33  O3  UNL     1      46.809 -72.230  28.420  1.00  0.00    -0.251 OA
ATOM     34  H7  UNL     1      45.298 -69.502  29.294  1.00  0.00     0.166 HD
ENDBRANCH  27  30
ENDBRANCH  22  25
ENDBRANCH  21  22
ENDBRANCH  20  21
ENDBRANCH   1  20
TORSDOF 12
ENDMDL