MODEL 1
REMARK VINA RESULT: -7.277969826      0.000      0.000
REMARK  13 active torsions:
REMARK  status: ('A' for Active; 'I' for Inactive)
REMARK    1  A    between atoms: N1_1  and  C1_5
REMARK    2  A    between atoms: C1_5  and  C2_6
REMARK    3  A    between atoms: C3_10  and  C4_11
REMARK    4  A    between atoms: C4_11  and  N3_12
REMARK    5  A    between atoms: C6_17  and  N6_18
REMARK       I    between atoms: N6_18  and  C7_20
REMARK    6  A    between atoms: C7_20  and  C8_22
REMARK    7  A    between atoms: C8_22  and  N7_23
REMARK    8  A    between atoms: N7_23  and  C9_25
REMARK    9  A    between atoms: C9_25  and  C10_26
REMARK   10  A    between atoms: C10_26  and  N8_27
REMARK   11  A    between atoms: N8_27  and  C11_30
REMARK   12  A    between atoms: C11_30  and  C12_31
REMARK   13  A    between atoms: C12_31  and  O2_32
ROOT
HETATM    1  C2  UNL     1      40.673 -65.335  33.376  1.00  0.00     0.236 C
HETATM    2  N2  UNL     1      40.757 -66.731  33.651  1.00  0.00    -0.059 N
ATOM      3  H21 UNL     1      39.906 -67.293  33.683  1.00  0.00     0.278 HD
ATOM      4  H22 UNL     1      41.007 -67.048  34.588  1.00  0.00     0.278 HD
HETATM    5  C3  UNL     1      41.681 -66.902  32.571  1.00  0.00     0.228 C
HETATM    6  C6  UNL     1      41.832 -65.393  32.490  1.00  0.00     0.149 C
ENDROOT
BRANCH   6   7
HETATM    7  N6  UNL     1      43.141 -65.014  32.933  1.00  0.00    -0.351 N
HETATM    8  C7  UNL     1      43.540 -63.634  32.816  1.00  0.00     0.235 C
HETATM    9  O1  UNL     1      42.718 -62.785  32.319  1.00  0.00    -0.272 OA
ATOM     10  H6  UNL     1      43.778 -65.708  33.324  1.00  0.00     0.163 HD
BRANCH   8  11
HETATM   11  C8  UNL     1      44.877 -63.167  33.249  1.00  0.00     0.217 C
BRANCH  11  12
HETATM   12  N7  UNL     1      45.067 -63.113  34.647  1.00  0.00    -0.412 N
ATOM     13  H7  UNL     1      44.892 -63.914  35.254  1.00  0.00     0.153 HD
BRANCH  12  14
HETATM   14  C9  UNL     1      45.520 -61.867  35.146  1.00  0.00     0.142 C
BRANCH  14  15
HETATM   15  C10 UNL     1      46.463 -61.193  34.132  1.00  0.00     0.251 C
BRANCH  15  16
HETATM   16  N8  UNL     1      46.904 -59.927  34.688  1.00  0.00    -0.072 N
ATOM     17  H82 UNL     1      46.455 -59.735  35.583  1.00  0.00     0.277 HD
ATOM     18  H81 UNL     1      47.873 -59.975  35.004  1.00  0.00     0.277 HD
BRANCH  16  19
HETATM   19  C11 UNL     1      46.703 -58.835  33.745  1.00  0.00     0.258 C
BRANCH  19  20
HETATM   20  C12 UNL     1      45.987 -57.738  34.461  1.00  0.00     0.191 C
BRANCH  20  21
HETATM   21  O2  UNL     1      45.355 -58.174  35.625  1.00  0.00    -0.399 OA
ATOM     22  H2  UNL     1      44.930 -57.469  36.100  1.00  0.00     0.209 HD
ENDBRANCH  20  21
ENDBRANCH  19  20
ENDBRANCH  16  19
ENDBRANCH  15  16
ENDBRANCH  14  15
ENDBRANCH  12  14
ENDBRANCH  11  12
ENDBRANCH   8  11
ENDBRANCH   6   7
BRANCH   1  23
HETATM   23  C1  UNL     1      40.649 -64.424  34.568  1.00  0.00     0.264 C
BRANCH  23  24
HETATM   24  N1  UNL     1      40.227 -63.084  34.317  1.00  0.00    -0.077 N
ATOM     25  H13 UNL     1      39.888 -63.000  33.359  1.00  0.00     0.274 HD
ATOM     26  H12 UNL     1      39.368 -62.888  34.833  1.00  0.00     0.274 HD
ATOM     27  H11 UNL     1      40.918 -62.358  34.506  1.00  0.00     0.274 HD
ENDBRANCH  23  24
ENDBRANCH   1  23
BRANCH   5  28
HETATM   28  C4  UNL     1      41.120 -67.512  31.303  1.00  0.00     0.157 C
BRANCH  28  29
HETATM   29  N3  UNL     1      41.874 -68.700  30.978  1.00  0.00    -0.365 N
HETATM   30  C5  UNL     1      41.370 -69.893  31.158  1.00  0.00     0.197 C
HETATM   31  N4  UNL     1      40.076 -70.120  31.671  1.00  0.00    -0.067 NA
HETATM   32  N5  UNL     1      42.204 -70.999  30.801  1.00  0.00    -0.067 NA
ATOM     33  H3  UNL     1      42.817 -68.606  30.601  1.00  0.00     0.161 HD
ENDBRANCH  28  29
ENDBRANCH   5  28
TORSDOF 13
ENDMDL