MODEL 2
REMARK VINA RESULT: -6.727566167      1.703      2.261
REMARK  13 active torsions:
REMARK  status: ('A' for Active; 'I' for Inactive)
REMARK    1  A    between atoms: C2_2  and  N1_3
REMARK    2  A    between atoms: N1_3  and  C3_6
REMARK    3  A    between atoms: C3_6  and  C4_7
REMARK    4  A    between atoms: C4_7  and  N2_8
REMARK    5  A    between atoms: N2_8  and  C5_11
REMARK    6  A    between atoms: C5_11  and  C6_12
REMARK    7  A    between atoms: C6_12  and  N3_13
REMARK    8  A    between atoms: C6_12  and  C10_24
REMARK    9  A    between atoms: N3_13  and  C7_15
REMARK   10  A    between atoms: C8_16  and  N4_17
REMARK   11  A    between atoms: C9_21  and  O1_22
REMARK       I    between atoms: C10_24  and  N5_26
REMARK   12  A    between atoms: N5_26  and  C11_28
REMARK   13  A    between atoms: C11_28  and  C12_29
REMARK       I    between atoms: C12_29  and  N6_31
ROOT
HETATM    1  C6  UNL     1      41.562 -64.027  32.571  1.00  0.00     0.196 C
ENDROOT
BRANCH   1   2
HETATM    2  C5  UNL     1      42.960 -63.998  31.883  1.00  0.00     0.266 C
BRANCH   2   3
HETATM    3  N2  UNL     1      44.022 -64.309  32.792  1.00  0.00    -0.071 N
ATOM      4  H22 UNL     1      44.523 -65.163  32.548  1.00  0.00     0.277 HD
ATOM      5  H21 UNL     1      43.691 -64.612  33.708  1.00  0.00     0.277 HD
BRANCH   3   6
HETATM    6  C4  UNL     1      44.891 -63.120  32.849  1.00  0.00     0.259 C
BRANCH   6   7
HETATM    7  C3  UNL     1      44.939 -62.529  34.211  1.00  0.00     0.259 C
BRANCH   7   8
HETATM    8  N1  UNL     1      46.321 -62.175  34.557  1.00  0.00    -0.074 N
ATOM      9  H12 UNL     1      47.002 -62.459  33.854  1.00  0.00     0.277 HD
ATOM     10  H11 UNL     1      46.702 -62.724  35.327  1.00  0.00     0.277 HD
BRANCH   8  11
HETATM   11  C2  UNL     1      46.315 -60.724  34.816  1.00  0.00     0.228 C
HETATM   12  C1  UNL     1      45.680 -60.528  36.181  1.00  0.00     0.034 C
ENDBRANCH   8  11
ENDBRANCH   7   8
ENDBRANCH   6   7
ENDBRANCH   3   6
ENDBRANCH   2   3
ENDBRANCH   1   2
BRANCH   1  13
HETATM   13  N3  UNL     1      41.631 -63.885  33.927  1.00  0.00    -0.399 N
ATOM     14  H3  UNL     1      42.004 -62.988  34.237  1.00  0.00     0.154 HD
BRANCH  13  15
HETATM   15  C7  UNL     1      41.289 -64.732  34.943  1.00  0.00     0.141 A
HETATM   16  C8  UNL     1      42.168 -65.242  36.016  1.00  0.00     0.238 A
HETATM   17  C9  UNL     1      41.665 -66.194  34.948  1.00  0.00     0.175 A
BRANCH  16  18
HETATM   18  N4  UNL     1      43.618 -65.196  36.006  1.00  0.00    -0.070 N
ATOM     19  H43 UNL     1      43.936 -65.855  36.716  1.00  0.00     0.274 HD
ATOM     20  H42 UNL     1      43.918 -65.634  35.135  1.00  0.00     0.274 HD
ATOM     21  H41 UNL     1      44.182 -64.353  36.118  1.00  0.00     0.274 HD
ENDBRANCH  16  18
BRANCH  17  22
HETATM   22  O1  UNL     1      42.570 -66.681  34.047  1.00  0.00    -0.391 OA
ATOM     23  H1  UNL     1      42.309 -66.864  33.152  1.00  0.00     0.210 HD
ENDBRANCH  17  22
ENDBRANCH  13  15
ENDBRANCH   1  13
BRANCH   1  24
HETATM   24  C10 UNL     1      40.866 -65.117  31.888  1.00  0.00     0.242 C
HETATM   25  O2  UNL     1      39.644 -65.154  31.743  1.00  0.00    -0.271 OA
HETATM   26  N5  UNL     1      41.617 -66.235  31.330  1.00  0.00    -0.351 N
ATOM     27  H5  UNL     1      42.633 -66.276  31.418  1.00  0.00     0.163 HD
BRANCH  26  28
HETATM   28  C11 UNL     1      40.902 -67.273  30.657  1.00  0.00     0.225 C
BRANCH  28  29
HETATM   29  C12 UNL     1      41.280 -68.629  31.057  1.00  0.00     0.234 C
HETATM   30  O3  UNL     1      40.530 -69.282  31.882  1.00  0.00    -0.272 OA
HETATM   31  N6  UNL     1      42.426 -69.298  30.606  1.00  0.00    -0.364 N
HETATM   32  C13 UNL     1      42.704 -70.658  31.079  1.00  0.00     0.149 C
ATOM     33  H6  UNL     1      43.062 -68.841  29.952  1.00  0.00     0.161 HD
ENDBRANCH  28  29
ENDBRANCH  26  28
ENDBRANCH   1  24
TORSDOF 13
ENDMDL