MODEL 1
REMARK VINA RESULT: -5.446919357      0.000      0.000
REMARK  13 active torsions:
REMARK  status: ('A' for Active; 'I' for Inactive)
REMARK       I    between atoms: C2_2  and  N1_4
REMARK    1  A    between atoms: N1_4  and  C3_6
REMARK    2  A    between atoms: C3_6  and  C4_7
REMARK    3  A    between atoms: C3_6  and  C6_16
REMARK    4  A    between atoms: C3_6  and  C12_30
REMARK    5  A    between atoms: C4_7  and  N2_8
REMARK    6  A    between atoms: N2_8  and  C5_11
REMARK    7  A    between atoms: C5_11  and  N3_12
REMARK    8  A    between atoms: N3_12  and  N4_13
REMARK    9  A    between atoms: C6_16  and  O2_17
REMARK   10  A    between atoms: O2_17  and  C7_18
REMARK   11  A    between atoms: C9_20  and  N5_21
REMARK   12  A    between atoms: C10_25  and  N6_26
REMARK   13  A    between atoms: N6_26  and  C11_28
ROOT
HETATM    1  C3  UNL     1      42.224 -70.070  31.365  1.00  0.00     0.157 C
ENDROOT
BRANCH   1   2
HETATM    2  N1  UNL     1      42.120 -68.835  32.077  1.00  0.00    -0.341 N
HETATM    3  C2  UNL     1      41.538 -67.632  31.618  1.00  0.00     0.214 C
HETATM    4  C1  UNL     1      41.492 -66.402  32.458  1.00  0.00     0.117 C
HETATM    5  O1  UNL     1      41.025 -67.516  30.482  1.00  0.00    -0.274 OA
ATOM      6  H1  UNL     1      42.508 -68.820  33.020  1.00  0.00     0.163 HD
ENDBRANCH   1   2
BRANCH   1   7
HETATM    7  C4  UNL     1      42.727 -71.135  32.310  1.00  0.00     0.276 C
BRANCH   7   8
HETATM    8  N2  UNL     1      43.990 -70.655  32.894  1.00  0.00    -0.058 N
ATOM      9  H22 UNL     1      44.483 -70.021  32.265  1.00  0.00     0.278 HD
ATOM     10  H21 UNL     1      43.831 -70.007  33.666  1.00  0.00     0.278 HD
BRANCH   8  11
HETATM   11  C5  UNL     1      44.821 -71.777  33.292  1.00  0.00     0.365 C
BRANCH  11  12
HETATM   12  N3  UNL     1      46.017 -71.350  33.952  1.00  0.00    -0.121 NA
BRANCH  12  13
HETATM   13  N4  UNL     1      46.156 -69.964  33.820  1.00  0.00    -0.347 N
ATOM     14  H42 UNL     1      45.719 -69.408  33.085  1.00  0.00     0.172 HD
ATOM     15  H41 UNL     1      46.753 -69.608  34.567  1.00  0.00     0.172 HD
ENDBRANCH  12  13
ENDBRANCH  11  12
ENDBRANCH   8  11
ENDBRANCH   7   8
ENDBRANCH   1   7
BRANCH   1  16
HETATM   16  C6  UNL     1      42.977 -70.033  30.084  1.00  0.00     0.210 C
BRANCH  16  17
HETATM   17  O2  UNL     1      44.093 -70.734  29.998  1.00  0.00    -0.381 OA
BRANCH  17  18
HETATM   18  C7  UNL     1      45.281 -70.289  29.564  1.00  0.00     0.148 C
HETATM   19  C8  UNL     1      45.771 -71.186  28.411  1.00  0.00     0.069 C
HETATM   20  C9  UNL     1      46.275 -72.129  29.479  1.00  0.00     0.211 C
HETATM   21  C10 UNL     1      46.472 -70.912  30.356  1.00  0.00     0.143 C
BRANCH  20  22
HETATM   22  N5  UNL     1      45.257 -72.991  30.038  1.00  0.00    -0.073 N
ATOM     23  H53 UNL     1      44.330 -72.599  29.875  1.00  0.00     0.274 HD
ATOM     24  H52 UNL     1      45.180 -73.851  29.497  1.00  0.00     0.274 HD
ATOM     25  H51 UNL     1      45.385 -73.203  31.028  1.00  0.00     0.274 HD
ENDBRANCH  20  22
BRANCH  21  26
HETATM   26  N6  UNL     1      47.698 -70.241  30.030  1.00  0.00    -0.359 N
ATOM     27  H6  UNL     1      48.046 -70.207  29.072  1.00  0.00     0.162 HD
BRANCH  26  28
HETATM   28  C11 UNL     1      48.411 -69.623  31.103  1.00  0.00     0.348 C
HETATM   29  O3  UNL     1      48.481 -70.133  32.259  1.00  0.00    -0.284 OA
ENDBRANCH  26  28
ENDBRANCH  21  26
ENDBRANCH  17  18
ENDBRANCH  16  17
ENDBRANCH   1  16
BRANCH   1  30
HETATM   30  C12 UNL     1      40.774 -70.449  31.000  1.00  0.00     0.263 C
HETATM   31  N7  UNL     1      39.781 -70.407  32.002  1.00  0.00    -0.060 NA
HETATM   32  O4  UNL     1      40.493 -70.782  29.849  1.00  0.00    -0.274 OA
ENDBRANCH   1  30
TORSDOF 13
ENDMDL