MODEL 3
REMARK VINA RESULT: -8.172376652      1.142      2.181
REMARK  16 active torsions:
REMARK  status: ('A' for Active; 'I' for Inactive)
REMARK    1  A    between atoms: C2_2  and  O2_4
REMARK    2  A    between atoms: O2_4  and  C3_5
REMARK    3  A    between atoms: C3_5  and  C32_41
REMARK    4  A    between atoms: C4_6  and  C5_7
REMARK    5  A    between atoms: C5_7  and  O4_9
REMARK    6  A    between atoms: O4_9  and  C6_10
REMARK    7  A    between atoms: C8_12  and  C9_13
REMARK    8  A    between atoms: C9_13  and  C11_15
REMARK    9  A    between atoms: C11_15  and  C13_17
REMARK   10  A    between atoms: C13_17  and  C14_18
REMARK   11  A    between atoms: C14_18  and  C15_19
REMARK   12  A    between atoms: C15_19  and  O5_20
REMARK   13  A    between atoms: C15_19  and  O6_22
REMARK   14  A    between atoms: C15_19  and  C18_26
REMARK   15  A    between atoms: O6_22  and  C16_23
REMARK   16  A    between atoms: C26_35  and  C27_36
ROOT
HETATM    1  C6  UNL     1       0.286 -39.195   5.649  1.00  0.00     0.146 C
HETATM    2  C7  UNL     1      -0.025 -39.087   7.124  1.00  0.00     0.040 C
HETATM    3  C8  UNL     1      -1.112 -40.105   7.230  1.00  0.00     0.009 C
HETATM    4  C21 UNL     1      -0.802 -41.130   6.215  1.00  0.00    -0.008 C
HETATM    5  C22 UNL     1      -1.907 -41.542   5.291  1.00  0.00     0.021 C
HETATM    6  C23 UNL     1      -0.555 -42.375   7.002  1.00  0.00    -0.012 C
HETATM    7  C24 UNL     1       0.616 -42.824   7.392  1.00  0.00     0.052 C
HETATM    8  C25 UNL     1       1.710 -41.963   6.965  1.00  0.00     0.179 C
HETATM    9  O8  UNL     1       2.687 -41.743   7.732  1.00  0.00    -0.288 OA
HETATM   10  C26 UNL     1       1.560 -41.402   5.596  1.00  0.00     0.005 C
HETATM   11  C30 UNL     1       0.363 -40.659   5.372  1.00  0.00     0.025 C
HETATM   12  C31 UNL     1       0.047 -40.720   3.855  1.00  0.00     0.024 C
ENDROOT
BRANCH   3  13
HETATM   13  C9  UNL     1      -2.438 -39.569   7.529  1.00  0.00     0.015 C
HETATM   14  C10 UNL     1      -2.969 -39.986   8.915  1.00  0.00     0.015 C
BRANCH  13  15
HETATM   15  C11 UNL     1      -2.586 -38.074   7.605  1.00  0.00    -0.083 C
HETATM   16  C12 UNL     1      -3.234 -37.531   6.317  1.00  0.00     0.043 C
BRANCH  15  17
HETATM   17  C13 UNL     1      -3.073 -37.355   8.760  1.00  0.00    -0.019 C
BRANCH  17  18
HETATM   18  C14 UNL     1      -2.441 -36.160   9.314  1.00  0.00     0.096 C
BRANCH  18  19
HETATM   19  C15 UNL     1      -1.911 -36.202  10.756  1.00  0.00     0.176 C
BRANCH  19  20
HETATM   20  O5  UNL     1      -0.945 -35.144  10.752  1.00  0.00    -0.364 OA
ATOM     21  H5  UNL     1      -0.125 -35.623  10.781  1.00  0.00     0.213 HD
ENDBRANCH  19  20
BRANCH  19  22
HETATM   22  O6  UNL     1      -2.986 -35.829  11.534  1.00  0.00    -0.283 OA
BRANCH  22  23
HETATM   23  C16 UNL     1      -3.119 -35.059  12.617  1.00  0.00     0.257 C
HETATM   24  C17 UNL     1      -3.984 -35.494  13.793  1.00  0.00     0.126 C
HETATM   25  O7  UNL     1      -2.532 -33.959  12.679  1.00  0.00    -0.266 OA
ENDBRANCH  22  23
ENDBRANCH  19  22
BRANCH  19  26
HETATM   26  C18 UNL     1      -1.221 -37.470  11.006  1.00  0.00     0.041 C
HETATM   27  C19 UNL     1      -1.422 -38.222  12.269  1.00  0.00     0.015 C
HETATM   28  C20 UNL     1       0.287 -37.387  10.787  1.00  0.00     0.015 C
ENDBRANCH  19  26
ENDBRANCH  18  19
ENDBRANCH  17  18
ENDBRANCH  15  17
ENDBRANCH  13  15
ENDBRANCH   3  13
BRANCH   1  29
HETATM   29  O4  UNL     1       1.164 -38.354   5.071  1.00  0.00    -0.311 OA
BRANCH  29  30
HETATM   30  C5  UNL     1       0.941 -37.413   4.084  1.00  0.00     0.286 C
HETATM   31  O3  UNL     1       1.973 -37.331   3.307  1.00  0.00    -0.260 OA
BRANCH  30  32
HETATM   32  C4  UNL     1      -0.217 -36.590   3.862  1.00  0.00     0.119 C
HETATM   33  C3  UNL     1      -0.557 -35.480   4.724  1.00  0.00     0.086 C
BRANCH  33  34
HETATM   34  O2  UNL     1      -1.779 -34.820   4.303  1.00  0.00    -0.279 OA
BRANCH  34  35
HETATM   35  C2  UNL     1      -1.909 -34.488   2.951  1.00  0.00     0.260 C
HETATM   36  C1  UNL     1      -2.877 -35.127   2.044  1.00  0.00     0.126 C
HETATM   37  O1  UNL     1      -1.127 -33.577   2.526  1.00  0.00    -0.265 OA
ENDBRANCH  34  35
ENDBRANCH  33  34
BRANCH  33  38
HETATM   38  C32 UNL     1      -0.009 -34.963   5.770  1.00  0.00    -0.053 C
HETATM   39  C33 UNL     1       0.199 -35.575   7.100  1.00  0.00     0.046 C
HETATM   40  C34 UNL     1       0.517 -33.540   5.651  1.00  0.00     0.046 C
ENDBRANCH  33  38
ENDBRANCH  30  32
ENDBRANCH  29  30
ENDBRANCH   1  29
BRANCH  10  41
HETATM   41  C27 UNL     1       2.925 -40.988   5.196  1.00  0.00    -0.076 C
HETATM   42  C28 UNL     1       3.188 -40.590   3.804  1.00  0.00     0.044 C
HETATM   43  C29 UNL     1       4.078 -41.799   5.716  1.00  0.00     0.044 C
ENDBRANCH  10  41
TORSDOF 16
ENDMDL