MODEL 1
REMARK VINA RESULT: -7.634195159      0.000      0.000
REMARK  13 active torsions:
REMARK  status: ('A' for Active; 'I' for Inactive)
REMARK    1  A    between atoms: C2_2  and  C3_3
REMARK    2  A    between atoms: C2_2  and  C5_6
REMARK    3  A    between atoms: C3_3  and  S1_4
REMARK    4  A    between atoms: C5_6  and  C6_7
REMARK    5  A    between atoms: C6_7  and  O2_9
REMARK    6  A    between atoms: O2_9  and  C7_10
REMARK    7  A    between atoms: C7_10  and  C8_11
REMARK    8  A    between atoms: C11_14  and  O3_15
REMARK    9  A    between atoms: O3_15  and  C12_16
REMARK   10  A    between atoms: C16_21  and  O5_22
REMARK   11  A    between atoms: O5_22  and  C17_23
REMARK   12  A    between atoms: C22_29  and  C24_31
REMARK   13  A    between atoms: C25_32  and  C27_34
ROOT
HETATM    1  C8  UNL     1      -1.846 -36.215   6.200  1.00  0.00     0.051 C
HETATM    2  C9  UNL     1      -0.437 -35.987   6.488  1.00  0.00    -0.027 C
HETATM    3  C10 UNL     1      -0.106 -35.916   7.765  1.00  0.00     0.022 C
HETATM    4  C11 UNL     1       0.728 -35.852   5.601  1.00  0.00     0.082 C
HETATM    5  C14 UNL     1       0.864 -36.405   4.410  1.00  0.00     0.019 C
HETATM    6  C15 UNL     1      -0.042 -37.257   3.663  1.00  0.00     0.049 C
HETATM    7  C16 UNL     1      -1.475 -36.855   3.762  1.00  0.00     0.145 C
HETATM    8  C19 UNL     1      -2.107 -37.156   5.058  1.00  0.00     0.027 C
HETATM    9  C20 UNL     1      -1.873 -38.601   5.495  1.00  0.00     0.014 C
HETATM   10  C21 UNL     1      -0.468 -39.035   5.278  1.00  0.00     0.007 C
HETATM   11  C22 UNL     1      -0.256 -40.472   5.790  1.00  0.00    -0.021 C
HETATM   12  C23 UNL     1      -1.164 -41.425   5.098  1.00  0.00     0.020 C
HETATM   13  C28 UNL     1       1.201 -40.820   5.655  1.00  0.00     0.013 C
HETATM   14  C29 UNL     1       2.061 -39.662   5.175  1.00  0.00     0.002 C
HETATM   15  C30 UNL     1       1.578 -39.126   3.874  1.00  0.00     0.010 C
HETATM   16  C31 UNL     1       0.095 -38.754   3.945  1.00  0.00    -0.030 C
HETATM   17  C32 UNL     1      -0.542 -39.442   2.775  1.00  0.00     0.016 C
ENDROOT
BRANCH   1  18
HETATM   18  C7  UNL     1      -2.701 -34.986   6.119  1.00  0.00     0.188 C
BRANCH  18  19
HETATM   19  O2  UNL     1      -4.050 -35.108   6.370  1.00  0.00    -0.321 OA
BRANCH  19  20
HETATM   20  C6  UNL     1      -4.718 -35.132   7.559  1.00  0.00     0.262 C
HETATM   21  O1  UNL     1      -5.036 -33.997   8.044  1.00  0.00    -0.265 OA
BRANCH  20  22
HETATM   22  C5  UNL     1      -5.027 -36.415   8.199  1.00  0.00     0.145 C
BRANCH  22  23
HETATM   23  C2  UNL     1      -3.926 -36.923   9.060  1.00  0.00    -0.071 C
HETATM   24  C1  UNL     1      -3.446 -38.129   8.819  1.00  0.00     0.015 C
BRANCH  23  25
HETATM   25  C3  UNL     1      -3.397 -36.085  10.144  1.00  0.00     0.107 C
BRANCH  25  26
HETATM   26  S1  UNL     1      -2.013 -36.955  10.938  1.00  0.00    -0.169 SA
HETATM   27  C4  UNL     1      -0.787 -35.744  11.542  1.00  0.00     0.090 C
ENDBRANCH  25  26
ENDBRANCH  23  25
ENDBRANCH  22  23
ENDBRANCH  20  22
ENDBRANCH  19  20
ENDBRANCH  18  19
ENDBRANCH   1  18
BRANCH   4  28
HETATM   28  O3  UNL     1       1.786 -35.064   6.071  1.00  0.00    -0.279 OA
BRANCH  28  29
HETATM   29  C12 UNL     1       1.554 -33.709   6.247  1.00  0.00     0.260 C
HETATM   30  C13 UNL     1       2.147 -32.903   7.341  1.00  0.00     0.126 C
HETATM   31  O4  UNL     1       0.801 -33.111   5.441  1.00  0.00    -0.265 OA
ENDBRANCH  28  29
ENDBRANCH   4  28
BRANCH   7  32
HETATM   32  O5  UNL     1      -1.626 -35.534   3.370  1.00  0.00    -0.315 OA
BRANCH  32  33
HETATM   33  C17 UNL     1      -1.374 -35.061   2.084  1.00  0.00     0.255 C
HETATM   34  C18 UNL     1      -1.781 -35.777   0.863  1.00  0.00     0.126 C
HETATM   35  O6  UNL     1      -0.770 -33.970   1.989  1.00  0.00    -0.266 OA
ENDBRANCH  32  33
ENDBRANCH   7  32
BRANCH  11  36
HETATM   36  C24 UNL     1      -0.553 -40.463   7.235  1.00  0.00    -0.004 C
HETATM   37  C25 UNL     1      -0.364 -41.378   8.129  1.00  0.00     0.011 C
HETATM   38  C26 UNL     1      -0.815 -40.992   9.570  1.00  0.00     0.055 C
BRANCH  37  39
HETATM   39  C27 UNL     1       0.198 -42.691   8.099  1.00  0.00     0.204 C
HETATM   40  O7  UNL     1      -0.366 -43.701   7.676  1.00  0.00    -0.644 OA
HETATM   41  O8  UNL     1       1.522 -42.943   8.581  1.00  0.00    -0.644 OA
ENDBRANCH  37  39
ENDBRANCH  11  36
TORSDOF 13
ENDMDL