MODEL 4
REMARK VINA RESULT: -8.881620821      2.122      6.735
REMARK  14 active torsions:
REMARK  status: ('A' for Active; 'I' for Inactive)
REMARK    1  A    between atoms: C2_2  and  C3_3
REMARK    2  A    between atoms: C3_3  and  C4_4
REMARK    3  A    between atoms: C4_4  and  C5_5
REMARK    4  A    between atoms: C6_6  and  C7_7
REMARK    5  A    between atoms: C7_7  and  C8_8
REMARK    6  A    between atoms: C8_8  and  C10_10
REMARK    7  A    between atoms: C10_10  and  O1_11
REMARK    8  A    between atoms: C15_20  and  C16_21
REMARK    9  A    between atoms: C17_22  and  C18_23
REMARK   10  A    between atoms: C18_23  and  C20_25
REMARK   11  A    between atoms: C20_25  and  C22_27
REMARK   12  A    between atoms: C31_37  and  C32_38
REMARK   13  A    between atoms: C32_38  and  O7_40
REMARK   14  A    between atoms: O7_40  and  C33_41
ROOT
HETATM    1  C10 UNL     1      -2.854 -36.845   5.814  1.00  0.00     0.179 C
HETATM    2  C11 UNL     1      -3.833 -36.405   4.749  1.00  0.00     0.301 C
HETATM    3  O2  UNL     1      -5.082 -36.337   4.759  1.00  0.00    -0.261 OA
HETATM    4  O3  UNL     1      -3.110 -36.045   3.629  1.00  0.00    -0.278 OA
HETATM    5  C12 UNL     1      -1.808 -36.412   3.678  1.00  0.00     0.097 C
HETATM    6  C13 UNL     1      -0.784 -36.659   2.897  1.00  0.00     0.025 C
HETATM    7  C14 UNL     1       0.494 -37.016   3.496  1.00  0.00     0.178 C
HETATM    8  O4  UNL     1       1.609 -36.566   3.627  1.00  0.00    -0.291 OA
HETATM    9  C15 UNL     1       0.104 -38.411   4.091  1.00  0.00     0.105 C
HETATM   10  C25 UNL     1      -0.594 -39.033   2.939  1.00  0.00     0.034 C
HETATM   11  C26 UNL     1      -0.343 -38.440   1.546  1.00  0.00    -0.009 C
HETATM   12  C27 UNL     1      -1.063 -39.221   0.515  1.00  0.00     0.011 C
HETATM   13  C28 UNL     1      -0.963 -36.969   1.484  1.00  0.00     0.025 C
HETATM   14  C29 UNL     1      -0.317 -36.155   0.455  1.00  0.00     0.015 C
HETATM   15  C30 UNL     1      -0.746 -37.905   5.203  1.00  0.00     0.175 C
HETATM   16  O5  UNL     1      -0.810 -38.576   6.184  1.00  0.00    -0.294 OA
HETATM   17  C31 UNL     1      -1.536 -36.610   5.196  1.00  0.00     0.199 C
ENDROOT
BRANCH   1  18
HETATM   18  C8  UNL     1      -3.199 -36.112   7.056  1.00  0.00     0.032 C
HETATM   19  C9  UNL     1      -4.230 -35.054   6.894  1.00  0.00     0.014 C
BRANCH  18  20
HETATM   20  C7  UNL     1      -3.577 -36.924   8.238  1.00  0.00     0.034 C
BRANCH  20  21
HETATM   21  C6  UNL     1      -2.923 -36.375   9.455  1.00  0.00    -0.030 C
HETATM   22  C5  UNL     1      -1.705 -36.596   9.869  1.00  0.00    -0.031 C
BRANCH  22  23
HETATM   23  C4  UNL     1      -0.686 -37.442   9.217  1.00  0.00     0.027 C
BRANCH  23  24
HETATM   24  C3  UNL     1      -0.202 -38.550  10.152  1.00  0.00     0.003 C
BRANCH  24  25
HETATM   25  C2  UNL     1      -0.189 -39.876   9.409  1.00  0.00    -0.004 C
HETATM   26  C1  UNL     1      -1.598 -40.311   9.121  1.00  0.00     0.005 C
ENDBRANCH  24  25
ENDBRANCH  23  24
ENDBRANCH  22  23
ENDBRANCH  20  21
ENDBRANCH  18  20
ENDBRANCH   1  18
BRANCH   1  27
HETATM   27  O1  UNL     1      -3.110 -38.220   6.078  1.00  0.00    -0.377 OA
ATOM     28  H1  UNL     1      -2.734 -38.705   5.353  1.00  0.00     0.211 HD
ENDBRANCH   1  27
BRANCH  17  29
HETATM   29  C32 UNL     1      -0.785 -35.439   5.590  1.00  0.00     0.286 C
HETATM   30  O6  UNL     1      -1.138 -34.318   5.065  1.00  0.00    -0.263 OA
BRANCH  29  31
HETATM   31  O7  UNL     1       0.276 -35.328   6.465  1.00  0.00    -0.315 OA
BRANCH  31  32
HETATM   32  C33 UNL     1       0.657 -34.097   7.064  1.00  0.00     0.123 C
HETATM   33  C34 UNL     1       0.987 -34.369   8.507  1.00  0.00     0.040 C
HETATM   34  C35 UNL     1       1.886 -33.506   6.400  1.00  0.00     0.040 C
ENDBRANCH  31  32
ENDBRANCH  29  31
ENDBRANCH  17  29
BRANCH   9  35
HETATM   35  C16 UNL     1       1.316 -39.115   4.537  1.00  0.00    -0.005 C
HETATM   36  C17 UNL     1       1.439 -40.388   4.330  1.00  0.00    -0.024 C
BRANCH  36  37
HETATM   37  C18 UNL     1       2.545 -41.311   4.677  1.00  0.00     0.008 C
HETATM   38  C19 UNL     1       3.709 -40.909   3.819  1.00  0.00     0.014 C
BRANCH  37  39
HETATM   39  C20 UNL     1       2.820 -41.503   6.119  1.00  0.00    -0.008 C
HETATM   40  C21 UNL     1       1.555 -42.106   6.772  1.00  0.00     0.011 C
BRANCH  39  41
HETATM   41  C22 UNL     1       3.913 -42.461   6.481  1.00  0.00    -0.018 C
HETATM   42  C23 UNL     1       4.956 -41.705   7.341  1.00  0.00     0.010 C
HETATM   43  C24 UNL     1       3.482 -43.615   7.363  1.00  0.00     0.010 C
ENDBRANCH  39  41
ENDBRANCH  37  39
ENDBRANCH  36  37
ENDBRANCH   9  35
TORSDOF 14
ENDMDL