MODEL 4
REMARK VINA RESULT: -7.166297036      2.276      6.496
REMARK  14 active torsions:
REMARK  status: ('A' for Active; 'I' for Inactive)
REMARK    1  A    between atoms: C2_2  and  O2_4
REMARK    2  A    between atoms: O2_4  and  C3_5
REMARK    3  A    between atoms: C3_5  and  C4_6
REMARK    4  A    between atoms: C7_9  and  O3_10
REMARK    5  A    between atoms: O3_10  and  C8_11
REMARK    6  A    between atoms: C12_18  and  C13_19
REMARK    7  A    between atoms: C13_19  and  C15_21
REMARK    8  A    between atoms: C15_21  and  O7_22
REMARK    9  A    between atoms: C15_21  and  C16_24
REMARK   10  A    between atoms: C16_24  and  C17_25
REMARK   11  A    between atoms: C17_25  and  C18_26
REMARK   12  A    between atoms: C19_27  and  C21_29
REMARK   13  A    between atoms: C24_32  and  C26_34
REMARK   14  A    between atoms: C26_34  and  C27_36
ROOT
HETATM    1  C4  UNL     1      -3.201 -35.937   7.311  1.00  0.00    -0.033 C
HETATM    2  C5  UNL     1      -4.182 -35.065   7.045  1.00  0.00    -0.007 C
HETATM    3  C6  UNL     1      -4.512 -34.777   5.663  1.00  0.00     0.075 C
HETATM    4  C7  UNL     1      -5.338 -35.663   4.850  1.00  0.00     0.287 C
HETATM    5  O5  UNL     1      -4.507 -36.505   4.103  1.00  0.00    -0.288 OA
HETATM    6  C10 UNL     1      -3.153 -36.417   3.817  1.00  0.00     0.276 C
HETATM    7  O6  UNL     1      -2.828 -36.855   2.747  1.00  0.00    -0.264 OA
HETATM    8  C11 UNL     1      -2.299 -35.773   4.924  1.00  0.00     0.095 C
HETATM    9  C12 UNL     1      -2.597 -36.609   6.087  1.00  0.00    -0.045 C
HETATM   10  C24 UNL     1      -0.948 -35.408   4.429  1.00  0.00     0.043 C
HETATM   11  C25 UNL     1      -0.516 -35.994   3.095  1.00  0.00     0.025 C
HETATM   12  C30 UNL     1      -0.864 -33.915   3.980  1.00  0.00     0.019 C
HETATM   13  C31 UNL     1      -1.360 -32.906   4.904  1.00  0.00     0.002 C
HETATM   14  C32 UNL     1      -2.571 -33.352   5.671  1.00  0.00     0.011 C
HETATM   15  C33 UNL     1      -3.162 -34.501   4.943  1.00  0.00    -0.010 C
HETATM   16  C34 UNL     1      -3.601 -33.985   3.624  1.00  0.00     0.018 C
ENDROOT
BRANCH   9  17
HETATM   17  C13 UNL     1      -2.019 -37.882   6.541  1.00  0.00     0.041 C
HETATM   18  C14 UNL     1      -3.253 -38.817   6.827  1.00  0.00     0.017 C
BRANCH  17  19
HETATM   19  C15 UNL     1      -1.213 -38.762   5.692  1.00  0.00     0.126 C
BRANCH  19  20
HETATM   20  O7  UNL     1      -1.782 -39.860   5.102  1.00  0.00    -0.395 OA
ATOM     21  H7  UNL     1      -1.277 -40.656   4.989  1.00  0.00     0.210 HD
ENDBRANCH  19  20
BRANCH  19  22
HETATM   22  C16 UNL     1       0.112 -39.122   6.280  1.00  0.00     0.036 C
BRANCH  22  23
HETATM   23  C17 UNL     1       0.853 -40.297   5.786  1.00  0.00     0.030 C
BRANCH  23  24
HETATM   24  C18 UNL     1       1.437 -40.025   4.409  1.00  0.00    -0.024 C
HETATM   25  C19 UNL     1       2.590 -40.530   4.026  1.00  0.00    -0.084 C
HETATM   26  C20 UNL     1       3.385 -41.410   4.952  1.00  0.00     0.043 C
BRANCH  25  27
HETATM   27  C21 UNL     1       3.130 -40.244   2.676  1.00  0.00     0.005 C
HETATM   28  C22 UNL     1       4.608 -40.493   2.565  1.00  0.00     0.014 C
HETATM   29  C23 UNL     1       2.814 -38.780   2.381  1.00  0.00     0.014 C
ENDBRANCH  25  27
ENDBRANCH  23  24
ENDBRANCH  22  23
ENDBRANCH  19  22
ENDBRANCH  17  19
ENDBRANCH   9  17
BRANCH   1  30
HETATM   30  C3  UNL     1      -2.889 -36.187   8.721  1.00  0.00     0.217 C
BRANCH  30  31
HETATM   31  O2  UNL     1      -3.918 -36.139   9.656  1.00  0.00    -0.317 OA
BRANCH  31  32
HETATM   32  C2  UNL     1      -3.897 -35.843  10.979  1.00  0.00     0.255 C
HETATM   33  C1  UNL     1      -5.021 -36.358  11.824  1.00  0.00     0.126 C
HETATM   34  O1  UNL     1      -2.968 -35.168  11.449  1.00  0.00    -0.266 OA
ENDBRANCH  31  32
ENDBRANCH  30  31
ENDBRANCH   1  30
BRANCH  10  35
HETATM   35  C26 UNL     1       0.181 -35.469   5.409  1.00  0.00     0.161 C
HETATM   36  O8  UNL     1       1.017 -36.282   5.052  1.00  0.00    -0.292 OA
BRANCH  35  37
HETATM   37  C27 UNL     1       0.503 -34.822   6.643  1.00  0.00    -0.041 C
HETATM   38  C28 UNL     1       0.436 -35.569   7.931  1.00  0.00     0.047 C
HETATM   39  C29 UNL     1       1.719 -33.928   6.703  1.00  0.00     0.047 C
ENDBRANCH  35  37
ENDBRANCH  10  35
BRANCH   4  40
HETATM   40  O3  UNL     1      -6.268 -36.349   5.671  1.00  0.00    -0.289 OA
BRANCH  40  41
HETATM   41  C8  UNL     1      -7.225 -35.747   6.463  1.00  0.00     0.257 C
HETATM   42  C9  UNL     1      -7.733 -36.305   7.740  1.00  0.00     0.126 C
HETATM   43  O4  UNL     1      -7.701 -34.651   6.075  1.00  0.00    -0.266 OA
ENDBRANCH  40  41
ENDBRANCH   4  40
TORSDOF 14
ENDMDL