MODEL 5
REMARK VINA RESULT: -9.290962770      2.268      3.273
REMARK  14 active torsions:
REMARK  status: ('A' for Active; 'I' for Inactive)
REMARK    1  A    between atoms: C2_2  and  O2_4
REMARK    2  A    between atoms: O2_4  and  C3_5
REMARK    3  A    between atoms: C3_5  and  C4_6
REMARK    4  A    between atoms: C3_5  and  C29_38
REMARK    5  A    between atoms: C4_6  and  C5_7
REMARK    6  A    between atoms: C6_8  and  C7_9
REMARK    7  A    between atoms: C7_9  and  C8_10
REMARK    8  A    between atoms: C10_12  and  C11_13
REMARK    9  A    between atoms: C11_13  and  C12_14
REMARK   10  A    between atoms: C12_14  and  C13_15
REMARK   11  A    between atoms: C26_32  and  C27_33
REMARK   12  A    between atoms: C27_33  and  O7_34
REMARK   13  A    between atoms: C29_38  and  C30_39
REMARK   14  A    between atoms: C30_39  and  C31_40
ROOT
HETATM    1  C13 UNL     1      -1.861 -35.226   4.185  1.00  0.00     0.068 C
HETATM    2  C14 UNL     1      -3.116 -35.839   3.601  1.00  0.00     0.031 C
HETATM    3  C15 UNL     1      -2.158 -33.754   4.374  1.00  0.00     0.142 C
HETATM    4  O3  UNL     1      -3.179 -33.262   3.977  1.00  0.00    -0.297 OA
HETATM    5  C16 UNL     1      -1.171 -32.903   5.062  1.00  0.00     0.086 C
HETATM    6  C17 UNL     1      -0.216 -33.665   5.913  1.00  0.00     0.074 C
HETATM    7  C18 UNL     1      -0.751 -35.018   6.305  1.00  0.00     0.077 C
HETATM    8  C19 UNL     1      -1.513 -35.750   5.517  1.00  0.00     0.092 C
HETATM    9  O4  UNL     1      -1.978 -37.011   5.950  1.00  0.00    -0.336 OA
HETATM   10  C20 UNL     1      -1.963 -37.247   7.347  1.00  0.00     0.120 C
HETATM   11  C21 UNL     1      -2.836 -36.223   8.048  1.00  0.00     0.052 C
HETATM   12  C22 UNL     1      -0.519 -36.914   7.764  1.00  0.00     0.177 C
HETATM   13  O5  UNL     1      -0.416 -35.518   7.584  1.00  0.00    -0.344 OA
HETATM   14  C23 UNL     1      -0.197 -37.349   9.153  1.00  0.00     0.087 C
HETATM   15  C24 UNL     1       0.396 -36.188   9.923  1.00  0.00     0.021 C
HETATM   16  C25 UNL     1      -1.406 -37.884   9.807  1.00  0.00     0.172 C
HETATM   17  O6  UNL     1      -1.802 -37.452  10.868  1.00  0.00    -0.294 OA
HETATM   18  C26 UNL     1      -2.106 -38.992   9.066  1.00  0.00     0.172 A
HETATM   19  O8  UNL     1      -3.425 -38.781   8.693  1.00  0.00    -0.355 OA
HETATM   20  C28 UNL     1      -2.309 -38.663   7.689  1.00  0.00     0.205 A
ENDROOT
BRANCH   1  21
HETATM   21  C12 UNL     1      -0.728 -35.446   3.224  1.00  0.00     0.028 C
BRANCH  21  22
HETATM   22  C11 UNL     1      -1.162 -36.138   1.962  1.00  0.00     0.029 C
BRANCH  22  23
HETATM   23  C10 UNL     1      -0.033 -36.770   1.275  1.00  0.00    -0.024 C
HETATM   24  C8  UNL     1       0.150 -38.057   1.141  1.00  0.00    -0.084 C
HETATM   25  C9  UNL     1      -0.767 -39.089   1.642  1.00  0.00     0.043 C
BRANCH  24  26
HETATM   26  C7  UNL     1       1.383 -38.568   0.401  1.00  0.00     0.061 C
BRANCH  26  27
HETATM   27  C6  UNL     1       2.314 -39.130   1.394  1.00  0.00    -0.014 C
HETATM   28  C5  UNL     1       2.842 -40.373   1.282  1.00  0.00     0.050 C
BRANCH  28  29
HETATM   29  C4  UNL     1       3.736 -40.846   2.269  1.00  0.00    -0.124 C
BRANCH  29  30
HETATM   30  C3  UNL     1       4.511 -41.264   3.141  1.00  0.00     0.202 C
BRANCH  30  31
HETATM   31  O2  UNL     1       5.923 -41.271   2.644  1.00  0.00    -0.304 OA
BRANCH  31  32
HETATM   32  C2  UNL     1       6.615 -42.449   2.684  1.00  0.00     0.256 C
HETATM   33  C1  UNL     1       6.133 -43.660   1.925  1.00  0.00     0.126 C
HETATM   34  O1  UNL     1       7.664 -42.573   3.345  1.00  0.00    -0.266 OA
ENDBRANCH  31  32
ENDBRANCH  30  31
BRANCH  30  35
HETATM   35  C29 UNL     1       4.414 -41.735   4.502  1.00  0.00     0.049 C
BRANCH  35  36
HETATM   36  C30 UNL     1       3.069 -41.546   5.135  1.00  0.00     0.031 C
BRANCH  36  37
HETATM   37  C31 UNL     1       2.666 -40.109   5.083  1.00  0.00    -0.025 C
HETATM   38  C32 UNL     1       1.426 -39.750   4.904  1.00  0.00    -0.091 C
HETATM   39  C33 UNL     1       1.128 -38.278   4.867  1.00  0.00     0.042 C
HETATM   40  C34 UNL     1       0.329 -40.696   4.726  1.00  0.00     0.042 C
ENDBRANCH  36  37
ENDBRANCH  35  36
ENDBRANCH  30  35
ENDBRANCH  29  30
ENDBRANCH  28  29
ENDBRANCH  26  27
ENDBRANCH  24  26
ENDBRANCH  22  23
ENDBRANCH  21  22
ENDBRANCH   1  21
BRANCH  18  41
HETATM   41  C27 UNL     1      -1.781 -40.349   9.597  1.00  0.00     0.213 C
BRANCH  41  42
HETATM   42  O7  UNL     1      -1.935 -40.421  10.988  1.00  0.00    -0.397 OA
ATOM     43  H7  UNL     1      -1.318 -41.026  11.385  1.00  0.00     0.209 HD
ENDBRANCH  41  42
ENDBRANCH  18  41
TORSDOF 14
ENDMDL