MODEL 2
REMARK VINA RESULT: -8.973333439      2.468      5.055
REMARK  11 active torsions:
REMARK  status: ('A' for Active; 'I' for Inactive)
REMARK    1  A    between atoms: C3_3  and  C4_4
REMARK    2  A    between atoms: C6_6  and  C7_7
REMARK    3  A    between atoms: C8_11  and  C9_12
REMARK    4  A    between atoms: C9_12  and  C11_14
REMARK    5  A    between atoms: C11_14  and  C12_15
REMARK    6  A    between atoms: C13_16  and  C14_17
REMARK    7  A    between atoms: C15_18  and  C16_19
REMARK    8  A    between atoms: C15_18  and  C25_28
REMARK    9  A    between atoms: C17_20  and  C19_22
REMARK   10  A    between atoms: C19_22  and  C20_23
REMARK   11  A    between atoms: C20_23  and  C21_24
ROOT
HETATM    1  C12 UNL     1      -1.039 -42.277   7.052  1.00  0.00     0.033 C
HETATM    2  C13 UNL     1       0.366 -42.711   7.720  1.00  0.00     0.160 C
HETATM    3  O4  UNL     1       0.273 -41.721   8.810  1.00  0.00    -0.311 OA
HETATM    4  C28 UNL     1      -1.050 -41.838   9.273  1.00  0.00     0.263 C
HETATM    5  O5  UNL     1      -1.587 -41.374  10.289  1.00  0.00    -0.265 OA
HETATM    6  C29 UNL     1      -1.790 -42.687   8.266  1.00  0.00     0.088 C
HETATM    7  C30 UNL     1      -3.227 -42.734   8.339  1.00  0.00     0.021 C
ENDROOT
BRANCH   1   8
HETATM    8  C11 UNL     1      -0.922 -40.866   6.738  1.00  0.00     0.017 C
BRANCH   8   9
HETATM    9  C9  UNL     1      -1.472 -40.093   5.665  1.00  0.00     0.037 C
HETATM   10  C10 UNL     1      -0.816 -40.628   4.342  1.00  0.00     0.015 C
BRANCH   9  11
HETATM   11  C8  UNL     1      -1.409 -38.622   5.536  1.00  0.00     0.264 C
HETATM   12  O3  UNL     1      -1.079 -38.303   4.180  1.00  0.00    -0.345 OA
HETATM   13  C6  UNL     1      -0.123 -37.339   4.043  1.00  0.00     0.228 C
HETATM   14  C5  UNL     1      -0.691 -35.945   3.963  1.00  0.00     0.089 C
HETATM   15  C4  UNL     1      -0.478 -35.076   5.134  1.00  0.00     0.122 C
HETATM   16  C32 UNL     1       0.135 -35.796   6.327  1.00  0.00     0.197 C
HETATM   17  O9  UNL     1       0.491 -34.055   4.977  1.00  0.00    -0.280 OA
HETATM   18  C31 UNL     1      -0.758 -36.834   6.888  1.00  0.00     0.207 C
HETATM   19  O7  UNL     1       0.289 -34.647   7.187  1.00  0.00    -0.287 OA
HETATM   20  O6  UNL     1      -0.457 -38.085   6.383  1.00  0.00    -0.358 OA
HETATM   21  C33 UNL     1       0.778 -33.670   6.305  1.00  0.00     0.408 C
HETATM   22  O8  UNL     1       1.377 -32.618   6.643  1.00  0.00    -0.229 OA
BRANCH  13  23
HETATM   23  C7  UNL     1       0.558 -37.555   2.717  1.00  0.00     0.203 C
HETATM   24  O1  UNL     1      -0.104 -37.930   1.733  1.00  0.00    -0.646 OA
HETATM   25  O2  UNL     1       1.916 -37.342   2.579  1.00  0.00    -0.646 OA
ENDBRANCH  13  23
BRANCH  15  26
HETATM   26  C3  UNL     1      -1.724 -34.421   5.613  1.00  0.00     0.010 C
HETATM   27  C2  UNL     1      -2.437 -33.696   4.781  1.00  0.00    -0.032 C
HETATM   28  C1  UNL     1      -2.133 -33.443   3.356  1.00  0.00     0.036 C
ENDBRANCH  15  26
ENDBRANCH   9  11
ENDBRANCH   8   9
ENDBRANCH   1   8
BRANCH   2  29
HETATM   29  C14 UNL     1       1.481 -42.480   6.902  1.00  0.00     0.013 C
HETATM   30  C15 UNL     1       2.780 -42.649   7.065  1.00  0.00    -0.056 C
BRANCH  30  31
HETATM   31  C16 UNL     1       3.618 -42.255   5.888  1.00  0.00     0.009 C
HETATM   32  C17 UNL     1       3.613 -41.370   4.979  1.00  0.00    -0.083 C
HETATM   33  C18 UNL     1       2.706 -40.253   4.662  1.00  0.00     0.043 C
BRANCH  32  34
HETATM   34  C19 UNL     1       4.767 -41.451   3.921  1.00  0.00     0.037 C
BRANCH  34  35
HETATM   35  C20 UNL     1       4.460 -40.630   2.729  1.00  0.00     0.031 C
BRANCH  35  36
HETATM   36  C21 UNL     1       4.389 -41.559   1.558  1.00  0.00    -0.024 C
HETATM   37  C22 UNL     1       3.344 -41.621   0.746  1.00  0.00    -0.091 C
HETATM   38  C23 UNL     1       2.190 -40.714   1.023  1.00  0.00     0.042 C
HETATM   39  C24 UNL     1       3.297 -42.551  -0.411  1.00  0.00     0.042 C
ENDBRANCH  35  36
ENDBRANCH  34  35
ENDBRANCH  32  34
ENDBRANCH  30  31
BRANCH  30  40
HETATM   40  C25 UNL     1       3.416 -43.197   8.233  1.00  0.00     0.010 C
HETATM   41  C26 UNL     1       3.974 -42.285   9.243  1.00  0.00     0.015 C
HETATM   42  C27 UNL     1       4.420 -44.312   7.934  1.00  0.00     0.015 C
ENDBRANCH  30  40
ENDBRANCH   2  29
TORSDOF 11
ENDMDL