MODEL 4
REMARK VINA RESULT: -7.810346011      2.479      6.905
REMARK  15 active torsions:
REMARK  status: ('A' for Active; 'I' for Inactive)
REMARK    1  A    between atoms: C3_3  and  C4_4
REMARK    2  A    between atoms: C5_5  and  C6_6
REMARK    3  A    between atoms: C14_14  and  C15_15
REMARK    4  A    between atoms: C15_15  and  C17_17
REMARK    5  A    between atoms: C17_17  and  C18_18
REMARK    6  A    between atoms: C18_18  and  C19_19
REMARK    7  A    between atoms: C19_19  and  O2_21
REMARK    8  A    between atoms: C21_23  and  O3_24
REMARK    9  A    between atoms: O3_24  and  C22_25
REMARK   10  A    between atoms: C22_25  and  C23_27
REMARK   11  A    between atoms: C23_27  and  C25_29
REMARK   12  A    between atoms: C30_34  and  C32_36
REMARK   13  A    between atoms: C32_36  and  O5_37
REMARK   14  A    between atoms: O5_37  and  C33_38
REMARK   15  A    between atoms: C35_41  and  O7_42
ROOT
HETATM    1  C6  UNL     1      -1.940 -38.954   9.641  1.00  0.00     0.010 C
HETATM    2  C7  UNL     1      -0.532 -38.812  10.256  1.00  0.00     0.023 C
HETATM    3  C8  UNL     1      -2.537 -40.152  10.255  1.00  0.00    -0.004 C
HETATM    4  C9  UNL     1      -3.574 -40.005  11.311  1.00  0.00     0.011 C
HETATM    5  C10 UNL     1      -3.045 -41.199   9.286  1.00  0.00     0.006 C
HETATM    6  C11 UNL     1      -1.799 -41.455   8.473  1.00  0.00     0.013 C
HETATM    7  C12 UNL     1      -1.620 -40.334   7.487  1.00  0.00    -0.005 C
HETATM    8  C13 UNL     1      -2.789 -40.633   6.492  1.00  0.00     0.019 C
HETATM    9  C14 UNL     1      -0.419 -40.534   6.631  1.00  0.00     0.030 C
HETATM   10  C21 UNL     1      -0.480 -39.359   5.676  1.00  0.00     0.138 C
HETATM   11  C29 UNL     1      -0.062 -38.183   6.491  1.00  0.00     0.047 C
HETATM   12  C30 UNL     1      -1.188 -37.820   7.482  1.00  0.00     0.013 C
HETATM   13  C31 UNL     1      -2.089 -36.966   6.548  1.00  0.00     0.020 C
HETATM   14  C35 UNL     1      -1.860 -38.944   8.100  1.00  0.00     0.086 C
ENDROOT
BRANCH  10  15
HETATM   15  O3  UNL     1       0.269 -39.423   4.524  1.00  0.00    -0.315 OA
BRANCH  15  16
HETATM   16  C22 UNL     1      -0.023 -40.256   3.465  1.00  0.00     0.266 C
HETATM   17  O4  UNL     1      -0.962 -41.071   3.582  1.00  0.00    -0.265 OA
BRANCH  16  18
HETATM   18  C23 UNL     1       0.758 -40.207   2.180  1.00  0.00     0.104 C
HETATM   19  C24 UNL     1       0.217 -39.165   1.265  1.00  0.00     0.025 C
BRANCH  18  20
HETATM   20  C25 UNL     1       2.190 -40.221   2.445  1.00  0.00    -0.011 C
HETATM   21  C26 UNL     1       3.209 -40.701   1.822  1.00  0.00    -0.091 C
HETATM   22  C27 UNL     1       4.586 -40.500   2.449  1.00  0.00     0.042 C
HETATM   23  C28 UNL     1       3.218 -41.438   0.545  1.00  0.00     0.042 C
ENDBRANCH  18  20
ENDBRANCH  16  18
ENDBRANCH  15  16
ENDBRANCH  10  15
BRANCH   9  24
HETATM   24  C15 UNL     1       0.918 -40.835   7.060  1.00  0.00    -0.011 C
HETATM   25  C16 UNL     1       1.127 -41.501   8.403  1.00  0.00     0.010 C
BRANCH  24  26
HETATM   26  C17 UNL     1       1.747 -41.769   6.187  1.00  0.00     0.014 C
BRANCH  26  27
HETATM   27  C18 UNL     1       3.107 -41.248   5.865  1.00  0.00     0.111 C
BRANCH  27  28
HETATM   28  C19 UNL     1       4.161 -42.279   6.046  1.00  0.00     0.258 C
HETATM   29  O1  UNL     1       4.850 -42.756   5.123  1.00  0.00    -0.265 OA
BRANCH  28  30
HETATM   30  O2  UNL     1       4.381 -42.731   7.337  1.00  0.00    -0.326 OA
HETATM   31  C20 UNL     1       4.094 -44.056   7.745  1.00  0.00     0.213 C
ENDBRANCH  28  30
ENDBRANCH  27  28
ENDBRANCH  26  27
ENDBRANCH  24  26
ENDBRANCH   9  24
BRANCH  12  32
HETATM   32  C32 UNL     1      -0.464 -36.763   8.260  1.00  0.00     0.191 C
BRANCH  32  33
HETATM   33  O5  UNL     1      -0.342 -35.621   7.368  1.00  0.00    -0.321 OA
BRANCH  33  34
HETATM   34  C33 UNL     1       0.572 -34.631   7.580  1.00  0.00     0.254 C
HETATM   35  C34 UNL     1       1.157 -33.791   6.498  1.00  0.00     0.126 C
HETATM   36  O6  UNL     1       0.937 -34.421   8.780  1.00  0.00    -0.266 OA
ENDBRANCH  33  34
ENDBRANCH  32  33
ENDBRANCH  12  32
BRANCH  14  37
HETATM   37  O7  UNL     1      -3.269 -38.806   7.947  1.00  0.00    -0.387 OA
ATOM     38  H7  UNL     1      -3.274 -39.243   7.104  1.00  0.00     0.210 HD
ENDBRANCH  14  37
BRANCH   1  39
HETATM   39  C5  UNL     1      -2.733 -37.844  10.198  1.00  0.00    -0.014 C
HETATM   40  C4  UNL     1      -2.425 -36.837  10.953  1.00  0.00    -0.003 C
BRANCH  40  41
HETATM   41  C3  UNL     1      -3.461 -35.881  11.348  1.00  0.00    -0.005 C
HETATM   42  C2  UNL     1      -4.028 -35.858  12.519  1.00  0.00    -0.031 C
HETATM   43  C1  UNL     1      -3.665 -36.817  13.573  1.00  0.00     0.036 C
ENDBRANCH  40  41
ENDBRANCH   1  39
TORSDOF 15
ENDMDL