MODEL 1
REMARK VINA RESULT: -8.322833808      0.000      0.000
REMARK  16 active torsions:
REMARK  status: ('A' for Active; 'I' for Inactive)
REMARK    1  A    between atoms: C2_2  and  C3_3
REMARK    2  A    between atoms: C2_2  and  O4_12
REMARK    3  A    between atoms: C3_3  and  C4_4
REMARK    4  A    between atoms: C4_4  and  O2_6
REMARK    5  A    between atoms: O2_6  and  C5_7
REMARK    6  A    between atoms: C5_7  and  C6_9
REMARK    7  A    between atoms: O4_12  and  C9_13
REMARK    8  A    between atoms: C9_13  and  C10_14
REMARK    9  A    between atoms: C21_25  and  C22_26
REMARK   10  A    between atoms: C22_26  and  C24_28
REMARK   11  A    between atoms: C24_28  and  C25_29
REMARK   12  A    between atoms: C25_29  and  O6_31
REMARK   13  A    between atoms: C27_33  and  C28_34
REMARK   14  A    between atoms: C27_33  and  C29_37
REMARK   15  A    between atoms: C28_34  and  O7_35
REMARK   16  A    between atoms: C29_37  and  C30_38
ROOT
HETATM    1  C10 UNL     1      -1.116 -37.032   7.535  1.00  0.00    -0.018 C
HETATM    2  C11 UNL     1      -2.548 -36.747   7.837  1.00  0.00     0.018 C
HETATM    3  C12 UNL     1      -0.364 -37.432   8.837  1.00  0.00     0.012 C
HETATM    4  C13 UNL     1      -0.794 -38.776   9.138  1.00  0.00     0.006 C
HETATM    5  C14 UNL     1      -0.279 -39.834   8.122  1.00  0.00    -0.009 C
HETATM    6  C15 UNL     1      -0.940 -41.033   8.771  1.00  0.00     0.011 C
HETATM    7  C16 UNL     1      -0.735 -39.480   6.734  1.00  0.00    -0.026 C
HETATM    8  C17 UNL     1      -2.140 -39.994   6.745  1.00  0.00     0.017 C
HETATM    9  C18 UNL     1      -0.739 -37.996   6.533  1.00  0.00     0.005 C
HETATM   10  C19 UNL     1      -1.445 -37.689   5.243  1.00  0.00     0.007 C
HETATM   11  C20 UNL     1      -0.383 -37.993   4.214  1.00  0.00     0.006 C
HETATM   12  C21 UNL     1       0.272 -39.315   4.356  1.00  0.00     0.001 C
HETATM   13  C27 UNL     1       0.131 -40.123   5.593  1.00  0.00    -0.005 C
ENDROOT
BRANCH   1  14
HETATM   14  C9  UNL     1      -0.448 -35.678   7.249  1.00  0.00     0.184 C
BRANCH  14  15
HETATM   15  O4  UNL     1      -1.147 -34.827   6.454  1.00  0.00    -0.355 OA
BRANCH  15  16
HETATM   16  C2  UNL     1      -0.746 -33.805   5.618  1.00  0.00     0.046 C
HETATM   17  C1  UNL     1       0.338 -33.266   5.610  1.00  0.00     0.046 C
BRANCH  16  18
HETATM   18  C3  UNL     1      -1.831 -33.390   4.651  1.00  0.00     0.175 C
BRANCH  18  19
HETATM   19  C4  UNL     1      -1.540 -33.681   3.256  1.00  0.00     0.272 C
HETATM   20  O1  UNL     1      -1.798 -32.892   2.331  1.00  0.00    -0.264 OA
BRANCH  19  21
HETATM   21  O2  UNL     1      -0.941 -34.887   2.858  1.00  0.00    -0.244 OA
BRANCH  21  22
HETATM   22  C5  UNL     1      -1.107 -35.398   1.571  1.00  0.00     0.269 C
HETATM   23  O3  UNL     1      -0.265 -35.063   0.671  1.00  0.00    -0.264 OA
BRANCH  22  24
HETATM   24  C6  UNL     1      -2.208 -36.306   1.219  1.00  0.00     0.078 C
HETATM   25  C7  UNL     1      -1.724 -37.736   1.013  1.00  0.00     0.020 C
HETATM   26  C8  UNL     1      -3.234 -36.321   2.346  1.00  0.00     0.020 C
ENDBRANCH  22  24
ENDBRANCH  21  22
ENDBRANCH  19  21
ENDBRANCH  18  19
ENDBRANCH  16  18
ENDBRANCH  15  16
ENDBRANCH  14  15
ENDBRANCH   1  14
BRANCH  13  27
HETATM   27  C28 UNL     1      -0.710 -41.336   5.200  1.00  0.00     0.175 C
BRANCH  27  28
HETATM   28  O7  UNL     1      -1.123 -41.312   3.869  1.00  0.00    -0.400 OA
ATOM     29  H7  UNL     1      -0.994 -42.140   3.420  1.00  0.00     0.209 HD
ENDBRANCH  27  28
ENDBRANCH  13  27
BRANCH  13  30
HETATM   30  C29 UNL     1       1.390 -40.613   6.204  1.00  0.00     0.047 C
BRANCH  30  31
HETATM   31  C30 UNL     1       2.253 -41.724   6.013  1.00  0.00     0.152 C
HETATM   32  O8  UNL     1       3.625 -41.186   6.319  1.00  0.00    -0.340 OA
HETATM   33  C31 UNL     1       4.388 -42.336   6.309  1.00  0.00     0.222 C
HETATM   34  N1  UNL     1       3.718 -43.332   6.730  1.00  0.00    -0.374 N
HETATM   35  C32 UNL     1       2.372 -42.811   7.063  1.00  0.00     0.108 C
ATOM     36  H1  UNL     1       4.043 -44.294   6.822  1.00  0.00     0.161 HD
HETATM   37  C33 UNL     1       2.519 -42.292   8.460  1.00  0.00     0.035 C
ENDBRANCH  30  31
ENDBRANCH  13  30
BRANCH  12  38
HETATM   38  C22 UNL     1       1.584 -39.135   3.678  1.00  0.00    -0.004 C
HETATM   39  C23 UNL     1       1.871 -37.831   3.010  1.00  0.00     0.011 C
BRANCH  38  40
HETATM   40  C24 UNL     1       1.546 -40.119   2.464  1.00  0.00     0.115 C
BRANCH  40  41
HETATM   41  C25 UNL     1       2.943 -40.463   2.078  1.00  0.00     0.258 C
HETATM   42  O5  UNL     1       3.273 -40.461   0.868  1.00  0.00    -0.265 OA
BRANCH  41  43
HETATM   43  O6  UNL     1       3.903 -40.792   3.014  1.00  0.00    -0.326 OA
HETATM   44  C26 UNL     1       5.215 -41.167   2.765  1.00  0.00     0.213 C
ENDBRANCH  41  43
ENDBRANCH  40  41
ENDBRANCH  38  40
ENDBRANCH  12  38
TORSDOF 16
ENDMDL