MODEL 4
REMARK VINA RESULT: -8.539416383      2.139      3.462
REMARK  12 active torsions:
REMARK  status: ('A' for Active; 'I' for Inactive)
REMARK    1  A    between atoms: C3_3  and  C4_4
REMARK    2  A    between atoms: C4_4  and  O1_5
REMARK    3  A    between atoms: C4_4  and  C8_10
REMARK    4  A    between atoms: O1_5  and  C5_6
REMARK    5  A    between atoms: C5_6  and  C6_8
REMARK    6  A    between atoms: C8_10  and  C9_12
REMARK    7  A    between atoms: C9_12  and  C10_13
REMARK    8  A    between atoms: C10_13  and  C11_14
REMARK    9  A    between atoms: C10_13  and  O8_39
REMARK   10  A    between atoms: C11_14  and  C12_15
REMARK   11  A    between atoms: C13_16  and  C15_18
REMARK   12  A    between atoms: O8_39  and  C32_40
ROOT
HETATM    1  C12 UNL     1      -0.850 -36.664   3.597  1.00  0.00    -0.051 C
HETATM    2  C13 UNL     1      -1.484 -36.008   2.457  1.00  0.00     0.069 C
HETATM    3  C14 UNL     1      -0.745 -34.917   1.739  1.00  0.00     0.032 C
HETATM    4  C16 UNL     1      -2.763 -35.246   2.857  1.00  0.00     0.028 C
HETATM    5  C17 UNL     1      -3.592 -36.045   3.751  1.00  0.00     0.045 C
HETATM    6  C18 UNL     1      -2.888 -36.100   5.111  1.00  0.00     0.096 C
HETATM    7  O6  UNL     1      -3.735 -36.907   5.803  1.00  0.00    -0.364 OA
HETATM    8  C19 UNL     1      -4.284 -36.875   6.942  1.00  0.00     0.064 C
HETATM    9  C20 UNL     1      -4.992 -38.260   7.094  1.00  0.00     0.046 C
HETATM   10  C21 UNL     1      -3.481 -36.839   8.234  1.00  0.00     0.046 C
HETATM   11  C22 UNL     1      -5.452 -35.945   7.189  1.00  0.00     0.081 A
HETATM   12  C23 UNL     1      -6.566 -35.962   6.201  1.00  0.00     0.128 A
HETATM   13  C24 UNL     1      -7.968 -35.936   6.820  1.00  0.00     0.040 C
HETATM   14  O7  UNL     1      -6.237 -34.620   5.881  1.00  0.00    -0.376 OA
HETATM   15  C25 UNL     1      -5.209 -34.548   6.784  1.00  0.00     0.154 A
HETATM   16  C26 UNL     1      -3.861 -34.212   6.352  1.00  0.00     0.011 C
HETATM   17  C27 UNL     1      -2.845 -34.766   5.676  1.00  0.00    -0.050 C
HETATM   18  C28 UNL     1      -1.717 -33.817   5.631  1.00  0.00     0.046 C
HETATM   19  C29 UNL     1      -1.683 -36.880   4.865  1.00  0.00     0.012 C
HETATM   20  C30 UNL     1      -2.104 -38.342   4.851  1.00  0.00     0.023 C
HETATM   21  C31 UNL     1      -0.656 -36.798   6.008  1.00  0.00     0.023 C
ENDROOT
BRANCH   1  22
HETATM   22  C11 UNL     1       0.175 -37.710   3.454  1.00  0.00     0.011 C
BRANCH  22  23
HETATM   23  C10 UNL     1       1.636 -37.495   3.341  1.00  0.00     0.162 C
BRANCH  23  24
HETATM   24  C9  UNL     1       2.226 -38.531   4.321  1.00  0.00     0.118 C
BRANCH  24  25
HETATM   25  C8  UNL     1       2.007 -39.917   4.088  1.00  0.00     0.162 C
HETATM   26  O3  UNL     1       1.098 -40.529   3.572  1.00  0.00    -0.295 OA
BRANCH  25  27
HETATM   27  C4  UNL     1       3.121 -40.839   4.579  1.00  0.00     0.224 C
BRANCH  27  28
HETATM   28  C3  UNL     1       2.614 -41.758   5.627  1.00  0.00     0.009 C
HETATM   29  C2  UNL     1       3.322 -42.141   6.680  1.00  0.00    -0.032 C
HETATM   30  C1  UNL     1       4.718 -41.685   6.929  1.00  0.00     0.036 C
ENDBRANCH  27  28
BRANCH  27  31
HETATM   31  O1  UNL     1       3.701 -41.558   3.556  1.00  0.00    -0.304 OA
BRANCH  31  32
HETATM   32  C5  UNL     1       4.943 -41.298   2.980  1.00  0.00     0.259 C
HETATM   33  O2  UNL     1       5.003 -40.298   2.221  1.00  0.00    -0.265 OA
BRANCH  32  34
HETATM   34  C6  UNL     1       6.138 -42.141   3.232  1.00  0.00     0.106 C
HETATM   35  C7  UNL     1       6.274 -43.246   2.226  1.00  0.00     0.015 C
ENDBRANCH  32  34
ENDBRANCH  31  32
ENDBRANCH  27  31
ENDBRANCH  25  27
ENDBRANCH  24  25
ENDBRANCH  23  24
BRANCH  23  36
HETATM   36  O8  UNL     1       2.341 -37.591   2.186  1.00  0.00    -0.312 OA
BRANCH  36  37
HETATM   37  C32 UNL     1       1.782 -37.867   0.914  1.00  0.00     0.255 C
HETATM   38  C33 UNL     1       1.517 -39.225   0.434  1.00  0.00     0.126 C
HETATM   39  O9  UNL     1       1.518 -36.872   0.196  1.00  0.00    -0.266 OA
ENDBRANCH  36  37
ENDBRANCH  23  36
ENDBRANCH  22  23
ENDBRANCH   1  22
BRANCH   2  40
HETATM   40  C15 UNL     1      -1.990 -36.939   1.384  1.00  0.00     0.186 C
HETATM   41  O4  UNL     1      -2.642 -36.517   0.374  1.00  0.00    -0.647 OA
HETATM   42  O5  UNL     1      -1.803 -38.302   1.391  1.00  0.00    -0.647 OA
ENDBRANCH   2  40
TORSDOF 12
ENDMDL