MODEL 1
REMARK VINA RESULT: -7.421009705      0.000      0.000
REMARK  6 active torsions:
REMARK  status: ('A' for Active; 'I' for Inactive)
REMARK    1  A    between atoms: C2_2  and  C4_5
REMARK    2  A    between atoms: C4_5  and  N2_6
REMARK       I    between atoms: N2_6  and  C5_8
REMARK    3  A    between atoms: C5_8  and  C6_10
REMARK    4  A    between atoms: C6_10  and  O2_12
REMARK    5  A    between atoms: O2_12  and  C8_13
REMARK    6  A    between atoms: C8_13  and  C9_15
ROOT
HETATM    1  C1  UNL     1       8.469  30.128 -11.828  1.00  0.00     0.027 C
HETATM    2  C2  UNL     1       7.006  29.956 -11.433  1.00  0.00     0.106 C
HETATM    3  C3  UNL     1       6.336  31.205 -11.798  1.00  0.00     0.065 C
HETATM    4  N1  UNL     1       5.780  32.198 -12.083  1.00  0.00    -0.197 NA
ENDROOT
BRANCH   2   5
HETATM    5  C4  UNL     1       6.924  29.714  -9.943  1.00  0.00     0.141 C
BRANCH   5   6
HETATM    6  N2  UNL     1       7.250  28.367  -9.553  1.00  0.00    -0.358 N
HETATM    7  C5  UNL     1       8.249  28.016  -8.622  1.00  0.00     0.246 C
HETATM    8  O1  UNL     1       8.901  28.937  -8.095  1.00  0.00    -0.271 OA
ATOM      9  H2  UNL     1       6.719  27.609  -9.982  1.00  0.00     0.162 HD
BRANCH   7  10
HETATM   10  C6  UNL     1       8.504  26.631  -8.296  1.00  0.00     0.219 C
HETATM   11  C7  UNL     1       9.738  26.558  -7.383  1.00  0.00     0.050 C
BRANCH  10  12
HETATM   12  O2  UNL     1       7.481  25.950  -7.640  1.00  0.00    -0.306 OA
BRANCH  12  13
HETATM   13  C8  UNL     1       6.584  25.105  -8.261  1.00  0.00     0.263 C
HETATM   14  O3  UNL     1       5.653  25.677  -8.888  1.00  0.00    -0.265 OA
BRANCH  13  15
HETATM   15  C9  UNL     1       6.710  23.616  -8.195  1.00  0.00     0.085 C
HETATM   16  C10 UNL     1       5.386  22.934  -8.257  1.00  0.00     0.014 C
HETATM   17  C11 UNL     1       5.387  21.814  -9.271  1.00  0.00     0.001 C
HETATM   18  C12 UNL     1       6.524  20.881  -8.943  1.00  0.00     0.000 C
HETATM   19  C13 UNL     1       7.818  21.622  -9.082  1.00  0.00     0.001 C
HETATM   20  C14 UNL     1       7.617  23.101  -9.275  1.00  0.00     0.014 C
ENDBRANCH  13  15
ENDBRANCH  12  13
ENDBRANCH  10  12
ENDBRANCH   7  10
ENDBRANCH   5   6
ENDBRANCH   2   5
TORSDOF 6
ENDMDL