MODEL 4
REMARK VINA RESULT: -7.462561987      1.508      1.766
REMARK  6 active torsions:
REMARK  status: ('A' for Active; 'I' for Inactive)
REMARK    1  A    between atoms: C4_5  and  C5_6
REMARK    2  A    between atoms: C5_6  and  O2_7
REMARK    3  A    between atoms: O2_7  and  C6_8
REMARK    4  A    between atoms: C6_8  and  C7_10
REMARK    5  A    between atoms: C7_10  and  S1_11
REMARK    6  A    between atoms: S1_11  and  C8_12
ROOT
HETATM    1  C6  UNL     1       6.888  26.911  -9.600  1.00  0.00     0.268 C
HETATM    2  O3  UNL     1       7.784  26.406 -10.318  1.00  0.00    -0.264 OA
ENDROOT
BRANCH   1   3
HETATM    3  O2  UNL     1       6.627  28.232  -9.767  1.00  0.00    -0.319 OA
BRANCH   3   4
HETATM    4  C5  UNL     1       7.271  29.279 -10.326  1.00  0.00     0.204 C
BRANCH   4   5
HETATM    5  C4  UNL     1       6.581  30.131 -11.352  1.00  0.00     0.109 C
HETATM    6  C3  UNL     1       7.501  31.231 -11.841  1.00  0.00     0.036 C
HETATM    7  C2  UNL     1       6.539  32.281 -12.347  1.00  0.00     0.105 C
HETATM    8  C1  UNL     1       5.435  32.138 -11.324  1.00  0.00     0.218 C
HETATM    9  O1  UNL     1       4.745  33.099 -10.901  1.00  0.00    -0.274 OA
HETATM   10  N1  UNL     1       5.378  30.758 -10.986  1.00  0.00    -0.354 N
ATOM     11  H1  UNL     1       4.584  30.294 -10.545  1.00  0.00     0.162 HD
ENDBRANCH   4   5
ENDBRANCH   3   4
ENDBRANCH   1   3
BRANCH   1  12
HETATM   12  C7  UNL     1       6.163  26.046  -8.612  1.00  0.00     0.185 C
BRANCH  12  13
HETATM   13  S1  UNL     1       6.027  24.350  -9.231  1.00  0.00    -0.154 SA
BRANCH  13  14
HETATM   14  C8  UNL     1       7.077  23.289  -8.208  1.00  0.00     0.047 C
HETATM   15  C9  UNL     1       8.480  23.192  -8.755  1.00  0.00     0.015 C
HETATM   16  C10 UNL     1       8.516  22.279  -9.949  1.00  0.00     0.001 C
HETATM   17  C11 UNL     1       8.129  20.887  -9.460  1.00  0.00     0.000 C
HETATM   18  C12 UNL     1       6.691  20.950  -9.040  1.00  0.00     0.001 C
HETATM   19  C13 UNL     1       6.449  21.949  -7.953  1.00  0.00     0.015 C
ENDBRANCH  13  14
ENDBRANCH  12  13
ENDBRANCH   1  12
TORSDOF 6
ENDMDL