MODEL 2
REMARK VINA RESULT: -7.332295643      1.195      1.715
REMARK  6 active torsions:
REMARK  status: ('A' for Active; 'I' for Inactive)
REMARK    1  A    between atoms: C2_2  and  N1_3
REMARK    2  A    between atoms: N1_3  and  C3_4
REMARK    3  A    between atoms: N1_3  and  C9_10
REMARK    4  A    between atoms: N2_13  and  C12_14
REMARK    5  A    between atoms: C12_14  and  C13_15
REMARK    6  A    between atoms: C13_15  and  N3_17
ROOT
HETATM    1  C9  UNL     1       7.598  25.060  -9.128  1.00  0.00     0.362 C
HETATM    2  C10 UNL     1       6.245  25.670  -9.417  1.00  0.00     0.094 C
HETATM    3  C11 UNL     1       6.579  26.996 -10.139  1.00  0.00     0.279 C
HETATM    4  N2  UNL     1       7.678  27.591  -9.455  1.00  0.00     0.113 N
HETATM    5  C15 UNL     1       7.794  27.125  -8.088  1.00  0.00     0.442 C
HETATM    6  O1  UNL     1       8.060  25.786  -8.029  1.00  0.00    -0.327 OA
ENDROOT
BRANCH   1   7
HETATM    7  N1  UNL     1       7.563  23.640  -8.875  1.00  0.00     0.121 N
BRANCH   7   8
HETATM    8  C2  UNL     1       6.163  23.204  -8.877  1.00  0.00     0.272 C
HETATM    9  C1  UNL     1       5.704  22.533  -7.640  1.00  0.00     0.037 C
ENDBRANCH   7   8
BRANCH   7  10
HETATM   10  C3  UNL     1       8.310  22.910  -9.860  1.00  0.00     0.226 C
HETATM   11  C4  UNL     1       8.669  21.512  -9.372  1.00  0.00     0.036 C
HETATM   12  C5  UNL     1      10.102  21.136  -9.646  1.00  0.00     0.002 C
HETATM   13  C6  UNL     1      10.994  22.099  -8.908  1.00  0.00     0.000 C
HETATM   14  C7  UNL     1      10.703  23.493  -9.397  1.00  0.00     0.002 C
HETATM   15  C8  UNL     1       9.564  23.516 -10.391  1.00  0.00     0.036 C
ENDBRANCH   7  10
ENDBRANCH   1   7
BRANCH   4  16
HETATM   16  C12 UNL     1       7.659  29.015  -9.486  1.00  0.00     0.307 C
BRANCH  16  17
HETATM   17  C13 UNL     1       7.299  29.551 -10.842  1.00  0.00     0.207 C
HETATM   18  C14 UNL     1       8.565  29.851 -11.650  1.00  0.00     0.041 C
BRANCH  17  19
HETATM   19  N3  UNL     1       6.554  30.773 -10.787  1.00  0.00    -0.074 N
ATOM     20  H33 UNL     1       6.107  30.966 -11.683  1.00  0.00     0.274 HD
ATOM     21  H32 UNL     1       5.724  30.666 -10.204  1.00  0.00     0.274 HD
ATOM     22  H31 UNL     1       7.112  31.571 -10.481  1.00  0.00     0.274 HD
ENDBRANCH  17  19
ENDBRANCH  16  17
ENDBRANCH   4  16
TORSDOF 6
ENDMDL