MODEL 3
REMARK VINA RESULT: -6.886270408      3.829      7.236
REMARK  5 active torsions:
REMARK  status: ('A' for Active; 'I' for Inactive)
REMARK    1  A    between atoms: C2_3  and  C3_4
REMARK    2  A    between atoms: C3_4  and  C4_5
REMARK    3  A    between atoms: C4_5  and  N2_6
REMARK    4  A    between atoms: C7_9  and  N3_10
REMARK    5  A    between atoms: N3_10  and  C8_12
ROOT
HETATM    1  N1  UNL     1       8.835  21.008  -9.630  1.00  0.00    -0.197 NA
HETATM    2  C1  UNL     1       7.717  21.077  -9.285  1.00  0.00     0.059 C
HETATM    3  C2  UNL     1       6.328  21.173  -8.832  1.00  0.00     0.125 C
ENDROOT
BRANCH   3   4
HETATM    4  C3  UNL     1       5.728  22.492  -9.270  1.00  0.00     0.033 C
BRANCH   4   5
HETATM    5  C4  UNL     1       6.333  23.646  -8.470  1.00  0.00     0.117 C
BRANCH   5   6
HETATM    6  N2  UNL     1       6.909  24.576  -9.390  1.00  0.00    -0.412 N
HETATM    7  C5  UNL     1       6.066  25.695  -9.603  1.00  0.00     0.119 C
HETATM    8  C6  UNL     1       6.675  27.044  -9.601  1.00  0.00     0.044 C
HETATM    9  C7  UNL     1       7.919  27.253  -8.820  1.00  0.00     0.080 C
HETATM   10  C13 UNL     1       8.612  25.983  -8.364  1.00  0.00     0.044 C
HETATM   11  C14 UNL     1       8.302  24.821  -9.256  1.00  0.00     0.119 C
BRANCH   9  12
HETATM   12  N3  UNL     1       7.782  28.084  -7.665  1.00  0.00    -0.413 N
ATOM     13  H3  UNL     1       7.008  28.739  -7.554  1.00  0.00     0.154 HD
BRANCH  12  14
HETATM   14  C8  UNL     1       8.817  27.931  -6.662  1.00  0.00     0.078 C
HETATM   15  C9  UNL     1       8.186  28.050  -5.326  1.00  0.00     0.035 C
HETATM   16  C10 UNL     1       8.874  28.871  -4.302  1.00  0.00     0.076 C
HETATM   17  S1  UNL     1      10.652  29.010  -4.455  1.00  0.00    -0.169 SA
HETATM   18  C11 UNL     1      11.088  28.719  -6.217  1.00  0.00     0.076 C
HETATM   19  C12 UNL     1       9.808  29.068  -6.967  1.00  0.00     0.035 C
ENDBRANCH  12  14
ENDBRANCH   9  12
ENDBRANCH   5   6
ENDBRANCH   4   5
ENDBRANCH   3   4
TORSDOF 5
ENDMDL