MODEL 2
REMARK VINA RESULT: -6.788923022      2.026      4.618
REMARK  6 active torsions:
REMARK  status: ('A' for Active; 'I' for Inactive)
REMARK    1  A    between atoms: C2_2  and  C3_3
REMARK    2  A    between atoms: C3_3  and  C4_4
REMARK    3  A    between atoms: C4_4  and  C5_5
REMARK    4  A    between atoms: C5_5  and  O1_6
REMARK    5  A    between atoms: C5_5  and  C7_8
REMARK    6  A    between atoms: N1_11  and  N2_13
ROOT
HETATM    1  C3  UNL     1       7.131  24.983  -9.329  1.00  0.00     0.005 C
HETATM    2  N1  UNL     1       8.405  25.110  -9.446  1.00  0.00    -0.311 N
ATOM      3  H1  UNL     1       8.710  25.958  -9.923  1.00  0.00     0.186 HD
ENDROOT
BRANCH   2   4
HETATM    4  N2  UNL     1       9.415  24.286  -9.029  1.00  0.00    -0.324 N
HETATM    5  C10 UNL     1       9.825  23.081  -9.707  1.00  0.00     0.170 C
HETATM    6  C11 UNL     1      11.295  23.017  -9.861  1.00  0.00     0.254 C
HETATM    7  N3  UNL     1      12.041  23.720  -8.863  1.00  0.00    -0.064 N
HETATM    8  C12 UNL     1      11.361  23.812  -7.598  1.00  0.00     0.136 C
ATOM      9  H32 UNL     1      12.967  23.308  -8.746  1.00  0.00     0.278 HD
ATOM     10  H31 UNL     1      12.309  24.646  -9.197  1.00  0.00     0.278 HD
HETATM   11  C13 UNL     1      11.112  22.487  -6.958  1.00  0.00     0.048 C
HETATM   12  C14 UNL     1      12.304  24.600  -6.679  1.00  0.00     0.048 C
HETATM   13  C15 UNL     1      10.116  24.636  -7.797  1.00  0.00     0.180 C
ENDBRANCH   2   4
BRANCH   1  14
HETATM   14  C2  UNL     1       6.333  26.090  -9.912  1.00  0.00     0.049 C
HETATM   15  C1  UNL     1       7.248  27.104 -10.613  1.00  0.00     0.011 C
ENDBRANCH   1  14
BRANCH   1  16
HETATM   16  C4  UNL     1       6.578  23.792  -8.663  1.00  0.00     0.086 C
BRANCH  16  17
HETATM   17  C5  UNL     1       5.918  22.782  -9.525  1.00  0.00     0.129 C
BRANCH  17  18
HETATM   18  O1  UNL     1       6.772  21.773  -9.893  1.00  0.00    -0.390 OA
HETATM   19  C6  UNL     1       7.001  20.798  -8.958  1.00  0.00     0.202 C
ENDBRANCH  17  18
BRANCH  17  20
HETATM   20  C7  UNL     1       4.530  22.362  -9.156  1.00  0.00     0.007 C
HETATM   21  C8  UNL     1       3.739  23.491  -8.524  1.00  0.00     0.012 C
HETATM   22  C9  UNL     1       3.746  22.007 -10.438  1.00  0.00     0.012 C
ENDBRANCH  17  20
ENDBRANCH  16  17
ENDBRANCH   1  16
TORSDOF 6
ENDMDL