MODEL 5
REMARK VINA RESULT: -7.073577442      3.742      5.914
REMARK  5 active torsions:
REMARK  status: ('A' for Active; 'I' for Inactive)
REMARK    1  A    between atoms: C3_4  and  O2_5
REMARK    2  A    between atoms: C3_4  and  C13_15
REMARK    3  A    between atoms: O2_5  and  C4_6
REMARK    4  A    between atoms: C4_6  and  C5_7
REMARK    5  A    between atoms: C5_7  and  C6_8
ROOT
HETATM    1  O2  UNL     1       5.903  21.330  -9.591  1.00  0.00    -0.366 OA
ENDROOT
BRANCH   1   2
HETATM    2  C3  UNL     1       5.253  22.366  -9.001  1.00  0.00     0.178 C
HETATM    3  C2  UNL     1       5.795  23.705  -9.565  1.00  0.00     0.163 C
HETATM    4  C1  UNL     1       5.360  24.635  -8.495  1.00  0.00     0.262 C
HETATM    5  O1  UNL     1       5.254  25.876  -8.598  1.00  0.00    -0.265 OA
HETATM    6  O5  UNL     1       5.084  23.910  -7.346  1.00  0.00    -0.318 OA
HETATM    7  C14 UNL     1       5.454  22.551  -7.539  1.00  0.00     0.229 C
BRANCH   2   8
HETATM    8  C13 UNL     1       3.796  22.376  -9.308  1.00  0.00     0.212 C
HETATM    9  O3  UNL     1       3.429  22.660 -10.503  1.00  0.00    -0.646 OA
HETATM   10  O4  UNL     1       2.868  22.089  -8.355  1.00  0.00    -0.646 OA
ENDBRANCH   2   8
ENDBRANCH   1   2
BRANCH   1  11
HETATM   11  C4  UNL     1       7.195  21.127  -9.155  1.00  0.00     0.170 C
BRANCH  11  12
HETATM   12  C5  UNL     1       8.192  21.549 -10.247  1.00  0.00     0.031 C
BRANCH  12  13
HETATM   13  C6  UNL     1       9.466  22.127  -9.606  1.00  0.00    -0.013 C
HETATM   14  C7  UNL     1       9.486  23.580  -9.908  1.00  0.00     0.005 C
HETATM   15  C8  UNL     1      10.353  24.425  -9.021  1.00  0.00     0.000 C
HETATM   16  C9  UNL     1      11.724  23.845  -8.801  1.00  0.00     0.000 C
HETATM   17  C10 UNL     1      11.690  22.541  -8.047  1.00  0.00     0.000 C
HETATM   18  C11 UNL     1      10.434  22.332  -7.279  1.00  0.00     0.000 C
HETATM   19  C12 UNL     1       9.343  21.816  -8.140  1.00  0.00     0.005 C
ENDBRANCH  12  13
ENDBRANCH  11  12
ENDBRANCH   1  11
TORSDOF 5
ENDMDL