MODEL 2
REMARK VINA RESULT: -7.578295786      2.312      6.885
REMARK  6 active torsions:
REMARK  status: ('A' for Active; 'I' for Inactive)
REMARK    1  A    between atoms: C2_2  and  C3_3
REMARK    2  A    between atoms: C3_3  and  C4_4
REMARK    3  A    between atoms: C4_4  and  C5_5
REMARK    4  A    between atoms: C5_5  and  O1_6
REMARK    5  A    between atoms: O1_6  and  C6_7
REMARK       I    between atoms: C6_7  and  N1_9
REMARK    6  A    between atoms: N1_9  and  C7_10
ROOT
HETATM    1  C7  UNL     1       8.455  26.653  -8.751  1.00  0.00     0.169 C
HETATM    2  C8  UNL     1       8.041  26.365 -10.167  1.00  0.00     0.045 C
HETATM    3  C9  UNL     1       7.118  27.380 -10.774  1.00  0.00     0.071 C
HETATM    4  C10 UNL     1       7.484  28.791 -10.401  1.00  0.00     0.164 C
HETATM    5  C11 UNL     1       7.632  28.943  -8.907  1.00  0.00     0.071 C
HETATM    6  C12 UNL     1       8.804  28.103  -8.487  1.00  0.00     0.045 C
HETATM    7  O3  UNL     1       8.673  29.100 -11.020  1.00  0.00    -0.353 OA
HETATM    8  C13 UNL     1       8.438  30.165 -11.887  1.00  0.00     0.197 C
HETATM    9  C14 UNL     1       7.183  30.797 -11.305  1.00  0.00     0.197 C
HETATM   10  O4  UNL     1       6.517  29.652 -10.853  1.00  0.00    -0.353 OA
ENDROOT
BRANCH   1  11
HETATM   11  N1  UNL     1       9.456  25.852  -8.285  1.00  0.00    -0.385 NA
HETATM   12  C6  UNL     1      10.460  25.048  -7.816  1.00  0.00     0.434 C
HETATM   13  O2  UNL     1      11.430  25.368  -7.045  1.00  0.00    -0.221 OA
BRANCH  12  14
HETATM   14  O1  UNL     1      10.409  23.688  -8.247  1.00  0.00    -0.293 OA
BRANCH  14  15
HETATM   15  C5  UNL     1      10.676  23.367  -9.581  1.00  0.00     0.182 C
BRANCH  15  16
HETATM   16  C4  UNL     1       9.490  22.865 -10.312  1.00  0.00     0.031 C
BRANCH  16  17
HETATM   17  C3  UNL     1       8.862  21.691  -9.654  1.00  0.00     0.028 C
BRANCH  17  18
HETATM   18  C2  UNL     1       7.400  21.699  -9.668  1.00  0.00    -0.037 C
HETATM   19  C1  UNL     1       6.651  20.939  -8.918  1.00  0.00     0.007 C
ENDBRANCH  17  18
ENDBRANCH  16  17
ENDBRANCH  15  16
ENDBRANCH  14  15
ENDBRANCH  12  14
ENDBRANCH   1  11
TORSDOF 6
ENDMDL