MODEL 5
REMARK VINA RESULT: -5.668877296      4.559      6.739
REMARK  6 active torsions:
REMARK  status: ('A' for Active; 'I' for Inactive)
REMARK    1  A    between atoms: C2_2  and  C3_4
REMARK    2  A    between atoms: C3_4  and  C4_5
REMARK    3  A    between atoms: C4_5  and  C5_6
REMARK    4  A    between atoms: C5_6  and  O3_8
REMARK    5  A    between atoms: O3_8  and  C6_9
REMARK    6  A    between atoms: C6_9  and  C7_10
ROOT
HETATM    1  C4  UNL     1      13.921  27.926  -5.180  1.00  0.00     0.061 C
HETATM    2  C8  UNL     1      14.006  26.770  -4.272  1.00  0.00     0.021 C
HETATM    3  C9  UNL     1      14.160  25.424  -4.918  1.00  0.00     0.001 C
HETATM    4  C10 UNL     1      13.384  25.191  -6.151  1.00  0.00     0.001 C
HETATM    5  C11 UNL     1      12.566  26.361  -6.616  1.00  0.00     0.010 C
HETATM    6  C12 UNL     1      13.483  27.562  -6.591  1.00  0.00    -0.030 C
HETATM    7  C13 UNL     1      12.720  28.717  -7.211  1.00  0.00     0.016 C
HETATM    8  C14 UNL     1      14.667  27.232  -7.474  1.00  0.00     0.016 C
ENDROOT
BRANCH   1   9
HETATM    9  C3  UNL     1      15.145  28.767  -5.280  1.00  0.00     0.098 C
BRANCH   9  10
HETATM   10  C2  UNL     1      16.287  28.395  -4.451  1.00  0.00     0.124 C
HETATM   11  C1  UNL     1      17.309  27.429  -4.933  1.00  0.00     0.091 C
HETATM   12  O1  UNL     1      16.427  28.866  -3.344  1.00  0.00    -0.298 OA
ENDBRANCH   9  10
ENDBRANCH   1   9
BRANCH   1  13
HETATM   13  C5  UNL     1      12.813  28.831  -4.695  1.00  0.00     0.269 C
HETATM   14  O2  UNL     1      12.836  30.069  -4.792  1.00  0.00    -0.264 OA
BRANCH  13  15
HETATM   15  O3  UNL     1      11.708  28.251  -4.112  1.00  0.00    -0.312 OA
BRANCH  15  16
HETATM   16  C6  UNL     1      10.472  28.888  -4.001  1.00  0.00     0.278 C
BRANCH  16  17
HETATM   17  C7  UNL     1       9.495  28.551  -5.054  1.00  0.00     0.255 C
HETATM   18  N1  UNL     1       8.506  27.585  -4.716  1.00  0.00    -0.060 NA
HETATM   19  O4  UNL     1       9.505  29.065  -6.192  1.00  0.00    -0.274 OA
ENDBRANCH  16  17
ENDBRANCH  15  16
ENDBRANCH  13  15
ENDBRANCH   1  13
TORSDOF 6
ENDMDL