MODEL 2
REMARK VINA RESULT: -7.869474156      2.136      3.557
REMARK  7 active torsions:
REMARK  status: ('A' for Active; 'I' for Inactive)
REMARK    1  A    between atoms: C2_2  and  C4_4
REMARK    2  A    between atoms: C4_4  and  C5_6
REMARK    3  A    between atoms: C5_6  and  O2_7
REMARK    4  A    between atoms: C5_6  and  C6_9
REMARK    5  A    between atoms: C7_10  and  C8_11
REMARK    6  A    between atoms: C9_12  and  C10_13
REMARK    7  A    between atoms: C11_14  and  C12_15
ROOT
HETATM    1  C6  UNL     1       7.628  25.238  -8.337  1.00  0.00     0.012 C
HETATM    2  C7  UNL     1       8.319  24.137  -8.469  1.00  0.00    -0.001 C
ENDROOT
BRANCH   2   3
HETATM    3  C8  UNL     1       8.235  23.375  -9.710  1.00  0.00    -0.000 C
HETATM    4  C9  UNL     1       7.572  22.242  -9.797  1.00  0.00    -0.000 C
BRANCH   4   5
HETATM    5  C10 UNL     1       6.860  21.616  -8.706  1.00  0.00    -0.001 C
HETATM    6  C11 UNL     1       5.559  21.778  -8.558  1.00  0.00     0.006 C
BRANCH   6   7
HETATM    7  C12 UNL     1       4.768  22.613  -9.513  1.00  0.00     0.168 C
HETATM    8  O3  UNL     1       3.845  23.447  -8.844  1.00  0.00    -0.311 OA
HETATM    9  C13 UNL     1       3.032  22.317  -8.695  1.00  0.00     0.266 C
HETATM   10  O4  UNL     1       2.221  21.856  -7.881  1.00  0.00    -0.265 OA
HETATM   11  C14 UNL     1       3.569  21.847 -10.013  1.00  0.00     0.114 C
HETATM   12  C15 UNL     1       2.841  22.475 -11.170  1.00  0.00     0.023 C
ENDBRANCH   6   7
ENDBRANCH   4   5
ENDBRANCH   2   3
BRANCH   1  13
HETATM   13  C5  UNL     1       6.761  25.722  -9.428  1.00  0.00     0.210 C
BRANCH  13  14
HETATM   14  C4  UNL     1       7.365  26.957 -10.052  1.00  0.00     0.162 C
HETATM   15  O1  UNL     1       8.105  26.738 -10.996  1.00  0.00    -0.294 OA
BRANCH  14  16
HETATM   16  C2  UNL     1       7.093  28.324  -9.570  1.00  0.00     0.050 C
HETATM   17  C1  UNL     1       6.930  29.243 -10.763  1.00  0.00     0.017 C
HETATM   18  C3  UNL     1       8.035  28.831  -8.542  1.00  0.00     0.017 C
ENDBRANCH  14  16
ENDBRANCH  13  14
BRANCH  13  19
HETATM   19  O2  UNL     1       5.516  26.003  -8.881  1.00  0.00    -0.384 OA
ATOM     20  H2  UNL     1       5.318  25.407  -8.169  1.00  0.00     0.211 HD
ENDBRANCH  13  19
ENDBRANCH   1  13
TORSDOF 7
ENDMDL