MODEL 2
REMARK VINA RESULT: -7.138765510      0.250      1.723
REMARK  7 active torsions:
REMARK  status: ('A' for Active; 'I' for Inactive)
REMARK    1  A    between atoms: C1_2  and  C2_3
REMARK    2  A    between atoms: C1_2  and  O3_7
REMARK    3  A    between atoms: C2_3  and  C3_4
REMARK    4  A    between atoms: C3_4  and  O2_5
REMARK    5  A    between atoms: O3_7  and  C4_8
REMARK    6  A    between atoms: C4_8  and  C5_9
REMARK    7  A    between atoms: C5_9  and  C6_11
ROOT
HETATM    1  C6  UNL     1       8.756  24.501  -9.065  1.00  0.00     0.024 C
HETATM    2  C7  UNL     1       7.981  23.379  -8.449  1.00  0.00     0.022 C
HETATM    3  C8  UNL     1       8.856  22.134  -8.397  1.00  0.00    -0.013 C
HETATM    4  C9  UNL     1       9.178  21.793  -9.846  1.00  0.00     0.009 C
HETATM    5  C10 UNL     1       9.970  22.912 -10.470  1.00  0.00    -0.013 C
HETATM    6  C11 UNL     1      11.246  23.144  -9.678  1.00  0.00     0.009 C
HETATM    7  C12 UNL     1      10.855  23.526  -8.284  1.00  0.00    -0.013 C
HETATM    8  C13 UNL     1      10.132  22.356  -7.656  1.00  0.00     0.009 C
HETATM    9  C14 UNL     1       9.986  24.738  -8.219  1.00  0.00     0.022 C
HETATM   10  C15 UNL     1       9.206  24.227 -10.463  1.00  0.00     0.022 C
ENDROOT
BRANCH   1  11
HETATM   11  C5  UNL     1       7.879  25.713  -9.087  1.00  0.00     0.159 C
HETATM   12  O4  UNL     1       7.010  25.897  -8.252  1.00  0.00    -0.295 OA
BRANCH  11  13
HETATM   13  C4  UNL     1       8.087  26.700 -10.156  1.00  0.00     0.257 C
BRANCH  13  14
HETATM   14  O3  UNL     1       6.987  27.553 -10.345  1.00  0.00    -0.314 OA
BRANCH  14  15
HETATM   15  C1  UNL     1       7.081  28.888 -10.080  1.00  0.00     0.261 C
HETATM   16  O1  UNL     1       7.604  29.255  -8.994  1.00  0.00    -0.265 OA
BRANCH  15  17
HETATM   17  C2  UNL     1       6.577  29.932 -11.050  1.00  0.00     0.137 C
BRANCH  17  18
HETATM   18  C3  UNL     1       7.770  30.670 -11.573  1.00  0.00     0.173 C
BRANCH  18  19
HETATM   19  O2  UNL     1       8.843  29.780 -11.600  1.00  0.00    -0.400 OA
ATOM     20  H2  UNL     1       9.619  30.252 -11.324  1.00  0.00     0.209 HD
ENDBRANCH  18  19
ENDBRANCH  17  18
ENDBRANCH  15  17
ENDBRANCH  14  15
ENDBRANCH  13  14
ENDBRANCH  11  13
ENDBRANCH   1  11
TORSDOF 7
ENDMDL