MODEL 4
REMARK VINA RESULT: -6.962447003      1.313      1.837
REMARK  6 active torsions:
REMARK  status: ('A' for Active; 'I' for Inactive)
REMARK    1  A    between atoms: C2_3  and  N3_7
REMARK    2  A    between atoms: N3_7  and  C3_9
REMARK    3  A    between atoms: C4_10  and  N4_11
REMARK    4  A    between atoms: C9_21  and  C10_22
REMARK    5  A    between atoms: C11_28  and  N9_29
REMARK    6  A    between atoms: N10_32  and  N11_33
ROOT
HETATM    1  N1  UNL     1      17.143 -29.258  20.062  1.00  0.00    -0.188 NA
HETATM    2  C1  UNL     1      17.461 -28.629  20.985  1.00  0.00     0.136 C
HETATM    3  C2  UNL     1      17.836 -27.841  22.125  1.00  0.00     0.182 C
HETATM    4  N2  UNL     1      16.933 -27.052  22.606  1.00  0.00    -0.377 N
ATOM      5  H21 UNL     1      17.200 -26.492  23.417  1.00  0.00     0.158 HD
ATOM      6  H22 UNL     1      15.998 -26.988  22.203  1.00  0.00     0.158 HD
ENDROOT
BRANCH   3   7
HETATM    7  N3  UNL     1      19.140 -27.930  22.688  1.00  0.00    -0.326 N
ATOM      8  H3  UNL     1      19.906 -27.392  22.282  1.00  0.00     0.168 HD
BRANCH   7   9
HETATM    9  C3  UNL     1      19.378 -28.753  23.797  1.00  0.00     0.149 A
HETATM   10  C4  UNL     1      20.001 -29.975  23.640  1.00  0.00     0.138 A
HETATM   11  N6  UNL     1      20.195 -30.708  24.748  1.00  0.00    -0.323 N
HETATM   12  C9  UNL     1      19.807 -30.291  25.976  1.00  0.00     0.164 A
ATOM     13  H6  UNL     1      20.654 -31.615  24.661  1.00  0.00     0.169 HD
HETATM   14  N10 UNL     1      19.201 -29.108  26.147  1.00  0.00    -0.206 N
HETATM   15  C12 UNL     1      18.981 -28.332  25.069  1.00  0.00     0.298 A
HETATM   16  O2  UNL     1      18.414 -27.232  25.246  1.00  0.00    -0.263 OA
BRANCH  10  17
HETATM   17  N4  UNL     1      20.411 -30.412  22.339  1.00  0.00    -0.362 N
HETATM   18  C5  UNL     1      21.633 -29.893  21.752  1.00  0.00     0.152 C
HETATM   19  C6  UNL     1      22.387 -30.918  20.967  1.00  0.00     0.252 C
HETATM   20  N5  UNL     1      21.890 -32.261  21.131  1.00  0.00    -0.072 N
HETATM   21  C7  UNL     1      20.481 -32.378  20.860  1.00  0.00     0.252 C
ATOM     22  H52 UNL     1      22.425 -32.918  20.563  1.00  0.00     0.277 HD
ATOM     23  H51 UNL     1      22.112 -32.620  22.058  1.00  0.00     0.277 HD
HETATM   24  C8  UNL     1      19.644 -31.366  21.569  1.00  0.00     0.152 C
ENDBRANCH  10  17
BRANCH  12  25
HETATM   25  C10 UNL     1      20.037 -31.115  27.148  1.00  0.00     0.147 A
HETATM   26  N7  UNL     1      21.115 -31.021  27.941  1.00  0.00    -0.234 N
HETATM   27  O1  UNL     1      21.007 -31.893  28.889  1.00  0.00    -0.155 OA
ATOM     28  H7  UNL     1      21.891 -30.371  27.817  1.00  0.00     0.197 HD
HETATM   29  N8  UNL     1      19.904 -32.565  28.764  1.00  0.00    -0.224 N
HETATM   30  C11 UNL     1      19.249 -32.115  27.680  1.00  0.00     0.154 A
ATOM     31  H8  UNL     1      19.587 -33.309  29.385  1.00  0.00     0.198 HD
BRANCH  30  32
HETATM   32  N9  UNL     1      18.130 -32.473  27.168  1.00  0.00    -0.382 N
ATOM     33  H92 UNL     1      17.185 -32.460  27.552  1.00  0.00     0.157 HD
ATOM     34  H91 UNL     1      18.045 -32.849  26.224  1.00  0.00     0.157 HD
ENDBRANCH  30  32
ENDBRANCH  12  25
BRANCH  14  35
HETATM   35  N11 UNL     1      18.788 -28.658  27.421  1.00  0.00    -0.334 N
ATOM     36 2H11 UNL     1      19.489 -28.486  28.142  1.00  0.00     0.177 HD
ATOM     37 1H11 UNL     1      17.806 -28.497  27.644  1.00  0.00     0.177 HD
ENDBRANCH  14  35
ENDBRANCH   7   9
ENDBRANCH   3   7
TORSDOF 6
ENDMDL