MODEL 1
REMARK VINA RESULT: -7.324691192      0.000      0.000
REMARK  9 active torsions:
REMARK  status: ('A' for Active; 'I' for Inactive)
REMARK    1  A    between atoms: C3_5  and  N2_6
REMARK    2  A    between atoms: C4_11  and  N4_12
REMARK    3  A    between atoms: N4_12  and  N5_14
REMARK    4  A    between atoms: N5_14  and  N6_16
REMARK    5  A    between atoms: N6_16  and  C5_18
REMARK    6  A    between atoms: C6_23  and  C7_24
REMARK    7  A    between atoms: C10_31  and  C11_32
REMARK    8  A    between atoms: C11_32  and  O1_33
REMARK    9  A    between atoms: C11_32  and  O2_35
ROOT
HETATM    1  C5  UNL     1      18.042 -29.787  27.599  1.00  0.00     0.713 A
HETATM    2  N7  UNL     1      16.698 -29.760  27.618  1.00  0.00    -0.130 N
ATOM      3  H7  UNL     1      16.172 -30.631  27.539  1.00  0.00     0.205 HD
HETATM    4  N8  UNL     1      16.062 -28.626  27.738  1.00  0.00    -0.281 N
ATOM      5  H8  UNL     1      15.042 -28.648  27.747  1.00  0.00     0.188 HD
HETATM    6  C6  UNL     1      16.678 -27.412  27.852  1.00  0.00     0.120 A
HETATM    7  C10 UNL     1      18.031 -27.412  27.838  1.00  0.00     0.112 A
HETATM    8  N11 UNL     1      18.673 -28.614  27.709  1.00  0.00    -0.185 N
ATOM      9  H11 UNL     1      19.693 -28.615  27.698  1.00  0.00     0.184 HD
ENDROOT
BRANCH   1  10
HETATM   10  N6  UNL     1      18.769 -31.002  27.468  1.00  0.00    -0.116 N
ATOM     11  H6  UNL     1      18.288 -31.901  27.470  1.00  0.00     0.207 HD
BRANCH  10  12
HETATM   12  N5  UNL     1      20.049 -30.939  27.346  1.00  0.00    -0.214 N
ATOM     13  H5  UNL     1      20.454 -30.573  26.484  1.00  0.00     0.209 HD
BRANCH  12  14
HETATM   14  N4  UNL     1      20.892 -31.365  28.377  1.00  0.00    -0.116 N
ATOM     15  H4  UNL     1      20.578 -32.033  29.080  1.00  0.00     0.207 HD
BRANCH  14  16
HETATM   16  C4  UNL     1      22.083 -30.873  28.398  1.00  0.00     0.713 A
HETATM   17  N3  UNL     1      22.956 -31.380  29.269  1.00  0.00    -0.021 N
HETATM   18  C3  UNL     1      24.203 -30.904  29.329  1.00  0.00     0.691 A
ATOM     19  H3  UNL     1      22.671 -32.136  29.892  1.00  0.00     0.203 HD
HETATM   20  N1  UNL     1      24.575 -29.901  28.500  1.00  0.00    -0.180 N
HETATM   21  C2  UNL     1      23.722 -29.368  27.613  1.00  0.00     0.109 A
ATOM     22  H1  UNL     1      25.528 -29.542  28.551  1.00  0.00     0.185 HD
HETATM   23  C1  UNL     1      24.121 -28.270  26.701  1.00  0.00     0.090 C
HETATM   24  N12 UNL     1      22.474 -29.863  27.569  1.00  0.00    -0.178 N
ATOM     25  H12 UNL     1      21.805 -29.476  26.903  1.00  0.00     0.185 HD
BRANCH  18  26
HETATM   26  N2  UNL     1      25.023 -31.409  30.174  1.00  0.00    -0.234 N
ATOM     27  H22 UNL     1      25.367 -30.828  30.940  1.00  0.00     0.174 HD
ATOM     28  H21 UNL     1      25.337 -32.376  30.096  1.00  0.00     0.174 HD
ENDBRANCH  18  26
ENDBRANCH  14  16
ENDBRANCH  12  14
ENDBRANCH  10  12
ENDBRANCH   1  10
BRANCH   7  29
HETATM   29  C11 UNL     1      18.824 -26.196  27.994  1.00  0.00     0.308 C
BRANCH  29  30
HETATM   30  O1  UNL     1      20.178 -26.417  28.180  1.00  0.00    -0.366 OA
ATOM     31  H1  UNL     1      20.669 -26.544  27.377  1.00  0.00     0.213 HD
ENDBRANCH  29  30
BRANCH  29  32
HETATM   32  O2  UNL     1      18.740 -25.467  26.788  1.00  0.00    -0.366 OA
ATOM     33  H2  UNL     1      19.606 -25.450  26.398  1.00  0.00     0.213 HD
ENDBRANCH  29  32
ENDBRANCH   7  29
BRANCH   6  34
HETATM   34  C7  UNL     1      15.835 -26.218  27.964  1.00  0.00     0.128 C
HETATM   35  N9  UNL     1      15.247 -25.718  28.967  1.00  0.00    -0.373 N
HETATM   36  C8  UNL     1      14.497 -24.524  28.703  1.00  0.00     0.141 C
ATOM     37  H9  UNL     1      15.302 -26.133  29.896  1.00  0.00     0.161 HD
HETATM   38  C9  UNL     1      14.968 -24.154  27.326  1.00  0.00     0.141 C
HETATM   39  N10 UNL     1      15.541 -25.393  26.842  1.00  0.00    -0.373 N
ATOM     40  H10 UNL     1      15.707 -25.634  25.865  1.00  0.00     0.161 HD
ENDBRANCH   6  34
TORSDOF 9
ENDMDL