MODEL 5
REMARK VINA RESULT: -7.136599906      5.303      7.605
REMARK  5 active torsions:
REMARK  status: ('A' for Active; 'I' for Inactive)
REMARK    1  A    between atoms: C2_9  and  C3_10
REMARK    2  A    between atoms: N5_11  and  N6_13
REMARK       I    between atoms: N6_13  and  C4_15
REMARK    3  A    between atoms: C4_15  and  C5_17
REMARK    4  A    between atoms: C6_20  and  N8_21
REMARK    5  A    between atoms: C9_30  and  N11_31
ROOT
HETATM    1  C5  UNL     1      18.665 -30.650  25.092  1.00  0.00     0.131 C
HETATM    2  N7  UNL     1      18.517 -31.644  25.982  1.00  0.00    -0.335 N
ATOM      3  H7  UNL     1      18.405 -32.572  25.574  1.00  0.00     0.168 HD
HETATM    4  C6  UNL     1      18.492 -31.612  27.337  1.00  0.00     0.130 C
HETATM    5  C7  UNL     1      18.319 -30.504  28.135  1.00  0.00     0.122 A
HETATM    6  N9  UNL     1      18.269 -29.993  29.369  1.00  0.00    -0.294 N
ATOM      7  H9  UNL     1      18.381 -30.432  30.282  1.00  0.00     0.187 HD
HETATM    8  N10 UNL     1      18.024 -28.720  29.024  1.00  0.00    -0.296 N
ATOM      9  H10 UNL     1      17.880 -27.839  29.516  1.00  0.00     0.187 HD
HETATM   10  C8  UNL     1      18.052 -29.124  27.743  1.00  0.00     0.110 A
HETATM   11  C9  UNL     1      17.925 -28.677  26.440  1.00  0.00     0.104 C
HETATM   12  C10 UNL     1      18.269 -29.329  25.270  1.00  0.00     0.109 C
HETATM   13  N13 UNL     1      18.194 -28.504  24.121  1.00  0.00    -0.097 NA
ENDROOT
BRANCH   1  14
HETATM   14  C4  UNL     1      19.295 -30.949  23.804  1.00  0.00     0.288 C
HETATM   15  N6  UNL     1      18.611 -31.439  22.679  1.00  0.00    -0.265 N
ATOM     16  H6  UNL     1      17.606 -31.606  22.735  1.00  0.00     0.190 HD
HETATM   17  O1  UNL     1      20.555 -30.755  23.683  1.00  0.00    -0.264 OA
BRANCH  15  18
HETATM   18  N5  UNL     1      19.280 -31.697  21.496  1.00  0.00    -0.307 N
HETATM   19  C3  UNL     1      19.612 -30.814  20.645  1.00  0.00     0.143 C
ATOM     20  H5  UNL     1      19.524 -32.665  21.292  1.00  0.00     0.186 HD
BRANCH  19  21
HETATM   21  C2  UNL     1      19.308 -29.382  20.838  1.00  0.00     0.136 A
HETATM   22  N4  UNL     1      20.257 -28.535  21.270  1.00  0.00    -0.279 N
HETATM   23  N3  UNL     1      19.920 -27.260  21.425  1.00  0.00    -0.227 N
ATOM     24  H4  UNL     1      21.203 -28.859  21.471  1.00  0.00     0.189 HD
HETATM   25  N2  UNL     1      18.707 -26.804  21.172  1.00  0.00    -0.223 N
ATOM     26  H3  UNL     1      20.628 -26.604  21.753  1.00  0.00     0.210 HD
HETATM   27  N1  UNL     1      17.728 -27.589  20.744  1.00  0.00    -0.244 N
ATOM     28  H2  UNL     1      18.516 -25.811  21.311  1.00  0.00     0.210 HD
HETATM   29  C1  UNL     1      16.394 -27.084  20.467  1.00  0.00     0.183 C
HETATM   30  C11 UNL     1      18.045 -28.893  20.578  1.00  0.00     0.292 A
HETATM   31  O2  UNL     1      17.184 -29.697  20.180  1.00  0.00    -0.264 OA
ENDBRANCH  19  21
ENDBRANCH  15  18
ENDBRANCH   1  14
BRANCH   4  32
HETATM   32  N8  UNL     1      18.644 -32.709  27.986  1.00  0.00    -0.384 N
ATOM     33  H82 UNL     1      17.799 -33.037  28.456  1.00  0.00     0.157 HD
ATOM     34  H81 UNL     1      19.560 -33.158  27.986  1.00  0.00     0.157 HD
ENDBRANCH   4  32
BRANCH  11  35
HETATM   35  N11 UNL     1      17.370 -27.381  26.297  1.00  0.00    -0.303 N
HETATM   36  N12 UNL     1      16.122 -27.214  26.369  1.00  0.00    -0.345 N
ATOM     37 2H12 UNL     1      15.525 -28.025  26.530  1.00  0.00     0.176 HD
ATOM     38 1H12 UNL     1      15.722 -26.281  26.266  1.00  0.00     0.176 HD
ATOM     39  H11 UNL     1      17.981 -26.580  26.137  1.00  0.00     0.186 HD
ENDBRANCH  11  35
TORSDOF 5
ENDMDL