MODEL 1
REMARK VINA RESULT: -8.699795142      0.000      0.000
REMARK  5 active torsions:
REMARK  status: ('A' for Active; 'I' for Inactive)
REMARK    1  A    between atoms: N1_1  and  C1_4
REMARK    2  A    between atoms: N4_12  and  C4_13
REMARK    3  A    between atoms: C4_13  and  C5_14
REMARK    4  A    between atoms: C8_26  and  N9_27
REMARK    5  A    between atoms: N10_29  and  C9_31
ROOT
HETATM    1  C1  UNL     1      18.598 -27.029  25.251  1.00  0.00     0.679 A
HETATM    2  N2  UNL     1      18.079 -26.924  24.001  1.00  0.00    -0.176 N
ATOM      3  H2  UNL     1      17.677 -26.042  23.680  1.00  0.00     0.186 HD
HETATM    4  C2  UNL     1      18.100 -27.995  23.191  1.00  0.00     0.144 A
HETATM    5  N3  UNL     1      17.603 -27.953  21.943  1.00  0.00    -0.293 N
ATOM      6  H3  UNL     1      17.193 -27.091  21.584  1.00  0.00     0.172 HD
HETATM    7  C3  UNL     1      17.647 -29.051  21.171  1.00  0.00     0.331 A
HETATM    8  O1  UNL     1      17.162 -28.949  20.005  1.00  0.00    -0.246 OA
HETATM    9  N4  UNL     1      18.175 -30.209  21.589  1.00  0.00    -0.258 N
HETATM   10  C6  UNL     1      18.681 -30.305  22.814  1.00  0.00     0.269 A
HETATM   11  O2  UNL     1      19.195 -31.381  23.263  1.00  0.00    -0.267 OA
HETATM   12  C7  UNL     1      18.687 -29.240  23.690  1.00  0.00     0.123 A
HETATM   13  C8  UNL     1      19.187 -29.260  24.960  1.00  0.00     0.155 A
HETATM   14  N15 UNL     1      19.141 -28.174  25.720  1.00  0.00    -0.174 N
ATOM     15  H15 UNL     1      19.519 -28.204  26.667  1.00  0.00     0.186 HD
ENDROOT
BRANCH  13  16
HETATM   16  N9  UNL     1      19.756 -30.467  25.443  1.00  0.00    -0.270 N
HETATM   17  N10 UNL     1      19.176 -31.307  26.157  1.00  0.00    -0.128 N
ATOM     18  H10 UNL     1      19.705 -32.134  26.433  1.00  0.00     0.205 HD
ATOM     19  H9  UNL     1      20.722 -30.664  25.183  1.00  0.00     0.189 HD
BRANCH  17  20
HETATM   20  C9  UNL     1      17.831 -31.202  26.620  1.00  0.00     0.728 A
HETATM   21  N11 UNL     1      16.848 -32.042  26.280  1.00  0.00    -0.114 N
HETATM   22  N12 UNL     1      15.767 -31.617  26.906  1.00  0.00    -0.213 N
ATOM     23  H11 UNL     1      16.920 -32.849  25.660  1.00  0.00     0.207 HD
HETATM   24  N13 UNL     1      16.048 -30.544  27.620  1.00  0.00    -0.213 N
ATOM     25  H12 UNL     1      14.847 -32.054  26.846  1.00  0.00     0.210 HD
HETATM   26  N14 UNL     1      17.321 -30.291  27.443  1.00  0.00    -0.114 N
ATOM     27  H13 UNL     1      15.397 -30.014  28.200  1.00  0.00     0.210 HD
ATOM     28  H14 UNL     1      17.836 -29.520  27.867  1.00  0.00     0.207 HD
ENDBRANCH  17  20
ENDBRANCH  13  16
BRANCH   1  29
HETATM   29  N1  UNL     1      18.590 -26.008  26.056  1.00  0.00    -0.234 N
ATOM     30  H12 UNL     1      19.283 -25.279  25.885  1.00  0.00     0.174 HD
ATOM     31  H11 UNL     1      17.913 -25.956  26.817  1.00  0.00     0.174 HD
ENDBRANCH   1  29
BRANCH   9  32
HETATM   32  C4  UNL     1      18.178 -31.337  20.685  1.00  0.00     0.216 C
BRANCH  32  33
HETATM   33  C5  UNL     1      16.937 -32.139  20.759  1.00  0.00     0.131 A
HETATM   34  N5  UNL     1      16.130 -32.504  19.750  1.00  0.00    -0.271 N
HETATM   35  N6  UNL     1      15.128 -33.221  20.274  1.00  0.00    -0.227 N
ATOM     36  H5  UNL     1      16.257 -32.276  18.763  1.00  0.00     0.190 HD
HETATM   37  N7  UNL     1      15.283 -33.315  21.578  1.00  0.00    -0.227 N
ATOM     38  H6  UNL     1      14.361 -33.632  19.742  1.00  0.00     0.210 HD
HETATM   39  N8  UNL     1      16.389 -32.653  21.870  1.00  0.00    -0.271 N
ATOM     40  H7  UNL     1      14.671 -33.802  22.232  1.00  0.00     0.210 HD
ATOM     41  H8  UNL     1      16.772 -32.547  22.810  1.00  0.00     0.190 HD
ENDBRANCH  32  33
ENDBRANCH   9  32
TORSDOF 5
ENDMDL