MODEL 1
REMARK VINA RESULT: -7.433913439      0.000      0.000
REMARK  7 active torsions:
REMARK  status: ('A' for Active; 'I' for Inactive)
REMARK    1  A    between atoms: O1_2  and  C2_3
REMARK    2  A    between atoms: C2_3  and  C3_5
REMARK    3  A    between atoms: C4_6  and  N1_7
REMARK    4  A    between atoms: N1_7  and  C5_9
REMARK    5  A    between atoms: C6_12  and  N3_14
REMARK    6  A    between atoms: N3_14  and  N4_16
REMARK    7  A    between atoms: C8_25  and  N8_26
ROOT
HETATM    1  C3  UNL     1      18.102 -30.350  26.231  1.00  0.00     0.107 A
HETATM    2  C4  UNL     1      19.076 -30.152  25.275  1.00  0.00     0.154 A
HETATM    3  N7  UNL     1      19.465 -28.881  24.901  1.00  0.00    -0.175 N
ATOM      4  H7  UNL     1      20.187 -28.744  24.193  1.00  0.00     0.186 HD
HETATM    5  C8  UNL     1      18.880 -27.840  25.484  1.00  0.00     0.677 A
HETATM    6  N9  UNL     1      17.928 -28.007  26.419  1.00  0.00    -0.195 N
ATOM      7  H9  UNL     1      17.505 -27.181  26.840  1.00  0.00     0.184 HD
HETATM    8  C9  UNL     1      17.511 -29.222  26.821  1.00  0.00     0.043 A
HETATM    9  C10 UNL     1      16.465 -29.385  27.847  1.00  0.00     0.070 C
ENDROOT
BRANCH   2  10
HETATM   10  N1  UNL     1      19.718 -31.238  24.637  1.00  0.00    -0.173 N
ATOM     11  H1  UNL     1      20.296 -31.892  25.164  1.00  0.00     0.186 HD
BRANCH  10  12
HETATM   12  C5  UNL     1      19.527 -31.391  23.208  1.00  0.00     0.704 C
HETATM   13  N2  UNL     1      18.450 -30.983  22.626  1.00  0.00    -0.179 N
HETATM   14  C6  UNL     1      18.327 -31.172  21.172  1.00  0.00     0.236 C
ATOM     15  H2  UNL     1      17.702 -30.540  23.161  1.00  0.00     0.182 HD
HETATM   16  C7  UNL     1      18.988 -30.056  20.420  1.00  0.00     0.088 C
HETATM   17  N5  UNL     1      19.005 -32.420  20.875  1.00  0.00    -0.016 NA
HETATM   18  O5  UNL     1      20.324 -32.216  21.067  1.00  0.00    -0.146 OA
HETATM   19  N6  UNL     1      20.521 -31.997  22.389  1.00  0.00    -0.076 N
ATOM     20  H6  UNL     1      21.408 -32.274  22.811  1.00  0.00     0.215 HD
BRANCH  14  21
HETATM   21  N3  UNL     1      16.919 -31.242  20.893  1.00  0.00    -0.231 N
ATOM     22  H3  UNL     1      16.431 -30.439  20.497  1.00  0.00     0.191 HD
BRANCH  21  23
HETATM   23  N4  UNL     1      16.234 -32.414  21.168  1.00  0.00    -0.040 N
HETATM   24  O3  UNL     1      15.859 -33.114  20.198  1.00  0.00    -0.517 OA
HETATM   25  O4  UNL     1      15.993 -32.763  22.471  1.00  0.00    -0.517 OA
ENDBRANCH  21  23
ENDBRANCH  14  21
ENDBRANCH  10  12
ENDBRANCH   2  10
BRANCH   1  26
HETATM   26  C2  UNL     1      17.668 -31.658  26.648  1.00  0.00     0.298 C
HETATM   27  O2  UNL     1      16.520 -32.102  26.270  1.00  0.00    -0.259 OA
BRANCH  26  28
HETATM   28  O1  UNL     1      18.318 -32.578  27.441  1.00  0.00    -0.322 OA
HETATM   29  C1  UNL     1      19.278 -32.291  28.414  1.00  0.00     0.213 C
ENDBRANCH  26  28
ENDBRANCH   1  26
BRANCH   5  30
HETATM   30  N8  UNL     1      19.220 -26.630  25.158  1.00  0.00    -0.234 N
ATOM     31  H82 UNL     1      19.577 -26.463  24.217  1.00  0.00     0.174 HD
ATOM     32  H81 UNL     1      19.129 -25.871  25.832  1.00  0.00     0.174 HD
ENDBRANCH   5  30
TORSDOF 7
ENDMDL