MODEL 1
REMARK VINA RESULT: -7.808377997      0.000      0.000
REMARK  5 active torsions:
REMARK  status: ('A' for Active; 'I' for Inactive)
REMARK    1  A    between atoms: N1_2  and  N2_3
REMARK    2  A    between atoms: C3_7  and  O1_8
REMARK    3  A    between atoms: C3_7  and  N5_10
REMARK    4  A    between atoms: C6_16  and  C7_17
REMARK    5  A    between atoms: C9_19  and  N7_20
ROOT
HETATM    1  C7  UNL     1      19.821 -30.132  23.212  1.00  0.00     0.034 A
HETATM    2  C8  UNL     1      18.608 -30.548  22.703  1.00  0.00     0.056 A
HETATM    3  C9  UNL     1      18.632 -31.198  21.525  1.00  0.00     0.131 A
HETATM    4  C10 UNL     1      19.850 -31.390  20.941  1.00  0.00     0.118 A
HETATM    5  C11 UNL     1      20.117 -32.036  19.662  1.00  0.00     0.109 C
HETATM    6  N8  UNL     1      20.332 -32.529  18.628  1.00  0.00    -0.191 NA
HETATM    7  S1  UNL     1      20.936 -30.667  22.036  1.00  0.00    -0.078 SA
ENDROOT
BRANCH   3   8
HETATM    8  N7  UNL     1      17.424 -31.673  20.870  1.00  0.00    -0.114 N
HETATM    9  O2  UNL     1      16.834 -30.986  20.024  1.00  0.00    -0.532 OA
HETATM   10  O3  UNL     1      16.889 -32.893  21.154  1.00  0.00    -0.532 OA
ENDBRANCH   3   8
BRANCH   1  11
HETATM   11  C6  UNL     1      20.035 -29.347  24.476  1.00  0.00     0.332 C
HETATM   12  N6  UNL     1      19.819 -27.942  24.214  1.00  0.00    -0.050 N
HETATM   13  C5  UNL     1      20.428 -27.283  25.387  1.00  0.00     0.250 C
ATOM     14  H62 UNL     1      18.847 -27.686  24.040  1.00  0.00     0.279 HD
ATOM     15  H61 UNL     1      20.174 -27.619  23.314  1.00  0.00     0.279 HD
HETATM   16  C4  UNL     1      20.604 -28.248  26.504  1.00  0.00     0.142 C
HETATM   17  N5  UNL     1      19.603 -29.236  26.697  1.00  0.00    -0.180 NA
HETATM   18  N9  UNL     1      19.069 -29.738  25.487  1.00  0.00    -0.122 NA
BRANCH  17  19
HETATM   19  C3  UNL     1      18.614 -28.930  27.652  1.00  0.00     0.235 C
HETATM   20  N2  UNL     1      18.547 -29.907  28.717  1.00  0.00    -0.078 NA
HETATM   21  N3  UNL     1      17.370 -29.632  29.362  1.00  0.00    -0.036 NA
HETATM   22  N4  UNL     1      16.497 -29.006  28.504  1.00  0.00    -0.124 NA
HETATM   23  C2  UNL     1      17.192 -28.853  27.204  1.00  0.00     0.208 C
BRANCH  20  24
HETATM   24  N1  UNL     1      18.669 -31.161  28.159  1.00  0.00    -0.148 NA
HETATM   25  C1  UNL     1      19.581 -32.018  28.878  1.00  0.00     0.154 C
ENDBRANCH  20  24
BRANCH  19  26
HETATM   26  O1  UNL     1      18.902 -27.703  28.293  1.00  0.00    -0.358 OA
ATOM     27  H1  UNL     1      18.579 -27.032  27.702  1.00  0.00     0.213 HD
ENDBRANCH  19  26
ENDBRANCH  17  19
ENDBRANCH   1  11
TORSDOF 5
ENDMDL