MODEL 3
REMARK VINA RESULT: -5.916792452      3.781      5.680
REMARK  9 active torsions:
REMARK  status: ('A' for Active; 'I' for Inactive)
REMARK    1  A    between atoms: N1_1  and  C1_5
REMARK    2  A    between atoms: C1_5  and  C2_6
REMARK    3  A    between atoms: N3_9  and  C3_10
REMARK    4  A    between atoms: C4_11  and  N4_12
REMARK    5  A    between atoms: N5_17  and  N6_19
REMARK    6  A    between atoms: C7_24  and  C8_25
REMARK    7  A    between atoms: C8_25  and  O3_26
REMARK    8  A    between atoms: C8_25  and  N8_28
REMARK    9  A    between atoms: N8_28  and  N9_30
ROOT
HETATM    1  C3  UNL     1      17.625 -26.536  26.643  1.00  0.00     0.121 A
HETATM    2  C4  UNL     1      16.907 -27.078  27.715  1.00  0.00     0.176 A
HETATM    3  S1  UNL     1      15.488 -26.261  28.153  1.00  0.00    -0.043 SA
HETATM    4  C5  UNL     1      15.174 -24.907  27.204  1.00  0.00     0.116 A
HETATM    5  N5  UNL     1      14.131 -24.115  27.356  1.00  0.00    -0.299 N
ATOM      6  H5  UNL     1      13.997 -23.308  26.746  1.00  0.00     0.187 HD
HETATM    7  C6  UNL     1      16.100 -24.663  26.226  1.00  0.00     0.098 A
HETATM    8  N7  UNL     1      15.753 -23.491  25.435  1.00  0.00    -0.098 NA
HETATM    9  C7  UNL     1      17.259 -25.407  25.937  1.00  0.00     0.075 A
ENDROOT
BRANCH   1  10
HETATM   10  N3  UNL     1      18.857 -27.245  26.350  1.00  0.00    -0.218 N
HETATM   11  N2  UNL     1      20.083 -27.084  26.812  1.00  0.00    -0.282 N
HETATM   12  C2  UNL     1      20.908 -28.020  26.289  1.00  0.00     0.111 A
ATOM     13  H2  UNL     1      20.368 -26.357  27.468  1.00  0.00     0.188 HD
HETATM   14  S2  UNL     1      19.472 -28.538  25.486  1.00  0.00     0.027 SA
BRANCH  12  15
HETATM   15  C1  UNL     1      22.333 -28.428  26.351  1.00  0.00     0.297 C
BRANCH  15  16
HETATM   16  N1  UNL     1      22.568 -29.432  27.370  1.00  0.00    -0.073 N
ATOM     17  H13 UNL     1      21.931 -29.316  28.158  1.00  0.00     0.274 HD
ATOM     18  H12 UNL     1      22.269 -30.355  27.055  1.00  0.00     0.274 HD
ATOM     19  H11 UNL     1      23.540 -29.444  27.679  1.00  0.00     0.274 HD
ENDBRANCH  15  16
ENDBRANCH  12  15
ENDBRANCH   1  10
BRANCH   2  20
HETATM   20  N4  UNL     1      17.301 -28.240  28.432  1.00  0.00    -0.106 N
HETATM   21  O1  UNL     1      18.276 -28.431  29.136  1.00  0.00    -0.531 OA
HETATM   22  O2  UNL     1      16.454 -29.378  28.345  1.00  0.00    -0.531 OA
ENDBRANCH   2  20
BRANCH   9  23
HETATM   23  C8  UNL     1      18.052 -24.851  24.849  1.00  0.00     0.169 C
BRANCH  23  24
HETATM   24  O3  UNL     1      19.238 -24.379  25.240  1.00  0.00    -0.344 OA
ATOM     25  H3  UNL     1      19.470 -24.624  26.127  1.00  0.00     0.219 HD
ENDBRANCH  23  24
BRANCH  23  26
HETATM   26  N8  UNL     1      17.887 -24.680  23.498  1.00  0.00    -0.286 N
ATOM     27  H8  UNL     1      18.524 -24.099  22.951  1.00  0.00     0.188 HD
BRANCH  26  28
HETATM   28  N9  UNL     1      16.764 -25.364  22.882  1.00  0.00    -0.343 N
ATOM     29  H92 UNL     1      16.779 -26.375  22.751  1.00  0.00     0.176 HD
ATOM     30  H91 UNL     1      15.974 -24.786  22.594  1.00  0.00     0.176 HD
ENDBRANCH  26  28
ENDBRANCH  23  26
ENDBRANCH   9  23
BRANCH   5  31
HETATM   31  N6  UNL     1      13.212 -24.403  28.369  1.00  0.00    -0.344 N
ATOM     32  H62 UNL     1      13.547 -24.640  29.303  1.00  0.00     0.176 HD
ATOM     33  H61 UNL     1      12.217 -24.371  28.149  1.00  0.00     0.176 HD
ENDBRANCH   5  31
TORSDOF 9
ENDMDL