MODEL 4
REMARK VINA RESULT: -6.759416080      1.837      2.458
REMARK  8 active torsions:
REMARK  status: ('A' for Active; 'I' for Inactive)
REMARK    1  A    between atoms: C1_4  and  O1_6
REMARK    2  A    between atoms: O1_6  and  N3_7
REMARK    3  A    between atoms: C2_9  and  C3_10
REMARK    4  A    between atoms: C2_9  and  N5_18
REMARK       I    between atoms: C3_10  and  N4_12
REMARK    5  A    between atoms: N4_12  and  S1_14
REMARK    6  A    between atoms: C4_21  and  C5_22
REMARK    7  A    between atoms: C5_22  and  N7_23
REMARK    8  A    between atoms: C5_22  and  O6_27
ROOT
HETATM    1  N3  UNL     1      20.028 -31.256  25.203  1.00  0.00    -0.235 N
ATOM      2  H3  UNL     1      20.553 -31.571  24.387  1.00  0.00     0.197 HD
HETATM    3  C2  UNL     1      18.951 -30.640  24.967  1.00  0.00     0.219 C
ENDROOT
BRANCH   3   4
HETATM    4  C3  UNL     1      18.512 -30.410  23.620  1.00  0.00     0.304 C
HETATM    5  O2  UNL     1      18.009 -29.298  23.302  1.00  0.00    -0.263 OA
HETATM    6  N4  UNL     1      18.619 -31.393  22.610  1.00  0.00    -0.228 N
ATOM      7  H4  UNL     1      19.023 -32.297  22.850  1.00  0.00     0.184 HD
BRANCH   6   8
HETATM    8  S1  UNL     1      18.099 -31.130  21.002  1.00  0.00     0.211 S
HETATM    9  O3  UNL     1      18.238 -32.362  20.180  1.00  0.00    -0.578 OA
HETATM   10  O4  UNL     1      16.612 -30.810  21.049  1.00  0.00    -0.578 OA
HETATM   11  O5  UNL     1      18.852 -29.800  20.331  1.00  0.00    -0.578 OA
ENDBRANCH   6   8
ENDBRANCH   3   4
BRANCH   3  12
HETATM   12  N5  UNL     1      18.184 -30.181  26.113  1.00  0.00    -0.210 N
HETATM   13  N6  UNL     1      18.428 -29.015  26.605  1.00  0.00    -0.283 N
HETATM   14  C4  UNL     1      17.758 -28.565  27.640  1.00  0.00     0.126 A
ATOM     15  H6  UNL     1      19.152 -28.433  26.184  1.00  0.00     0.188 HD
HETATM   16  S2  UNL     1      16.703 -29.869  27.954  1.00  0.00    -0.033 SA
HETATM   17  C6  UNL     1      17.220 -30.905  26.705  1.00  0.00     0.167 A
HETATM   18  N8  UNL     1      16.811 -32.108  26.371  1.00  0.00    -0.378 N
ATOM     19  H82 UNL     1      17.121 -32.728  25.623  1.00  0.00     0.158 HD
ATOM     20  H81 UNL     1      16.079 -32.657  26.821  1.00  0.00     0.158 HD
BRANCH  14  21
HETATM   21  C5  UNL     1      17.892 -27.239  28.360  1.00  0.00     0.376 C
BRANCH  21  22
HETATM   22  N7  UNL     1      16.626 -26.589  28.474  1.00  0.00    -0.047 N
ATOM     23  H73 UNL     1      16.418 -26.022  27.651  1.00  0.00     0.277 HD
ATOM     24  H72 UNL     1      15.854 -27.253  28.403  1.00  0.00     0.277 HD
ATOM     25  H71 UNL     1      16.573 -26.041  29.332  1.00  0.00     0.277 HD
ENDBRANCH  21  22
BRANCH  21  26
HETATM   26  O6  UNL     1      18.354 -27.532  29.644  1.00  0.00    -0.365 OA
ATOM     27  H6  UNL     1      19.301 -27.581  29.584  1.00  0.00     0.212 HD
ENDBRANCH  21  26
ENDBRANCH  14  21
ENDBRANCH   3  12
BRANCH   1  28
HETATM   28  O1  UNL     1      20.569 -31.546  26.408  1.00  0.00    -0.203 OA
BRANCH  28  29
HETATM   29  C1  UNL     1      21.360 -30.610  27.066  1.00  0.00     0.249 C
HETATM   30  N1  UNL     1      21.888 -31.004  28.196  1.00  0.00    -0.366 N
ATOM     31  H12 UNL     1      22.468 -30.318  28.679  1.00  0.00     0.159 HD
ATOM     32  H11 UNL     1      21.717 -31.944  28.552  1.00  0.00     0.159 HD
HETATM   33  N2  UNL     1      21.599 -29.300  26.570  1.00  0.00    -0.055 NA
ENDBRANCH  28  29
ENDBRANCH   1  28
TORSDOF 8
ENDMDL