MODEL 3
REMARK VINA RESULT: -7.778008658      0.999      1.427
REMARK  8 active torsions:
REMARK  status: ('A' for Active; 'I' for Inactive)
REMARK    1  A    between atoms: C3_8  and  N4_9
REMARK    2  A    between atoms: N4_9  and  N5_11
REMARK    3  A    between atoms: N5_11  and  C4_13
REMARK    4  A    between atoms: C7_16  and  N6_17
REMARK    5  A    between atoms: C10_22  and  N7_23
REMARK    6  A    between atoms: N7_23  and  N8_25
REMARK    7  A    between atoms: C11_30  and  C12_31
REMARK       I    between atoms: C12_31  and  N10_33
REMARK    8  A    between atoms: N10_33  and  N11_35
ROOT
HETATM    1  N1  UNL     1      21.584 -28.196  23.362  1.00  0.00    -0.190 NA
HETATM    2  C1  UNL     1      21.039 -28.870  24.144  1.00  0.00     0.121 C
HETATM    3  C2  UNL     1      20.358 -29.671  25.116  1.00  0.00     0.161 C
HETATM    4  N2  UNL     1      20.567 -29.436  26.433  1.00  0.00    -0.287 N
ATOM      5  H2  UNL     1      21.427 -28.935  26.660  1.00  0.00     0.188 HD
HETATM    6  N3  UNL     1      19.798 -29.771  27.484  1.00  0.00    -0.280 N
ATOM      7  H3  UNL     1      20.218 -29.703  28.412  1.00  0.00     0.188 HD
HETATM    8  C3  UNL     1      18.494 -30.197  27.414  1.00  0.00     0.181 C
HETATM    9  C10 UNL     1      18.002 -31.015  26.424  1.00  0.00     0.168 C
HETATM   10  N9  UNL     1      18.316 -31.021  25.092  1.00  0.00    -0.331 N
ATOM     11  H9  UNL     1      17.602 -31.336  24.435  1.00  0.00     0.168 HD
HETATM   12  C11 UNL     1      19.523 -30.632  24.584  1.00  0.00     0.143 C
ENDROOT
BRANCH  12  13
HETATM   13  C12 UNL     1      19.959 -31.292  23.390  1.00  0.00     0.289 C
HETATM   14  O3  UNL     1      21.096 -31.807  23.336  1.00  0.00    -0.264 OA
HETATM   15  N10 UNL     1      19.116 -31.374  22.254  1.00  0.00    -0.271 N
ATOM     16  H10 UNL     1      18.184 -30.961  22.279  1.00  0.00     0.189 HD
BRANCH  15  17
HETATM   17  N11 UNL     1      19.572 -32.033  21.077  1.00  0.00    -0.342 N
ATOM     18 2H11 UNL     1      20.477 -32.503  21.090  1.00  0.00     0.176 HD
ATOM     19 1H11 UNL     1      18.994 -32.031  20.236  1.00  0.00     0.176 HD
ENDBRANCH  15  17
ENDBRANCH  12  13
BRANCH   8  20
HETATM   20  N4  UNL     1      17.725 -29.791  28.342  1.00  0.00    -0.281 N
ATOM     21  H4  UNL     1      16.998 -30.416  28.691  1.00  0.00     0.188 HD
BRANCH  20  22
HETATM   22  N5  UNL     1      17.846 -28.531  28.891  1.00  0.00    -0.299 N
ATOM     23  H5  UNL     1      18.357 -28.407  29.766  1.00  0.00     0.187 HD
BRANCH  22  24
HETATM   24  C4  UNL     1      17.263 -27.396  28.245  1.00  0.00     0.048 A
HETATM   25  C5  UNL     1      15.912 -27.415  27.955  1.00  0.00     0.033 A
HETATM   26  C6  UNL     1      15.284 -26.358  27.335  1.00  0.00     0.038 A
HETATM   27  C7  UNL     1      16.006 -25.256  26.993  1.00  0.00     0.103 A
HETATM   28  C8  UNL     1      17.344 -25.231  27.277  1.00  0.00     0.038 A
HETATM   29  C9  UNL     1      17.961 -26.279  27.890  1.00  0.00     0.033 A
BRANCH  27  30
HETATM   30  N6  UNL     1      15.346 -24.168  26.350  1.00  0.00    -0.116 N
HETATM   31  O1  UNL     1      14.263 -23.792  26.813  1.00  0.00    -0.532 OA
HETATM   32  O2  UNL     1      15.860 -23.538  25.257  1.00  0.00    -0.532 OA
ENDBRANCH  27  30
ENDBRANCH  22  24
ENDBRANCH  20  22
ENDBRANCH   8  20
BRANCH   9  33
HETATM   33  N7  UNL     1      17.151 -31.870  26.816  1.00  0.00    -0.289 N
ATOM     34  H7  UNL     1      17.254 -32.201  27.774  1.00  0.00     0.188 HD
BRANCH  33  35
HETATM   35  N8  UNL     1      16.104 -32.400  26.098  1.00  0.00    -0.344 N
ATOM     36  H82 UNL     1      16.375 -32.992  25.313  1.00  0.00     0.176 HD
ATOM     37  H81 UNL     1      15.107 -32.266  26.263  1.00  0.00     0.176 HD
ENDBRANCH  33  35
ENDBRANCH   9  33
TORSDOF 8
ENDMDL