MODEL 2
REMARK VINA RESULT: -9.409918766      4.232      5.185
REMARK  5 active torsions:
REMARK  status: ('A' for Active; 'I' for Inactive)
REMARK    1  A    between atoms: C2_3  and  C3_4
REMARK       I    between atoms: C3_4  and  N2_6
REMARK    2  A    between atoms: N2_6  and  C4_8
REMARK    3  A    between atoms: C8_13  and  C9_14
REMARK       I    between atoms: C9_14  and  N3_16
REMARK    4  A    between atoms: N3_16  and  C10_18
REMARK    5  A    between atoms: C19_31  and  O3_32
ROOT
HETATM    1  C4  UNL     1      -0.045  31.133  38.200  1.00  0.00     0.036 A
HETATM    2  C5  UNL     1      -0.825  31.272  37.104  1.00  0.00     0.031 A
HETATM    3  C6  UNL     1      -1.157  32.525  36.557  1.00  0.00     0.027 A
HETATM    4  C7  UNL     1      -0.659  33.658  37.171  1.00  0.00     0.050 A
HETATM    5 CL1  UNL     1      -1.051  35.250  36.516  1.00  0.00    -0.083 Cl
HETATM    6  C8  UNL     1       0.128  33.551  38.276  1.00  0.00     0.056 A
HETATM    7  C16 UNL     1       0.437  32.319  38.791  1.00  0.00     0.048 A
ENDROOT
BRANCH   1   8
HETATM    8  N2  UNL     1       0.317  29.905  38.768  1.00  0.00    -0.323 N
HETATM    9  C3  UNL     1       0.971  28.833  38.138  1.00  0.00     0.258 C
HETATM   10  O1  UNL     1       1.329  28.859  36.930  1.00  0.00    -0.267 OA
ATOM     11  H2  UNL     1       0.078  29.774  39.751  1.00  0.00     0.169 HD
BRANCH   9  12
HETATM   12  C2  UNL     1       1.294  27.577  38.859  1.00  0.00     0.059 A
HETATM   13  C1  UNL     1       2.414  27.496  39.667  1.00  0.00     0.082 A
HETATM   14  N1  UNL     1       3.248  28.638  39.793  1.00  0.00    -0.100 NA
HETATM   15  C20 UNL     1       2.742  26.353  40.346  1.00  0.00     0.070 A
HETATM   16  C19 UNL     1       1.962  25.230  40.251  1.00  0.00     0.102 A
HETATM   17 BR2  UNL     1       4.318  26.342  41.443  1.00  0.00    -0.046 Br
HETATM   18  C18 UNL     1       0.843  25.281  39.455  1.00  0.00     0.046 A
HETATM   19  C17 UNL     1       0.522  26.449  38.770  1.00  0.00     0.041 A
HETATM   20 BR1  UNL     1      -0.243  23.731  39.318  1.00  0.00    -0.048 Br
BRANCH  16  21
HETATM   21  O3  UNL     1       2.331  24.093  40.957  1.00  0.00    -0.358 OA
ATOM     22  H3  UNL     1       3.238  23.851  41.105  1.00  0.00     0.217 HD
ENDBRANCH  16  21
ENDBRANCH   9  12
ENDBRANCH   1   8
BRANCH   6  23
HETATM   23  C9  UNL     1       0.637  34.800  38.900  1.00  0.00     0.258 C
HETATM   24  O2  UNL     1       0.567  34.905  40.144  1.00  0.00    -0.267 OA
HETATM   25  N3  UNL     1       1.160  35.777  38.061  1.00  0.00    -0.320 N
ATOM     26  H3  UNL     1       1.148  35.547  37.067  1.00  0.00     0.169 HD
BRANCH  25  27
HETATM   27  C10 UNL     1       1.703  37.036  38.376  1.00  0.00     0.075 A
HETATM   28  C11 UNL     1       3.036  37.266  38.589  1.00  0.00     0.036 A
HETATM   29  C12 UNL     1       3.508  38.556  38.902  1.00  0.00     0.046 A
HETATM   30  C13 UNL     1       2.666  39.632  39.006  1.00  0.00     0.141 A
HETATM   31  F1  UNL     1       3.165  40.853  39.309  1.00  0.00    -0.204 F
HETATM   32  C14 UNL     1       1.323  39.413  38.794  1.00  0.00     0.113 A
HETATM   33 CL2  UNL     1       0.214  40.764  38.918  1.00  0.00    -0.078 Cl
HETATM   34  C15 UNL     1       0.865  38.152  38.489  1.00  0.00     0.167 A
HETATM   35  F2  UNL     1      -0.455  37.950  38.282  1.00  0.00    -0.202 F
ENDBRANCH  25  27
ENDBRANCH   6  23
TORSDOF 5
ENDMDL