MODEL 1
REMARK VINA RESULT: -9.607025457      0.000      0.000
REMARK  10 active torsions:
REMARK  status: ('A' for Active; 'I' for Inactive)
REMARK       I    between atoms: C1_2  and  N1_3
REMARK    1  A    between atoms: C1_2  and  C14_32
REMARK    2  A    between atoms: N1_3  and  C2_5
REMARK    3  A    between atoms: C2_5  and  N2_7
REMARK    4  A    between atoms: N2_7  and  N3_9
REMARK    5  A    between atoms: N3_9  and  C3_11
REMARK    6  A    between atoms: C3_11  and  N4_13
REMARK    7  A    between atoms: N4_13  and  N5_15
REMARK    8  A    between atoms: C4_17  and  C5_18
REMARK    9  A    between atoms: C4_17  and  C13_28
REMARK   10  A    between atoms: C6_19  and  C7_20
ROOT
HETATM    1  C3  UNL     1       3.509  31.738  38.875  1.00  0.00     0.205 C
HETATM    2  S2  UNL     1       3.249  32.425  40.316  1.00  0.00    -0.038 SA
ENDROOT
BRANCH   1   3
HETATM    3  N3  UNL     1       4.231  30.544  38.772  1.00  0.00    -0.273 N
ATOM      4  H3  UNL     1       5.248  30.540  38.690  1.00  0.00     0.189 HD
BRANCH   3   5
HETATM    5  N2  UNL     1       3.474  29.330  38.788  1.00  0.00    -0.274 N
ATOM      6  H2  UNL     1       3.316  28.833  39.665  1.00  0.00     0.189 HD
BRANCH   5   7
HETATM    7  C2  UNL     1       2.958  28.837  37.603  1.00  0.00     0.193 C
HETATM    8  S1  UNL     1       1.417  28.211  37.664  1.00  0.00    -0.039 SA
BRANCH   7   9
HETATM    9  N1  UNL     1       3.624  28.827  36.381  1.00  0.00    -0.298 N
HETATM   10  C1  UNL     1       3.407  29.722  35.333  1.00  0.00     0.259 C
HETATM   11  O1  UNL     1       2.573  30.678  35.331  1.00  0.00    -0.267 OA
ATOM     12  H1  UNL     1       4.331  28.105  36.240  1.00  0.00     0.171 HD
BRANCH  10  13
HETATM   13  C14 UNL     1       4.224  29.546  34.099  1.00  0.00     0.054 A
HETATM   14  C15 UNL     1       5.581  29.755  34.081  1.00  0.00     0.019 A
HETATM   15  C16 UNL     1       6.331  29.590  32.931  1.00  0.00     0.001 A
HETATM   16  C17 UNL     1       5.641  29.202  31.798  1.00  0.00     0.002 A
HETATM   17  C18 UNL     1       4.283  28.987  31.790  1.00  0.00     0.025 A
HETATM   18  C19 UNL     1       3.556  29.163  32.970  1.00  0.00     0.049 A
HETATM   19 CL6  UNL     1       1.838  28.885  32.936  1.00  0.00    -0.083 Cl
ENDBRANCH  10  13
ENDBRANCH   7   9
ENDBRANCH   5   7
ENDBRANCH   3   5
ENDBRANCH   1   3
BRANCH   1  20
HETATM   20  N4  UNL     1       2.996  32.357  37.707  1.00  0.00    -0.275 N
ATOM     21  H4  UNL     1       3.634  32.730  37.004  1.00  0.00     0.189 HD
BRANCH  20  22
HETATM   22  N5  UNL     1       1.644  32.453  37.525  1.00  0.00    -0.298 N
HETATM   23  C4  UNL     1       0.816  33.367  37.408  1.00  0.00     0.079 C
ATOM     24  H5  UNL     1       1.203  31.535  37.471  1.00  0.00     0.186 HD
BRANCH  23  25
HETATM   25  C5  UNL     1       1.096  34.769  37.437  1.00  0.00     0.032 C
HETATM   26  C6  UNL     1       1.213  35.569  38.462  1.00  0.00     0.015 C
BRANCH  26  27
HETATM   27  C7  UNL     1       1.505  37.006  38.366  1.00  0.00    -0.014 A
HETATM   28  C8  UNL     1       2.774  37.506  38.372  1.00  0.00     0.015 A
HETATM   29  C9  UNL     1       3.052  38.881  38.280  1.00  0.00     0.024 A
HETATM   30  C10 UNL     1       1.995  39.757  38.179  1.00  0.00     0.035 A
HETATM   31 CL1  UNL     1       2.214  41.493  38.059  1.00  0.00    -0.084 Cl
HETATM   32  C11 UNL     1       0.701  39.257  38.172  1.00  0.00     0.048 A
HETATM   33  C12 UNL     1       0.460  37.916  38.263  1.00  0.00     0.045 A
HETATM   34 CL2  UNL     1      -1.184  37.274  38.255  1.00  0.00    -0.083 Cl
ENDBRANCH  26  27
ENDBRANCH  23  25
BRANCH  23  35
HETATM   35  C13 UNL     1      -0.628  32.961  37.217  1.00  0.00     0.232 C
HETATM   36 CL3  UNL     1      -1.561  34.322  36.553  1.00  0.00    -0.077 Cl
HETATM   37 CL4  UNL     1      -0.737  31.559  36.130  1.00  0.00    -0.077 Cl
HETATM   38 CL5  UNL     1      -1.365  32.521  38.769  1.00  0.00    -0.077 Cl
ENDBRANCH  23  35
ENDBRANCH  20  22
ENDBRANCH   1  20
TORSDOF 10
ENDMDL