MODEL 3
REMARK VINA RESULT: -9.431702059      4.233      8.512
REMARK  7 active torsions:
REMARK  status: ('A' for Active; 'I' for Inactive)
REMARK    1  A    between atoms: C2_3  and  S1_4
REMARK    2  A    between atoms: S1_4  and  C3_7
REMARK    3  A    between atoms: C10_16  and  N2_17
REMARK    4  A    between atoms: N2_17  and  C11_18
REMARK    5  A    between atoms: C11_18  and  O3_19
REMARK    6  A    between atoms: C11_18  and  C12_21
REMARK    7  A    between atoms: C15_25  and  O4_26
ROOT
HETATM    1  N1  UNL     1       0.731  34.362  40.355  1.00  0.00    -0.099 NA
HETATM    2  C1  UNL     1       0.918  33.311  39.387  1.00  0.00     0.091 A
HETATM    3  C2  UNL     1       0.296  33.370  38.163  1.00  0.00     0.093 A
HETATM    4  C9  UNL     1       0.556  32.348  37.299  1.00  0.00     0.072 A
HETATM    5  C10 UNL     1       1.407  31.246  37.553  1.00  0.00     0.135 A
HETATM    6  C18 UNL     1       2.003  31.221  38.778  1.00  0.00     0.098 A
HETATM    7 CL3  UNL     1       3.022  29.908  39.358  1.00  0.00    -0.079 Cl
HETATM    8  C19 UNL     1       1.746  32.263  39.679  1.00  0.00     0.084 A
HETATM    9 CL4  UNL     1       2.557  32.222  41.258  1.00  0.00    -0.080 Cl
ENDROOT
BRANCH   5  10
HETATM   10  N2  UNL     1       1.785  30.466  36.468  1.00  0.00    -0.378 NA
BRANCH  10  11
HETATM   11  C11 UNL     1       2.147  29.721  35.434  1.00  0.00     0.228 C
BRANCH  11  12
HETATM   12  O3  UNL     1       1.313  28.982  34.688  1.00  0.00    -0.335 OA
ATOM     13  H3  UNL     1       0.431  28.734  34.939  1.00  0.00     0.220 HD
ENDBRANCH  11  12
BRANCH  11  14
HETATM   14  C12 UNL     1       3.515  29.549  34.862  1.00  0.00     0.069 A
HETATM   15  C13 UNL     1       3.550  28.728  33.717  1.00  0.00     0.042 A
HETATM   16  C14 UNL     1       4.695  28.496  32.988  1.00  0.00     0.045 A
HETATM   17 BR1  UNL     1       4.705  27.390  31.453  1.00  0.00    -0.048 Br
HETATM   18  C15 UNL     1       5.891  29.088  33.383  1.00  0.00     0.086 A
HETATM   19  C16 UNL     1       5.869  29.882  34.491  1.00  0.00     0.081 A
HETATM   20  C17 UNL     1       4.669  30.103  35.222  1.00  0.00     0.134 A
HETATM   21  F1  UNL     1       4.786  30.853  36.324  1.00  0.00    -0.205 F
BRANCH  18  22
HETATM   22  O4  UNL     1       7.038  28.839  32.640  1.00  0.00    -0.359 OA
ATOM     23  H4  UNL     1       7.105  29.205  31.765  1.00  0.00     0.217 HD
ENDBRANCH  18  22
ENDBRANCH  11  14
ENDBRANCH  10  11
ENDBRANCH   5  10
BRANCH   3  24
HETATM   24  S1  UNL     1      -0.667  34.700  37.700  1.00  0.00     0.210 S
HETATM   25  O1  UNL     1      -2.036  34.553  38.389  1.00  0.00    -0.217 OA
HETATM   26  O2  UNL     1      -1.004  34.669  36.196  1.00  0.00    -0.217 OA
BRANCH  24  27
HETATM   27  C3  UNL     1      -0.099  36.285  38.050  1.00  0.00     0.086 A
HETATM   28  C4  UNL     1      -0.789  37.301  38.660  1.00  0.00     0.027 A
HETATM   29  C5  UNL     1      -0.183  38.518  38.871  1.00  0.00     0.025 A
HETATM   30  C6  UNL     1       1.106  38.796  38.498  1.00  0.00     0.035 A
HETATM   31 CL1  UNL     1       1.866  40.352  38.775  1.00  0.00    -0.084 Cl
HETATM   32  C7  UNL     1       1.787  37.762  37.884  1.00  0.00     0.049 A
HETATM   33  C8  UNL     1       1.224  36.539  37.658  1.00  0.00     0.057 A
HETATM   34 CL2  UNL     1       2.173  35.250  36.850  1.00  0.00    -0.083 Cl
ENDBRANCH  24  27
ENDBRANCH   3  24
TORSDOF 7
ENDMDL