MODEL 3
REMARK VINA RESULT: -6.806065522      4.283      7.705
REMARK  5 active torsions:
REMARK  status: ('A' for Active; 'I' for Inactive)
REMARK    1  A    between atoms: C7_8  and  N1_9
REMARK       I    between atoms: N1_9  and  C8_11
REMARK    2  A    between atoms: C8_11  and  C9_13
REMARK    3  A    between atoms: C10_14  and  C11_15
REMARK    4  A    between atoms: C15_20  and  N2_21
REMARK    5  A    between atoms: C18_25  and  N3_26
ROOT
HETATM    1  C1  UNL     1       6.389  30.554  31.370  1.00  0.00     0.018 C
HETATM    2  C2  UNL     1       5.344  30.188  31.845  1.00  0.00    -0.078 C
HETATM    3  C3  UNL     1       4.095  29.778  32.402  1.00  0.00     0.020 A
HETATM    4  C4  UNL     1       2.980  29.781  31.593  1.00  0.00     0.044 A
HETATM    5  C5  UNL     1       1.758  29.404  32.102  1.00  0.00     0.037 A
HETATM    6 CL1  UNL     1       0.348  29.410  31.076  1.00  0.00    -0.084 Cl
HETATM    7  C6  UNL     1       1.655  29.017  33.444  1.00  0.00     0.053 A
HETATM    8  C7  UNL     1       2.760  29.009  34.258  1.00  0.00     0.038 A
HETATM    9  C28 UNL     1       3.965  29.385  33.743  1.00  0.00     0.050 A
ENDROOT
BRANCH   8  10
HETATM   10  N1  UNL     1       2.563  28.632  35.639  1.00  0.00    -0.323 N
HETATM   11  C8  UNL     1       3.383  29.236  36.658  1.00  0.00     0.254 C
HETATM   12  O1  UNL     1       4.216  30.040  36.203  1.00  0.00    -0.268 OA
ATOM     13  H1  UNL     1       1.852  27.946  35.889  1.00  0.00     0.169 HD
BRANCH  11  14
HETATM   14  C9  UNL     1       3.218  28.934  38.022  1.00  0.00     0.041 C
HETATM   15  C10 UNL     1       2.385  29.618  38.753  1.00  0.00     0.051 C
HETATM   16  N5  UNL     1       2.062  29.455  40.171  1.00  0.00    -0.384 N
HETATM   17  C20 UNL     1       2.578  28.596  41.191  1.00  0.00     0.162 C
ATOM     18  H5  UNL     1       1.321  30.077  40.496  1.00  0.00     0.160 HD
HETATM   19  C21 UNL     1       2.656  27.225  40.580  1.00  0.00     0.008 A
HETATM   20  C22 UNL     1       1.993  26.269  41.298  1.00  0.00     0.128 A
HETATM   21  C26 UNL     1       3.301  26.895  39.423  1.00  0.00    -0.001 A
HETATM   22  F1  UNL     1       1.350  26.584  42.444  1.00  0.00    -0.205 F
HETATM   23  C23 UNL     1       1.967  24.967  40.869  1.00  0.00     0.088 A
HETATM   24  C24 UNL     1       2.624  24.626  39.692  1.00  0.00     0.158 A
HETATM   25  F2  UNL     1       2.622  23.348  39.225  1.00  0.00    -0.203 F
HETATM   26  C25 UNL     1       3.285  25.603  38.983  1.00  0.00     0.162 A
HETATM   27  F3  UNL     1       3.932  25.265  37.822  1.00  0.00    -0.202 F
HETATM   28  C27 UNL     1       4.085  27.760  38.482  1.00  0.00     0.089 C
BRANCH  15  29
HETATM   29  C11 UNL     1       1.658  30.694  38.129  1.00  0.00    -0.007 A
HETATM   30  C12 UNL     1       0.363  30.462  37.712  1.00  0.00     0.015 A
HETATM   31  C13 UNL     1      -0.466  31.422  37.232  1.00  0.00     0.027 A
HETATM   32  C14 UNL     1       0.005  32.734  37.145  1.00  0.00     0.062 A
HETATM   33 CL2  UNL     1      -1.027  34.021  36.543  1.00  0.00    -0.082 Cl
HETATM   34  C15 UNL     1       1.275  33.023  37.539  1.00  0.00     0.078 A
HETATM   35  C19 UNL     1       2.093  32.004  38.028  1.00  0.00     0.047 A
BRANCH  34  36
HETATM   36  N2  UNL     1       1.819  34.346  37.444  1.00  0.00    -0.263 N
HETATM   37  C16 UNL     1       1.594  35.366  38.277  1.00  0.00     0.144 A
HETATM   38  C17 UNL     1       2.307  36.471  37.868  1.00  0.00     0.096 A
HETATM   39 CL3  UNL     1       2.350  38.047  38.642  1.00  0.00    -0.079 Cl
HETATM   40  C18 UNL     1       2.980  36.069  36.735  1.00  0.00     0.137 A
HETATM   41  N4  UNL     1       2.653  34.793  36.525  1.00  0.00    -0.278 N
ATOM     42  H4  UNL     1       3.006  34.231  35.750  1.00  0.00     0.189 HD
BRANCH  40  43
HETATM   43  N3  UNL     1       3.757  36.811  36.046  1.00  0.00    -0.383 N
ATOM     44  H32 UNL     1       4.660  37.201  36.313  1.00  0.00     0.157 HD
ATOM     45  H31 UNL     1       3.569  37.125  35.093  1.00  0.00     0.157 HD
ENDBRANCH  40  43
ENDBRANCH  34  36
ENDBRANCH  15  29
ENDBRANCH  11  14
ENDBRANCH   8  10
TORSDOF 5
ENDMDL