MODEL 4
REMARK VINA RESULT: -8.639753874      2.476      3.829
REMARK  4 active torsions:
REMARK  status: ('A' for Active; 'I' for Inactive)
REMARK    1  A    between atoms: O1_2  and  C2_3
REMARK    2  A    between atoms: C3_4  and  N1_5
REMARK       I    between atoms: N1_5  and  C4_7
REMARK       I    between atoms: C4_7  and  N2_9
REMARK    3  A    between atoms: N2_9  and  C5_11
REMARK    4  A    between atoms: C18_28  and  C19_29
ROOT
HETATM    1  C2  UNL     1       2.354  33.626  38.118  1.00  0.00     0.110 A
HETATM    2  C3  UNL     1       1.854  34.575  39.042  1.00  0.00     0.070 A
HETATM    3  C11 UNL     1       0.802  34.200  39.843  1.00  0.00     0.033 A
HETATM    4  C12 UNL     1       0.214  32.931  39.781  1.00  0.00     0.020 A
HETATM    5  C13 UNL     1       0.708  32.033  38.888  1.00  0.00     0.049 A
HETATM    6  C14 UNL     1       1.760  32.402  38.080  1.00  0.00     0.063 A
HETATM    7  C15 UNL     1       2.404  31.630  37.008  1.00  0.00     0.185 C
HETATM    8  O3  UNL     1       2.828  32.460  36.122  1.00  0.00    -0.290 OA
HETATM    9  C16 UNL     1       2.717  30.281  36.614  1.00  0.00     0.182 C
HETATM   10 CL2  UNL     1       4.505  30.148  36.444  1.00  0.00    -0.112 Cl
HETATM   11  C17 UNL     1       2.272  29.161  37.436  1.00  0.00     0.032 C
HETATM   12  C18 UNL     1       1.351  28.747  38.313  1.00  0.00     0.048 C
HETATM   13  N3  UNL     1       0.204  29.478  38.773  1.00  0.00    -0.322 N
ATOM     14  H3  UNL     1      -0.599  28.867  38.921  1.00  0.00     0.169 HD
HETATM   15  C25 UNL     1      -0.097  30.811  39.070  1.00  0.00     0.257 C
HETATM   16  O4  UNL     1      -1.230  31.063  39.578  1.00  0.00    -0.267 OA
ENDROOT
BRANCH   2  17
HETATM   17  N1  UNL     1       2.441  35.826  39.085  1.00  0.00    -0.306 N
HETATM   18  C4  UNL     1       2.060  37.050  38.438  1.00  0.00     0.325 C
HETATM   19  O2  UNL     1       1.050  37.095  37.697  1.00  0.00    -0.247 OA
HETATM   20  N2  UNL     1       2.809  38.218  38.622  1.00  0.00    -0.306 N
ATOM     21  H2  UNL     1       3.621  38.129  39.233  1.00  0.00     0.171 HD
ATOM     22  H1  UNL     1       3.276  35.889  39.667  1.00  0.00     0.171 HD
BRANCH  20  23
HETATM   23  C5  UNL     1       2.598  39.483  38.085  1.00  0.00     0.075 A
HETATM   24  C6  UNL     1       2.741  39.806  36.761  1.00  0.00     0.034 A
HETATM   25  C7  UNL     1       2.513  41.105  36.280  1.00  0.00     0.026 A
HETATM   26  C8  UNL     1       2.132  42.105  37.143  1.00  0.00     0.037 A
HETATM   27 CL1  UNL     1       1.857  43.710  36.508  1.00  0.00    -0.084 Cl
HETATM   28  C9  UNL     1       1.985  41.790  38.483  1.00  0.00     0.068 A
HETATM   29  C10 UNL     1       2.206  40.542  38.935  1.00  0.00     0.144 A
HETATM   30  F1  UNL     1       2.063  40.225  40.245  1.00  0.00    -0.204 F
ENDBRANCH  20  23
ENDBRANCH   2  17
BRANCH   1  31
HETATM   31  O1  UNL     1       3.424  33.964  37.288  1.00  0.00    -0.353 OA
HETATM   32  C1  UNL     1       3.236  35.036  36.323  1.00  0.00     0.210 C
ENDBRANCH   1  31
BRANCH  12  33
HETATM   33  C19 UNL     1       1.473  27.388  38.797  1.00  0.00     0.052 A
HETATM   34  C20 UNL     1       2.641  27.021  39.462  1.00  0.00     0.049 A
HETATM   35 CL3  UNL     1       4.036  28.076  39.540  1.00  0.00    -0.083 Cl
HETATM   36  C21 UNL     1       2.791  25.760  40.058  1.00  0.00     0.026 A
HETATM   37  C22 UNL     1       1.789  24.829  40.010  1.00  0.00     0.029 A
HETATM   38  C23 UNL     1       0.630  25.166  39.362  1.00  0.00     0.073 A
HETATM   39 CL4  UNL     1      -0.659  23.987  39.290  1.00  0.00    -0.081 Cl
HETATM   40  C24 UNL     1       0.491  26.427  38.773  1.00  0.00     0.152 A
HETATM   41  F2  UNL     1      -0.717  26.694  38.213  1.00  0.00    -0.203 F
ENDBRANCH  12  33
TORSDOF 4
ENDMDL