MODEL 5
REMARK VINA RESULT: -5.796663055      4.557      7.375
REMARK  5 active torsions:
REMARK  status: ('A' for Active; 'I' for Inactive)
REMARK       I    between atoms: C1_2  and  N1_3
REMARK       I    between atoms: C1_2  and  N7_32
REMARK    1  A    between atoms: C4_7  and  C5_8
REMARK       I    between atoms: C5_8  and  N2_10
REMARK    2  A    between atoms: N2_10  and  C6_12
REMARK    3  A    between atoms: N6_25  and  C13_26
REMARK    4  A    between atoms: N7_32  and  C19_34
REMARK    5  A    between atoms: C23_40  and  C24_41
ROOT
HETATM    1  O1  UNL     1       3.166  33.275  36.130  1.00  0.00    -0.247 OA
HETATM    2  C1  UNL     1       2.486  32.272  35.790  1.00  0.00     0.326 C
HETATM    3  N1  UNL     1       3.198  31.204  35.101  1.00  0.00    -0.293 N
ATOM      4  H1  UNL     1       3.628  31.364  34.191  1.00  0.00     0.172 HD
HETATM    5  C2  UNL     1       3.269  30.054  35.672  1.00  0.00     0.133 A
HETATM    6  C3  UNL     1       2.737  29.703  36.894  1.00  0.00     0.087 A
HETATM    7  C4  UNL     1       3.029  28.372  37.159  1.00  0.00     0.120 A
HETATM    8  N5  UNL     1       3.727  27.959  36.089  1.00  0.00    -0.287 N
ATOM      9  H5  UNL     1       4.097  27.016  35.967  1.00  0.00     0.188 HD
HETATM   10  N6  UNL     1       3.874  28.948  35.206  1.00  0.00    -0.239 N
HETATM   11  N7  UNL     1       1.125  32.128  36.028  1.00  0.00    -0.309 N
ATOM     12  H7  UNL     1       0.717  31.256  35.692  1.00  0.00     0.170 HD
ENDROOT
BRANCH  10  13
HETATM   13  C13 UNL     1       4.575  28.816  33.959  1.00  0.00     0.058 A
HETATM   14  C14 UNL     1       5.846  29.367  33.870  1.00  0.00     0.031 A
HETATM   15  C15 UNL     1       6.585  29.285  32.712  1.00  0.00     0.002 A
HETATM   16  C16 UNL     1       6.037  28.642  31.638  1.00  0.00     0.000 A
HETATM   17  C17 UNL     1       4.775  28.095  31.728  1.00  0.00     0.002 A
HETATM   18  C18 UNL     1       4.039  28.179  32.886  1.00  0.00     0.031 A
ENDBRANCH  10  13
BRANCH   7  19
HETATM   19  C5  UNL     1       2.639  27.619  38.358  1.00  0.00     0.274 C
HETATM   20  O2  UNL     1       1.502  27.752  38.829  1.00  0.00    -0.266 OA
HETATM   21  N2  UNL     1       3.587  26.760  38.937  1.00  0.00    -0.322 N
ATOM     22  H2  UNL     1       4.495  26.727  38.472  1.00  0.00     0.169 HD
BRANCH  21  23
HETATM   23  C6  UNL     1       3.458  25.943  40.064  1.00  0.00     0.036 A
HETATM   24  C7  UNL     1       3.325  24.574  39.894  1.00  0.00     0.032 A
HETATM   25  C8  UNL     1       3.181  23.709  40.961  1.00  0.00     0.034 A
HETATM   26  C9  UNL     1       3.169  24.207  42.234  1.00  0.00     0.059 A
HETATM   27  N3  UNL     1       3.045  23.592  43.442  1.00  0.00    -0.300 N
HETATM   28  C11 UNL     1       3.299  25.559  42.440  1.00  0.00     0.011 A
HETATM   29  N4  UNL     1       3.096  24.528  44.367  1.00  0.00    -0.311 N
ATOM     30  H3  UNL     1       2.932  22.591  43.601  1.00  0.00     0.187 HD
HETATM   31  C10 UNL     1       3.252  25.747  43.784  1.00  0.00     0.120 A
ATOM     32  H4  UNL     1       3.029  24.363  45.371  1.00  0.00     0.186 HD
HETATM   33  C12 UNL     1       3.443  26.412  41.338  1.00  0.00     0.044 A
ENDBRANCH  21  23
ENDBRANCH   7  19
BRANCH  11  34
HETATM   34  C19 UNL     1       0.220  33.004  36.663  1.00  0.00     0.038 A
HETATM   35  C20 UNL     1      -1.113  32.600  36.876  1.00  0.00     0.055 A
HETATM   36  C21 UNL     1      -2.025  33.421  37.484  1.00  0.00     0.058 A
HETATM   37 CL1  UNL     1      -3.692  32.911  37.748  1.00  0.00    -0.082 Cl
HETATM   38  C22 UNL     1      -1.686  34.682  37.919  1.00  0.00     0.069 A
HETATM   39 CL2  UNL     1      -2.865  35.717  38.696  1.00  0.00    -0.082 Cl
HETATM   40  C23 UNL     1      -0.405  35.088  37.723  1.00  0.00     0.055 A
HETATM   41  C25 UNL     1       0.537  34.268  37.106  1.00  0.00     0.046 A
BRANCH  40  42
HETATM   42  C24 UNL     1       0.024  36.430  38.167  1.00  0.00     0.350 C
HETATM   43  F1  UNL     1      -0.703  37.401  37.530  1.00  0.00    -0.183 F
HETATM   44  F2  UNL     1      -0.160  36.479  39.551  1.00  0.00    -0.183 F
HETATM   45 CL3  UNL     1       1.752  36.681  37.754  1.00  0.00    -0.042 Cl
ENDBRANCH  40  42
ENDBRANCH  11  34
TORSDOF 5
ENDMDL