MODEL 1
REMARK VINA RESULT: -9.903441303      0.000      0.000
REMARK  7 active torsions:
REMARK  status: ('A' for Active; 'I' for Inactive)
REMARK    1  A    between atoms: O1_2  and  C2_3
REMARK    2  A    between atoms: C6_8  and  C7_9
REMARK    3  A    between atoms: C7_9  and  C8_10
REMARK    4  A    between atoms: C10_14  and  N2_15
REMARK    5  A    between atoms: N2_15  and  C11_17
REMARK    6  A    between atoms: C14_21  and  N3_22
REMARK    7  A    between atoms: N3_22  and  C15_24
ROOT
HETATM    1  C11 UNL     1       0.522  34.146  36.913  1.00  0.00     0.074 A
HETATM    2  C12 UNL     1       1.836  34.493  36.575  1.00  0.00     0.058 A
HETATM    3  C13 UNL     1       2.451  35.600  37.110  1.00  0.00     0.065 A
HETATM    4 CL1  UNL     1       4.113  36.001  36.660  1.00  0.00    -0.082 Cl
HETATM    5  C14 UNL     1       1.784  36.428  38.015  1.00  0.00     0.094 A
HETATM    6  C22 UNL     1       0.467  36.099  38.366  1.00  0.00     0.087 A
HETATM    7 CL2  UNL     1      -0.393  37.144  39.504  1.00  0.00    -0.080 Cl
HETATM    8  C23 UNL     1      -0.098  34.981  37.802  1.00  0.00     0.085 A
HETATM    9 CL3  UNL     1      -1.740  34.587  38.257  1.00  0.00    -0.080 Cl
ENDROOT
BRANCH   1  10
HETATM   10  N2  UNL     1      -0.036  32.988  36.324  1.00  0.00    -0.190 N
ATOM     11  H2  UNL     1      -0.790  33.103  35.647  1.00  0.00     0.184 HD
BRANCH  10  12
HETATM   12  C10 UNL     1       0.366  31.784  36.605  1.00  0.00     0.685 A
HETATM   13  N1  UNL     1       0.379  31.363  37.863  1.00  0.00    -0.201 N
HETATM   14  C9  UNL     1       0.796  30.101  38.177  1.00  0.00     0.119 A
ATOM     15  H1  UNL     1       0.074  31.991  38.606  1.00  0.00     0.183 HD
HETATM   16  C8  UNL     1       1.217  29.228  37.197  1.00  0.00     0.031 A
HETATM   17  C24 UNL     1       1.188  29.709  35.878  1.00  0.00     0.267 A
HETATM   18  N6  UNL     1       0.768  30.960  35.642  1.00  0.00    -0.155 N
HETATM   19  O2  UNL     1       1.537  29.008  34.887  1.00  0.00    -0.267 OA
ATOM     20  H6  UNL     1       0.757  31.295  34.678  1.00  0.00     0.187 HD
BRANCH  16  21
HETATM   21  C7  UNL     1       1.741  27.876  37.412  1.00  0.00     0.089 C
BRANCH  21  22
HETATM   22  C6  UNL     1       1.643  27.251  38.728  1.00  0.00     0.009 A
HETATM   23  C5  UNL     1       0.452  26.549  39.000  1.00  0.00     0.124 A
HETATM   24  C4  UNL     1       0.225  25.939  40.213  1.00  0.00     0.046 A
HETATM   25  F1  UNL     1      -0.477  26.404  38.011  1.00  0.00    -0.205 F
HETATM   26  C3  UNL     1       1.169  25.996  41.212  1.00  0.00     0.041 A
HETATM   27  C2  UNL     1       2.346  26.669  40.988  1.00  0.00     0.090 A
HETATM   28  C25 UNL     1       2.544  27.278  39.743  1.00  0.00     0.076 A
HETATM   29 CL4  UNL     1       4.082  28.059  39.561  1.00  0.00    -0.081 Cl
BRANCH  27  30
HETATM   30  O1  UNL     1       3.307  26.731  41.998  1.00  0.00    -0.354 OA
HETATM   31  C1  UNL     1       3.555  25.548  42.753  1.00  0.00     0.210 C
ENDBRANCH  27  30
ENDBRANCH  21  22
ENDBRANCH  16  21
ENDBRANCH  10  12
ENDBRANCH   1  10
BRANCH   5  32
HETATM   32  N3  UNL     1       2.371  37.546  38.601  1.00  0.00    -0.188 N
ATOM     33  H3  UNL     1       2.814  37.397  39.507  1.00  0.00     0.184 HD
BRANCH  32  34
HETATM   34  C15 UNL     1       2.421  38.730  38.142  1.00  0.00     0.683 A
HETATM   35  N4  UNL     1       2.289  39.829  38.939  1.00  0.00    -0.189 N
HETATM   36  C16 UNL     1       2.377  40.948  38.192  1.00  0.00     0.079 A
ATOM     37  H4  UNL     1       2.144  39.807  39.949  1.00  0.00     0.184 HD
HETATM   38  C17 UNL     1       2.313  42.301  38.460  1.00  0.00     0.032 A
HETATM   39  C21 UNL     1       2.573  40.547  36.886  1.00  0.00     0.115 A
HETATM   40  C18 UNL     1       2.438  43.234  37.464  1.00  0.00     0.005 A
HETATM   41  C19 UNL     1       2.634  42.852  36.144  1.00  0.00     0.045 A
HETATM   42  C20 UNL     1       2.696  41.498  35.903  1.00  0.00     0.145 A
HETATM   43  F2  UNL     1       2.889  41.060  34.631  1.00  0.00    -0.204 F
HETATM   44  N5  UNL     1       2.594  39.185  36.898  1.00  0.00    -0.186 N
ATOM     45  H5  UNL     1       2.724  38.597  36.075  1.00  0.00     0.184 HD
ENDBRANCH  32  34
ENDBRANCH   5  32
TORSDOF 7
ENDMDL