MODEL 2
REMARK VINA RESULT: -10.576238829      1.725      2.297
REMARK  5 active torsions:
REMARK  status: ('A' for Active; 'I' for Inactive)
REMARK    1  A    between atoms: C4_4  and  N1_5
REMARK       I    between atoms: N1_5  and  C5_7
REMARK    2  A    between atoms: C5_7  and  C6_9
REMARK    3  A    between atoms: C9_12  and  N2_13
REMARK    4  A    between atoms: C11_18  and  N4_19
REMARK    5  A    between atoms: N4_19  and  C12_21
ROOT
HETATM    1  N2  UNL     1       0.038  31.052  38.720  1.00  0.00    -0.337 N
ATOM      2  H2  UNL     1      -0.737  30.658  39.253  1.00  0.00     0.167 HD
HETATM    3  C10 UNL     1       0.895  30.238  38.281  1.00  0.00     0.164 A
HETATM    4  N3  UNL     1       0.759  28.897  38.526  1.00  0.00    -0.173 N
ATOM      5  H3  UNL     1      -0.046  28.585  39.068  1.00  0.00     0.186 HD
HETATM    6  C11 UNL     1       1.625  27.974  38.091  1.00  0.00     0.685 A
HETATM    7  N5  UNL     1       2.688  28.352  37.378  1.00  0.00    -0.175 N
ATOM      8  H5  UNL     1       3.355  27.658  37.040  1.00  0.00     0.185 HD
HETATM    9  C18 UNL     1       2.871  29.657  37.109  1.00  0.00     0.174 A
HETATM   10  N6  UNL     1       4.011  30.038  36.348  1.00  0.00    -0.079 NA
HETATM   11  C19 UNL     1       1.986  30.643  37.547  1.00  0.00     0.202 A
HETATM   12  F2  UNL     1       2.269  31.903  37.220  1.00  0.00    -0.198 F
ENDROOT
BRANCH   1  13
HETATM   13  C9  UNL     1       0.042  32.439  38.554  1.00  0.00     0.072 A
HETATM   14  C8  UNL     1       0.603  33.274  39.510  1.00  0.00     0.034 A
HETATM   15  C7  UNL     1       0.592  34.653  39.342  1.00  0.00     0.019 A
HETATM   16  C6  UNL     1       0.025  35.194  38.222  1.00  0.00     0.035 A
HETATM   17  C21 UNL     1      -0.547  34.382  37.237  1.00  0.00     0.061 A
HETATM   18  C20 UNL     1      -0.533  33.019  37.414  1.00  0.00     0.144 A
HETATM   19  F3  UNL     1      -1.074  32.194  36.491  1.00  0.00    -0.204 F
BRANCH  16  20
HETATM   20  C5  UNL     1       0.014  36.660  38.017  1.00  0.00     0.256 C
HETATM   21  N1  UNL     1       1.191  37.411  38.081  1.00  0.00    -0.321 N
ATOM     22  H1  UNL     1       2.031  36.868  38.274  1.00  0.00     0.169 HD
HETATM   23  O1  UNL     1      -1.099  37.177  37.785  1.00  0.00    -0.267 OA
BRANCH  21  24
HETATM   24  C4  UNL     1       1.408  38.783  37.925  1.00  0.00     0.057 A
HETATM   25  C3  UNL     1       2.203  39.305  36.944  1.00  0.00     0.039 A
HETATM   26  C2  UNL     1       2.399  40.689  36.818  1.00  0.00    -0.042 A
HETATM   27  C1  UNL     1       3.267  41.237  35.745  1.00  0.00     0.049 C
HETATM   28  C24 UNL     1       1.786  41.554  37.689  1.00  0.00     0.018 A
HETATM   29  C23 UNL     1       0.992  41.017  38.666  1.00  0.00     0.046 A
HETATM   30 BR1  UNL     1       2.068  43.427  37.494  1.00  0.00    -0.051 Br
HETATM   31  C22 UNL     1       0.788  39.668  38.807  1.00  0.00     0.062 A
HETATM   32 CL2  UNL     1      -0.255  39.091  40.103  1.00  0.00    -0.082 Cl
ENDBRANCH  21  24
ENDBRANCH  16  20
ENDBRANCH   1  13
BRANCH   6  33
HETATM   33  N4  UNL     1       1.402  26.717  38.380  1.00  0.00    -0.187 N
ATOM     34  H4  UNL     1       0.779  26.163  37.793  1.00  0.00     0.184 HD
BRANCH  33  35
HETATM   35  C12 UNL     1       2.027  26.119  39.510  1.00  0.00     0.109 A
HETATM   36  C13 UNL     1       3.207  25.460  39.306  1.00  0.00     0.145 A
HETATM   37  F1  UNL     1       3.741  25.391  38.078  1.00  0.00    -0.204 F
HETATM   38  C14 UNL     1       3.852  24.865  40.368  1.00  0.00     0.045 A
HETATM   39  C15 UNL     1       3.295  24.941  41.629  1.00  0.00     0.005 A
HETATM   40  C16 UNL     1       2.106  25.605  41.837  1.00  0.00     0.026 A
HETATM   41  C17 UNL     1       1.487  26.189  40.760  1.00  0.00     0.064 A
HETATM   42 CL1  UNL     1      -0.035  27.039  41.018  1.00  0.00    -0.082 Cl
ENDBRANCH  33  35
ENDBRANCH   6  33
TORSDOF 5
ENDMDL