MODEL 3
REMARK VINA RESULT: -11.253785571      5.369     11.158
REMARK  6 active torsions:
REMARK  status: ('A' for Active; 'I' for Inactive)
REMARK    1  A    between atoms: N1_1  and  C1_4
REMARK    2  A    between atoms: C4_9  and  C5_10
REMARK    3  A    between atoms: C7_12  and  N3_13
REMARK       I    between atoms: N3_13  and  C8_15
REMARK    4  A    between atoms: C8_15  and  C9_17
REMARK    5  A    between atoms: C19_32  and  N5_33
REMARK    6  A    between atoms: N5_33  and  C20_35
ROOT
HETATM    1  C1  UNL     1      -1.909  33.586  37.975  1.00  0.00     0.676 A
HETATM    2  N2  UNL     1      -1.651  32.301  37.745  1.00  0.00    -0.201 N
ATOM      3  H2  UNL     1      -2.431  31.646  37.686  1.00  0.00     0.183 HD
HETATM    4  C2  UNL     1      -0.400  31.834  37.585  1.00  0.00     0.121 A
HETATM    5  C3  UNL     1       0.656  32.736  37.669  1.00  0.00     0.023 A
HETATM    6  C4  UNL     1       1.936  32.336  37.506  1.00  0.00     0.005 A
HETATM    7  C18 UNL     1       2.947  33.308  37.586  1.00  0.00     0.103 A
HETATM    8  N4  UNL     1       2.667  34.576  37.813  1.00  0.00    -0.350 N
ATOM      9  H4  UNL     1       3.441  35.240  37.860  1.00  0.00     0.166 HD
HETATM   10  C19 UNL     1       1.381  35.056  37.991  1.00  0.00     0.134 A
HETATM   11  C26 UNL     1       0.384  34.093  37.912  1.00  0.00     0.105 A
HETATM   12  N6  UNL     1      -0.895  34.464  38.056  1.00  0.00    -0.187 N
ATOM     13  H6  UNL     1      -1.107  35.446  38.233  1.00  0.00     0.184 HD
ENDROOT
BRANCH   6  14
HETATM   14  C5  UNL     1       2.314  30.947  37.319  1.00  0.00     0.000 A
HETATM   15  C6  UNL     1       2.683  30.095  38.315  1.00  0.00     0.043 A
HETATM   16  C7  UNL     1       3.108  28.771  38.120  1.00  0.00     0.035 A
HETATM   17  C15 UNL     1       3.134  28.357  36.815  1.00  0.00     0.031 A
HETATM   18  C16 UNL     1       2.765  29.189  35.745  1.00  0.00     0.027 A
HETATM   19  C17 UNL     1       2.359  30.475  36.013  1.00  0.00     0.045 A
HETATM   20 CL1  UNL     1       1.896  31.480  34.652  1.00  0.00    -0.083 Cl
BRANCH  16  21
HETATM   21  N3  UNL     1       3.437  27.974  39.248  1.00  0.00    -0.323 N
HETATM   22  C8  UNL     1       2.595  27.042  39.838  1.00  0.00     0.259 C
HETATM   23  O1  UNL     1       1.446  26.854  39.335  1.00  0.00    -0.267 OA
ATOM     24  H3  UNL     1       4.363  28.096  39.657  1.00  0.00     0.169 HD
BRANCH  22  25
HETATM   25  C9  UNL     1       2.943  26.250  41.005  1.00  0.00     0.071 A
HETATM   26  C10 UNL     1       2.768  26.891  42.240  1.00  0.00     0.023 A
HETATM   27  C11 UNL     1       3.045  26.184  43.377  1.00  0.00     0.043 A
HETATM   28  C12 UNL     1       3.484  24.887  43.351  1.00  0.00     0.119 A
HETATM   29  F1  UNL     1       3.756  24.201  44.508  1.00  0.00    -0.206 F
HETATM   30  C13 UNL     1       3.653  24.270  42.130  1.00  0.00     0.085 A
HETATM   31  C14 UNL     1       3.381  24.956  40.954  1.00  0.00     0.135 A
HETATM   32  F2  UNL     1       3.598  24.286  39.806  1.00  0.00    -0.205 F
ENDBRANCH  22  25
ENDBRANCH  16  21
ENDBRANCH   6  14
BRANCH  10  33
HETATM   33  N5  UNL     1       1.239  36.241  38.196  1.00  0.00    -0.338 N
ATOM     34  H5  UNL     1       0.498  36.230  38.897  1.00  0.00     0.167 HD
BRANCH  33  35
HETATM   35  C20 UNL     1       1.450  37.542  38.073  1.00  0.00     0.072 A
HETATM   36  C21 UNL     1       2.702  38.136  38.304  1.00  0.00     0.034 A
HETATM   37  C22 UNL     1       2.921  39.480  38.169  1.00  0.00     0.021 A
HETATM   38  C23 UNL     1       1.864  40.275  37.791  1.00  0.00     0.014 A
HETATM   39 BR1  UNL     1       2.119  42.159  37.590  1.00  0.00    -0.051 Br
HETATM   40  C24 UNL     1       0.613  39.743  37.552  1.00  0.00     0.063 A
HETATM   41  C25 UNL     1       0.434  38.398  37.696  1.00  0.00     0.144 A
HETATM   42  F3  UNL     1      -0.824  37.918  37.447  1.00  0.00    -0.204 F
ENDBRANCH  33  35
ENDBRANCH  10  33
BRANCH   1  43
HETATM   43  N1  UNL     1      -3.126  34.039  38.128  1.00  0.00    -0.234 N
ATOM     44  H12 UNL     1      -3.897  33.380  38.025  1.00  0.00     0.174 HD
ATOM     45  H11 UNL     1      -3.321  35.016  38.345  1.00  0.00     0.174 HD
ENDBRANCH   1  43
TORSDOF 6
ENDMDL