MODEL 4
REMARK VINA RESULT: -10.523213194      0.784      1.256
REMARK  7 active torsions:
REMARK  status: ('A' for Active; 'I' for Inactive)
REMARK    1  A    between atoms: C6_7  and  C7_8
REMARK       I    between atoms: C7_8  and  N1_10
REMARK    2  A    between atoms: N1_10  and  C8_11
REMARK    3  A    between atoms: C13_20  and  N3_21
REMARK       I    between atoms: N3_21  and  C14_23
REMARK    4  A    between atoms: C14_23  and  C15_25
REMARK    5  A    between atoms: C19_30  and  N4_31
REMARK       I    between atoms: N4_31  and  C20_33
REMARK    6  A    between atoms: C20_33  and  C21_35
REMARK    7  A    between atoms: C27_43  and  O4_44
ROOT
HETATM    1  N3  UNL     1       0.651  30.598  37.755  1.00  0.00    -0.321 N
ATOM      2  H3  UNL     1       0.075  30.634  36.914  1.00  0.00     0.169 HD
HETATM    3  C14 UNL     1       0.721  31.730  38.599  1.00  0.00     0.262 C
HETATM    4  O2  UNL     1       1.476  31.559  39.625  1.00  0.00    -0.267 OA
ENDROOT
BRANCH   3   5
HETATM    5  C15 UNL     1       0.075  33.002  38.456  1.00  0.00     0.106 A
HETATM    6  C16 UNL     1      -1.298  33.033  38.301  1.00  0.00     0.135 A
HETATM    7  F3  UNL     1      -1.985  31.871  38.287  1.00  0.00    -0.205 F
HETATM    8  C17 UNL     1      -2.016  34.177  38.158  1.00  0.00     0.046 A
HETATM    9  C18 UNL     1      -1.338  35.409  38.167  1.00  0.00     0.035 A
HETATM   10  C19 UNL     1       0.019  35.447  38.318  1.00  0.00     0.069 A
HETATM   11  C27 UNL     1       0.703  34.237  38.460  1.00  0.00     0.111 A
BRANCH  10  12
HETATM   12  N4  UNL     1       0.723  36.668  38.347  1.00  0.00    -0.320 N
HETATM   13  C20 UNL     1       0.327  37.931  37.937  1.00  0.00     0.256 C
HETATM   14  O3  UNL     1      -0.788  38.176  37.448  1.00  0.00    -0.267 OA
ATOM     15  H4  UNL     1       1.668  36.614  38.729  1.00  0.00     0.169 HD
BRANCH  13  16
HETATM   16  C21 UNL     1       1.255  39.085  38.074  1.00  0.00     0.036 A
HETATM   17  C22 UNL     1       1.789  39.478  39.270  1.00  0.00     0.059 A
HETATM   18  C23 UNL     1       2.635  40.567  39.367  1.00  0.00     0.118 A
HETATM   19  F4  UNL     1       3.125  40.901  40.578  1.00  0.00    -0.206 F
HETATM   20  C24 UNL     1       2.961  41.284  38.245  1.00  0.00     0.066 A
HETATM   21  C25 UNL     1       2.440  40.911  37.034  1.00  0.00     0.037 A
HETATM   22 CL2  UNL     1       2.821  41.796  35.560  1.00  0.00    -0.084 Cl
HETATM   23  C26 UNL     1       1.611  39.836  36.968  1.00  0.00     0.041 A
ENDBRANCH  13  16
ENDBRANCH  10  12
BRANCH  11  24
HETATM   24  O4  UNL     1       2.051  34.261  38.609  1.00  0.00    -0.357 OA
ATOM     25  H4  UNL     1       2.435  35.006  39.057  1.00  0.00     0.217 HD
ENDBRANCH  11  24
ENDBRANCH   3   5
BRANCH   1  26
HETATM   26  C13 UNL     1       1.382  29.391  38.062  1.00  0.00     0.058 A
HETATM   27  C2  UNL     1       0.758  28.445  38.890  1.00  0.00    -0.033 A
HETATM   28  C1  UNL     1      -0.596  28.709  39.408  1.00  0.00     0.050 C
HETATM   29  C3  UNL     1       1.480  27.311  39.160  1.00  0.00     0.033 A
HETATM   30  C4  UNL     1       2.754  27.098  38.651  1.00  0.00     0.035 A
HETATM   31 CL1  UNL     1       3.658  25.643  39.009  1.00  0.00    -0.084 Cl
HETATM   32  C5  UNL     1       3.323  28.069  37.836  1.00  0.00     0.044 A
HETATM   33  C6  UNL     1       2.625  29.228  37.542  1.00  0.00     0.075 A
BRANCH  33  34
HETATM   34  C7  UNL     1       3.260  30.279  36.698  1.00  0.00     0.329 C
HETATM   35  O1  UNL     1       3.871  31.238  37.297  1.00  0.00    -0.251 OA
HETATM   36  N1  UNL     1       3.173  30.189  35.382  1.00  0.00    -0.363 NA
BRANCH  36  37
HETATM   37  C8  UNL     1       3.308  29.913  34.230  1.00  0.00     0.155 A
HETATM   38  C9  UNL     1       2.233  29.725  33.342  1.00  0.00     0.109 A
HETATM   39  C10 UNL     1       2.394  29.412  32.022  1.00  0.00     0.191 A
HETATM   40  F1  UNL     1       1.326  29.232  31.178  1.00  0.00    -0.186 F
HETATM   41  N2  UNL     1       3.626  29.274  31.535  1.00  0.00    -0.340 N
HETATM   42  C11 UNL     1       4.689  29.439  32.325  1.00  0.00     0.136 A
ATOM     43  H2  UNL     1       3.758  29.041  30.551  1.00  0.00     0.167 HD
HETATM   44  C12 UNL     1       4.575  29.752  33.652  1.00  0.00     0.172 A
HETATM   45  F2  UNL     1       5.689  29.912  34.426  1.00  0.00    -0.201 F
ENDBRANCH  36  37
ENDBRANCH  33  34
ENDBRANCH   1  26
TORSDOF 7
ENDMDL