MODEL 3
REMARK VINA RESULT: -10.678288920      0.676      1.595
REMARK  8 active torsions:
REMARK  status: ('A' for Active; 'I' for Inactive)
REMARK    1  A    between atoms: O1_2  and  C2_3
REMARK    2  A    between atoms: C4_5  and  C5_6
REMARK       I    between atoms: C5_6  and  N1_8
REMARK    3  A    between atoms: N1_8  and  C6_10
REMARK    4  A    between atoms: C13_21  and  O3_22
REMARK    5  A    between atoms: O3_22  and  C14_23
REMARK    6  A    between atoms: C14_23  and  C15_24
REMARK    7  A    between atoms: C20_29  and  O4_30
REMARK    8  A    between atoms: O4_30  and  C21_31
ROOT
HETATM    1  C2  UNL     1     -35.200  18.038  -9.109  1.00  0.00     0.105 A
HETATM    2  C3  UNL     1     -36.222  18.464  -8.290  1.00  0.00     0.057 A
HETATM    3  C4  UNL     1     -37.366  19.050  -8.777  1.00  0.00     0.037 A
HETATM    4  C12 UNL     1     -37.471  19.207 -10.164  1.00  0.00     0.057 A
HETATM    5  C13 UNL     1     -36.473  18.795 -11.004  1.00  0.00     0.105 A
HETATM    6  C20 UNL     1     -35.298  18.191 -10.487  1.00  0.00     0.136 A
ENDROOT
BRANCH   3   7
HETATM    7  C5  UNL     1     -38.446  19.512  -7.903  1.00  0.00     0.256 C
HETATM    8  O2  UNL     1     -38.993  18.651  -7.203  1.00  0.00    -0.267 OA
HETATM    9  N1  UNL     1     -38.815  20.855  -7.882  1.00  0.00    -0.320 N
ATOM     10  H1  UNL     1     -38.291  21.468  -8.506  1.00  0.00     0.169 HD
BRANCH   9  11
HETATM   11  C6  UNL     1     -39.824  21.480  -7.109  1.00  0.00     0.080 A
HETATM   12  C7  UNL     1     -39.599  22.218  -5.985  1.00  0.00     0.078 A
HETATM   13  C8  UNL     1     -40.635  22.815  -5.260  1.00  0.00     0.160 A
HETATM   14  F1  UNL     1     -40.344  23.543  -4.145  1.00  0.00    -0.203 F
HETATM   15  C9  UNL     1     -41.929  22.656  -5.689  1.00  0.00     0.196 A
HETATM   16  F2  UNL     1     -42.905  23.251  -4.957  1.00  0.00    -0.199 F
HETATM   17  C10 UNL     1     -42.183  21.919  -6.814  1.00  0.00     0.198 A
HETATM   18  F3  UNL     1     -43.482  21.793  -7.193  1.00  0.00    -0.199 F
HETATM   19  C11 UNL     1     -41.150  21.342  -7.510  1.00  0.00     0.184 A
HETATM   20  F4  UNL     1     -41.444  20.616  -8.624  1.00  0.00    -0.200 F
ENDBRANCH   9  11
ENDBRANCH   3   7
BRANCH   1  21
HETATM   21  O1  UNL     1     -34.061  17.448  -8.559  1.00  0.00    -0.353 OA
HETATM   22  C1  UNL     1     -34.134  16.107  -8.148  1.00  0.00     0.210 C
ENDBRANCH   1  21
BRANCH   5  23
HETATM   23  O3  UNL     1     -36.597  18.962 -12.358  1.00  0.00    -0.348 OA
BRANCH  23  24
HETATM   24  C14 UNL     1     -37.657  18.917 -13.207  1.00  0.00     0.180 C
BRANCH  24  25
HETATM   25  C15 UNL     1     -38.432  20.162 -13.461  1.00  0.00     0.010 C
HETATM   26  C16 UNL     1     -37.473  21.356 -13.320  1.00  0.00     0.007 C
HETATM   27  C17 UNL     1     -38.328  22.508 -12.857  1.00  0.00     0.000 C
HETATM   28  C18 UNL     1     -39.328  21.850 -11.953  1.00  0.00     0.000 C
HETATM   29  C19 UNL     1     -39.484  20.427 -12.401  1.00  0.00     0.007 C
ENDBRANCH  24  25
ENDBRANCH  23  24
ENDBRANCH   5  23
BRANCH   6  30
HETATM   30  O4  UNL     1     -34.373  17.809 -11.271  1.00  0.00    -0.340 OA
BRANCH  30  31
HETATM   31  C21 UNL     1     -33.404  17.429 -12.066  1.00  0.00     0.133 C
HETATM   32  C22 UNL     1     -31.997  17.827 -11.680  1.00  0.00     0.058 C
HETATM   33  C23 UNL     1     -30.999  16.733 -11.731  1.00  0.00     0.170 C
HETATM   34  O5  UNL     1     -31.140  15.776 -12.680  1.00  0.00    -0.391 OA
HETATM   35  C24 UNL     1     -32.274  15.800 -13.442  1.00  0.00     0.170 C
HETATM   36  C25 UNL     1     -33.431  15.926 -12.444  1.00  0.00     0.058 C
ENDBRANCH  30  31
ENDBRANCH   6  30
TORSDOF 8
ENDMDL