MODEL 2
REMARK VINA RESULT: -9.106547142      1.420      2.621
REMARK  8 active torsions:
REMARK  status: ('A' for Active; 'I' for Inactive)
REMARK    1  A    between atoms: O1_2  and  C2_3
REMARK    2  A    between atoms: C4_5  and  C5_6
REMARK    3  A    between atoms: C5_6  and  C6_7
REMARK    4  A    between atoms: C6_7  and  C7_9
REMARK    5  A    between atoms: C7_9  and  S1_10
REMARK    6  A    between atoms: S1_10  and  C8_11
REMARK    7  A    between atoms: C16_24  and  C17_25
REMARK    8  A    between atoms: C18_28  and  O4_29
ROOT
HETATM    1  C8  UNL     1     -40.416  21.707  -7.795  1.00  0.00     0.046 A
HETATM    2  C9  UNL     1     -41.472  21.481  -6.879  1.00  0.00     0.075 A
HETATM    3 CL1  UNL     1     -41.127  21.566  -5.190  1.00  0.00    -0.081 Cl
HETATM    4  C10 UNL     1     -42.714  21.201  -7.349  1.00  0.00     0.080 A
HETATM    5 CL2  UNL     1     -44.022  20.908  -6.200  1.00  0.00    -0.081 Cl
HETATM    6  C11 UNL     1     -43.024  21.120  -8.683  1.00  0.00     0.080 A
HETATM    7 CL3  UNL     1     -44.632  20.753  -9.216  1.00  0.00    -0.081 Cl
HETATM    8  C12 UNL     1     -41.997  21.338  -9.566  1.00  0.00     0.079 A
HETATM    9 CL4  UNL     1     -42.333  21.254 -11.261  1.00  0.00    -0.081 Cl
HETATM   10  C13 UNL     1     -40.720  21.625  -9.113  1.00  0.00     0.086 A
HETATM   11  C14 UNL     1     -39.690  21.846 -10.087  1.00  0.00     0.102 C
HETATM   12  N1  UNL     1     -38.885  22.046 -10.867  1.00  0.00    -0.191 NA
ENDROOT
BRANCH   1  13
HETATM   13  S1  UNL     1     -38.810  22.123  -7.122  1.00  0.00    -0.119 SA
BRANCH  13  14
HETATM   14  C7  UNL     1     -37.602  20.792  -7.517  1.00  0.00     0.158 C
BRANCH  14  15
HETATM   15  C6  UNL     1     -38.153  19.466  -7.161  1.00  0.00     0.140 C
HETATM   16  O2  UNL     1     -38.358  19.215  -6.003  1.00  0.00    -0.297 OA
BRANCH  15  17
HETATM   17  C5  UNL     1     -38.434  18.471  -8.199  1.00  0.00     0.117 C
BRANCH  17  18
HETATM   18  C4  UNL     1     -37.425  18.418  -9.263  1.00  0.00    -0.047 A
HETATM   19  C3  UNL     1     -36.141  18.009  -8.886  1.00  0.00     0.047 A
HETATM   20  C2  UNL     1     -35.126  17.899  -9.797  1.00  0.00     0.103 A
HETATM   21  C18 UNL     1     -35.371  18.198 -11.139  1.00  0.00     0.116 A
HETATM   22  C16 UNL     1     -36.608  18.604 -11.553  1.00  0.00     0.066 A
HETATM   23  C15 UNL     1     -37.628  18.704 -10.580  1.00  0.00     0.027 A
BRANCH  20  24
HETATM   24  O1  UNL     1     -33.846  17.489  -9.412  1.00  0.00    -0.353 OA
HETATM   25  C1  UNL     1     -33.635  16.168  -9.008  1.00  0.00     0.210 C
ENDBRANCH  20  24
BRANCH  21  26
HETATM   26  O4  UNL     1     -34.329  18.074 -12.050  1.00  0.00    -0.352 OA
HETATM   27  C19 UNL     1     -33.973  16.787 -12.553  1.00  0.00     0.210 C
ENDBRANCH  21  26
BRANCH  22  28
HETATM   28  C17 UNL     1     -36.930  18.954 -12.920  1.00  0.00     0.267 C
HETATM   29  N2  UNL     1     -37.436  20.137 -13.420  1.00  0.00    -0.057 NA
HETATM   30  O3  UNL     1     -36.717  18.033 -13.808  1.00  0.00    -0.271 OA
ENDBRANCH  22  28
ENDBRANCH  17  18
ENDBRANCH  15  17
ENDBRANCH  14  15
ENDBRANCH  13  14
ENDBRANCH   1  13
TORSDOF 8
ENDMDL