MODEL 4
REMARK VINA RESULT: -8.581650669      2.308      3.309
REMARK  9 active torsions:
REMARK  status: ('A' for Active; 'I' for Inactive)
REMARK    1  A    between atoms: C2_2  and  C3_3
REMARK    2  A    between atoms: C3_3  and  C4_4
REMARK    3  A    between atoms: C4_4  and  C5_5
REMARK    4  A    between atoms: C5_5  and  N2_10
REMARK    5  A    between atoms: N1_6  and  O1_8
REMARK    6  A    between atoms: C10_18  and  S1_19
REMARK    7  A    between atoms: S1_19  and  C11_20
REMARK    8  A    between atoms: C11_20  and  C12_21
REMARK       I    between atoms: C12_21  and  N3_23
REMARK    9  A    between atoms: N3_23  and  C14_25
ROOT
HETATM    1  C4  UNL     1     -42.499  21.144  -7.622  1.00  0.00     0.040 C
HETATM    2  C7  UNL     1     -42.120  19.813  -7.072  1.00  0.00     0.025 C
HETATM    3  C8  UNL     1     -40.719  19.625  -6.607  1.00  0.00     0.081 C
HETATM    4  C9  UNL     1     -40.050  20.859  -6.191  1.00  0.00     0.140 C
HETATM    5  O2  UNL     1     -39.420  20.949  -5.143  1.00  0.00    -0.297 OA
HETATM    6  C10 UNL     1     -40.155  22.029  -7.089  1.00  0.00     0.118 C
HETATM    7  C20 UNL     1     -41.412  22.140  -7.846  1.00  0.00     0.040 C
ENDROOT
BRANCH   6   8
HETATM    8  S1  UNL     1     -38.754  21.866  -8.263  1.00  0.00    -0.147 SA
BRANCH   8   9
HETATM    9  C11 UNL     1     -39.087  20.766  -9.617  1.00  0.00     0.177 C
BRANCH   9  10
HETATM   10  C12 UNL     1     -37.974  19.866  -9.924  1.00  0.00     0.233 C
HETATM   11  O3  UNL     1     -37.454  20.041 -11.095  1.00  0.00    -0.272 OA
HETATM   12  N3  UNL     1     -37.392  18.864  -9.161  1.00  0.00    -0.320 N
HETATM   13  C13 UNL     1     -37.988  18.373  -7.950  1.00  0.00     0.159 C
BRANCH  12  14
HETATM   14  C14 UNL     1     -36.169  18.221  -9.564  1.00  0.00     0.058 A
HETATM   15  C15 UNL     1     -34.956  18.596  -9.096  1.00  0.00     0.033 A
HETATM   16  C16 UNL     1     -33.773  17.976  -9.487  1.00  0.00     0.026 A
HETATM   17  C17 UNL     1     -33.840  16.941 -10.383  1.00  0.00     0.035 A
HETATM   18 CL1  UNL     1     -32.413  16.070 -10.956  1.00  0.00    -0.084 Cl
HETATM   19  C18 UNL     1     -35.073  16.532 -10.881  1.00  0.00     0.050 A
HETATM   20  C19 UNL     1     -36.215  17.161 -10.479  1.00  0.00     0.062 A
HETATM   21 CL2  UNL     1     -37.799  16.702 -11.065  1.00  0.00    -0.082 Cl
ENDBRANCH  12  14
ENDBRANCH   9  10
ENDBRANCH   8   9
ENDBRANCH   6   8
BRANCH   1  22
HETATM   22  C3  UNL     1     -43.576  21.749  -6.710  1.00  0.00     0.044 C
BRANCH  22  23
HETATM   23  C2  UNL     1     -43.766  21.076  -5.439  1.00  0.00    -0.036 C
HETATM   24  C1  UNL     1     -44.931  21.155  -4.813  1.00  0.00     0.007 C
ENDBRANCH  22  23
ENDBRANCH   1  22
BRANCH   1  25
HETATM   25  C5  UNL     1     -43.158  20.974  -8.948  1.00  0.00     0.290 C
HETATM   26  N1  UNL     1     -42.570  21.533  -9.940  1.00  0.00    -0.244 N
ATOM     27  H1  UNL     1     -41.711  22.038  -9.723  1.00  0.00     0.195 HD
BRANCH  26  28
HETATM   28  O1  UNL     1     -42.944  21.537 -11.235  1.00  0.00    -0.288 OA
ATOM     29  H1  UNL     1     -43.735  21.176 -11.618  1.00  0.00     0.244 HD
ENDBRANCH  26  28
BRANCH  25  30
HETATM   30  N2  UNL     1     -44.345  20.269  -9.218  1.00  0.00     0.296 N
HETATM   31  C6  UNL     1     -44.248  19.405 -10.373  1.00  0.00     0.375 C
HETATM   32  F1  UNL     1     -45.373  21.140  -9.514  1.00  0.00     0.020 F
HETATM   33  F2  UNL     1     -44.738  19.465  -8.193  1.00  0.00     0.020 F
ENDBRANCH  25  30
ENDBRANCH   1  25
TORSDOF 9
ENDMDL