MODEL 5
REMARK VINA RESULT: -8.503177993      2.956      6.946
REMARK  9 active torsions:
REMARK  status: ('A' for Active; 'I' for Inactive)
REMARK    1  A    between atoms: C7_11  and  C8_12
REMARK    2  A    between atoms: C8_12  and  C9_13
REMARK    3  A    between atoms: C8_12  and  O3_16
REMARK    4  A    between atoms: C8_12  and  C15_22
REMARK    5  A    between atoms: C9_13  and  O2_14
REMARK    6  A    between atoms: O3_16  and  C10_17
REMARK    7  A    between atoms: C10_17  and  C11_18
REMARK    8  A    between atoms: C11_18  and  C12_19
REMARK    9  A    between atoms: C20_28  and  N1_29
ROOT
HETATM    1  C8  UNL     1     -40.163  21.117  -6.408  1.00  0.00     0.139 C
ENDROOT
BRANCH   1   2
HETATM    2  C7  UNL     1     -39.324  20.600  -7.512  1.00  0.00     0.020 A
HETATM    3  C2  UNL     1     -39.390  20.977  -8.904  1.00  0.00    -0.010 A
HETATM    4  C1  UNL     1     -40.288  21.798  -9.341  1.00  0.00     0.026 C
HETATM    5  C3  UNL     1     -38.497  20.386  -9.918  1.00  0.00     0.070 A
HETATM    6 CL1  UNL     1     -38.593  20.870 -11.621  1.00  0.00    -0.082 Cl
HETATM    7  C4  UNL     1     -37.614  19.496  -9.586  1.00  0.00     0.108 A
HETATM    8 CL2  UNL     1     -36.560  18.811 -10.834  1.00  0.00    -0.078 Cl
HETATM    9  C5  UNL     1     -37.513  19.076  -8.203  1.00  0.00     0.217 A
HETATM   10  O1  UNL     1     -36.654  18.212  -7.906  1.00  0.00    -0.285 OA
HETATM   11  C6  UNL     1     -38.401  19.664  -7.198  1.00  0.00     0.096 A
HETATM   12 CL3  UNL     1     -38.301  18.924  -5.617  1.00  0.00    -0.079 Cl
ENDBRANCH   1   2
BRANCH   1  13
HETATM   13  C9  UNL     1     -41.431  20.388  -6.388  1.00  0.00     0.212 C
BRANCH  13  14
HETATM   14  O2  UNL     1     -41.433  19.024  -6.395  1.00  0.00    -0.397 OA
ATOM     15  H2  UNL     1     -42.172  18.553  -6.762  1.00  0.00     0.209 HD
ENDBRANCH  13  14
ENDBRANCH   1  13
BRANCH   1  16
HETATM   16  O3  UNL     1     -39.334  20.836  -5.221  1.00  0.00    -0.368 OA
BRANCH  16  17
HETATM   17  C10 UNL     1     -39.908  21.299  -4.105  1.00  0.00     0.170 C
BRANCH  17  18
HETATM   18  C11 UNL     1     -39.178  21.147  -2.831  1.00  0.00     0.030 C
BRANCH  18  19
HETATM   19  C12 UNL     1     -38.368  22.219  -2.221  1.00  0.00    -0.021 C
HETATM   20  C13 UNL     1     -38.886  22.409  -0.746  1.00  0.00     0.009 C
HETATM   21  C14 UNL     1     -38.721  23.608  -2.823  1.00  0.00     0.009 C
ENDBRANCH  18  19
ENDBRANCH  17  18
ENDBRANCH  16  17
ENDBRANCH   1  16
BRANCH   1  22
HETATM   22  C15 UNL     1     -40.216  22.606  -6.309  1.00  0.00    -0.014 A
HETATM   23  C16 UNL     1     -41.440  23.218  -6.155  1.00  0.00     0.019 A
HETATM   24  C17 UNL     1     -41.574  24.585  -6.082  1.00  0.00    -0.037 A
HETATM   25  C18 UNL     1     -42.874  25.280  -5.916  1.00  0.00     0.050 C
HETATM   26  C19 UNL     1     -40.440  25.362  -6.166  1.00  0.00     0.073 A
HETATM   27 CL4  UNL     1     -40.592  27.126  -6.075  1.00  0.00    -0.081 Cl
HETATM   28  C20 UNL     1     -39.191  24.800  -6.321  1.00  0.00     0.125 A
HETATM   29  C21 UNL     1     -39.110  23.400  -6.389  1.00  0.00     0.048 A
BRANCH  28  30
HETATM   30  N1  UNL     1     -38.028  25.607  -6.407  1.00  0.00    -0.114 N
HETATM   31  O4  UNL     1     -37.720  26.095  -7.506  1.00  0.00    -0.532 OA
HETATM   32  O5  UNL     1     -37.288  25.815  -5.275  1.00  0.00    -0.532 OA
ENDBRANCH  28  30
ENDBRANCH   1  22
TORSDOF 9
ENDMDL