MODEL 4
REMARK VINA RESULT: -8.103091942      1.537      1.680
REMARK  9 active torsions:
REMARK  status: ('A' for Active; 'I' for Inactive)
REMARK    1  A    between atoms: C3_3  and  C4_4
REMARK    2  A    between atoms: C9_11  and  S1_12
REMARK    3  A    between atoms: S1_12  and  N1_13
REMARK    4  A    between atoms: S1_12  and  N2_17
REMARK    5  A    between atoms: N2_17  and  C11_19
REMARK    6  A    between atoms: C11_19  and  C12_20
REMARK    7  A    between atoms: C14_22  and  C15_23
REMARK    8  A    between atoms: C15_23  and  S2_26
REMARK    9  A    between atoms: S2_26  and  C16_27
ROOT
HETATM    1  C1  UNL     1     -43.029  18.852  -6.836  1.00  0.00     0.012 C
HETATM    2  C2  UNL     1     -42.978  20.033  -7.082  1.00  0.00    -0.113 C
HETATM    3  C3  UNL     1     -42.861  21.506  -7.392  1.00  0.00     0.134 C
ENDROOT
BRANCH   3   4
HETATM    4  C4  UNL     1     -41.968  21.627  -8.544  1.00  0.00    -0.004 A
HETATM    5  C5  UNL     1     -42.520  21.359  -9.804  1.00  0.00     0.044 A
HETATM    6 CL1  UNL     1     -44.261  21.101  -9.941  1.00  0.00    -0.084 Cl
HETATM    7  C6  UNL     1     -41.725  21.317 -10.929  1.00  0.00     0.048 A
HETATM    8  C7  UNL     1     -40.373  21.544 -10.798  1.00  0.00     0.037 A
HETATM    9 CL2  UNL     1     -39.321  21.522 -12.221  1.00  0.00    -0.084 Cl
HETATM   10  C8  UNL     1     -39.854  21.809  -9.550  1.00  0.00     0.048 A
HETATM   11  C9  UNL     1     -40.648  21.857  -8.395  1.00  0.00     0.069 A
BRANCH  11  12
HETATM   12  S1  UNL     1     -39.954  22.294  -6.885  1.00  0.00     0.139 S
HETATM   13  O1  UNL     1     -38.656  23.097  -7.087  1.00  0.00    -0.223 OA
BRANCH  12  14
HETATM   14  N1  UNL     1     -40.914  23.318  -6.180  1.00  0.00    -0.341 N
ATOM     15  H12 UNL     1     -40.803  24.331  -6.194  1.00  0.00     0.167 HD
ATOM     16  H11 UNL     1     -41.655  22.793  -5.715  1.00  0.00     0.167 HD
ENDBRANCH  12  14
BRANCH  12  17
HETATM   17  N2  UNL     1     -39.691  20.977  -5.885  1.00  0.00    -0.301 N
HETATM   18  C10 UNL     1     -39.502  21.153  -4.504  1.00  0.00     0.167 C
BRANCH  17  19
HETATM   19  C11 UNL     1     -39.546  19.693  -6.421  1.00  0.00     0.140 C
BRANCH  19  20
HETATM   20  C12 UNL     1     -38.413  19.525  -7.370  1.00  0.00     0.117 A
HETATM   21  C13 UNL     1     -38.416  18.659  -8.484  1.00  0.00     0.072 A
HETATM   22  C14 UNL     1     -37.223  18.748  -9.122  1.00  0.00     0.084 A
HETATM   23  N3  UNL     1     -36.519  19.669  -8.385  1.00  0.00    -0.261 N
HETATM   24  O2  UNL     1     -37.241  20.086  -7.394  1.00  0.00    -0.236 OA
ATOM     25  H3  UNL     1     -35.568  19.978  -8.589  1.00  0.00     0.194 HD
BRANCH  22  26
HETATM   26  C15 UNL     1     -36.656  18.099 -10.336  1.00  0.00     0.205 C
HETATM   27 CL3  UNL     1     -37.691  16.685 -10.781  1.00  0.00    -0.082 Cl
HETATM   28 CL4  UNL     1     -36.831  19.270 -11.716  1.00  0.00    -0.082 Cl
BRANCH  26  29
HETATM   29  S2  UNL     1     -34.974  17.541 -10.202  1.00  0.00    -0.121 SA
BRANCH  29  30
HETATM   30  C16 UNL     1     -33.971  17.712 -11.653  1.00  0.00     0.073 C
HETATM   31  C17 UNL     1     -34.046  16.616 -12.665  1.00  0.00     0.016 C
ENDBRANCH  29  30
ENDBRANCH  26  29
ENDBRANCH  22  26
ENDBRANCH  19  20
ENDBRANCH  17  19
ENDBRANCH  12  17
ENDBRANCH  11  12
ENDBRANCH   3   4
TORSDOF 9
ENDMDL