MODEL 3
REMARK VINA RESULT: -8.850084119      3.556      6.501
REMARK  8 active torsions:
REMARK  status: ('A' for Active; 'I' for Inactive)
REMARK    1  A    between atoms: O1_2  and  C2_3
REMARK    2  A    between atoms: C4_5  and  O2_6
REMARK    3  A    between atoms: C6_8  and  C7_9
REMARK    4  A    between atoms: C7_9  and  N1_10
REMARK       I    between atoms: N1_10  and  C8_12
REMARK    5  A    between atoms: C8_12  and  C9_14
REMARK    6  A    between atoms: C10_17  and  C11_18
REMARK    7  A    between atoms: C11_18  and  C12_20
REMARK    8  A    between atoms: C13_21  and  C14_22
ROOT
HETATM    1  C2  UNL     1     -43.042  23.659  -5.517  1.00  0.00     0.093 A
HETATM    2  C3  UNL     1     -41.675  23.575  -5.547  1.00  0.00     0.076 A
HETATM    3  C4  UNL     1     -41.060  22.354  -5.730  1.00  0.00     0.079 A
HETATM    4  C6  UNL     1     -41.773  21.190  -5.885  1.00  0.00     0.009 A
HETATM    5  C10 UNL     1     -43.158  21.290  -5.854  1.00  0.00     0.049 A
HETATM    6  C19 UNL     1     -43.780  22.526  -5.669  1.00  0.00     0.082 A
HETATM    7 CL4  UNL     1     -45.539  22.634  -5.632  1.00  0.00    -0.080 Cl
ENDROOT
BRANCH   5   8
HETATM    8  C11 UNL     1     -43.999  20.150  -6.025  1.00  0.00     0.184 C
HETATM    9  O4  UNL     1     -44.496  19.617  -4.998  1.00  0.00    -0.287 OA
BRANCH   8  10
HETATM   10  C12 UNL     1     -44.289  19.590  -7.328  1.00  0.00     0.057 C
HETATM   11  C13 UNL     1     -44.299  20.271  -8.440  1.00  0.00     0.023 C
BRANCH  11  12
HETATM   12  C14 UNL     1     -44.604  19.625  -9.710  1.00  0.00     0.007 A
HETATM   13  C15 UNL     1     -44.649  18.289 -10.011  1.00  0.00     0.027 A
HETATM   14  C16 UNL     1     -44.957  17.946 -11.269  1.00  0.00    -0.032 A
HETATM   15  C17 UNL     1     -45.043  16.496 -11.736  1.00  0.00     0.050 C
HETATM   16  C18 UNL     1     -45.201  18.962 -12.157  1.00  0.00     0.081 A
HETATM   17 CL3  UNL     1     -45.630  18.810 -13.874  1.00  0.00    -0.076 Cl
HETATM   18  S1  UNL     1     -44.996  20.361 -11.211  1.00  0.00    -0.078 SA
ENDBRANCH  11  12
ENDBRANCH   8  10
ENDBRANCH   5   8
BRANCH   4  19
HETATM   19  C7  UNL     1     -41.142  19.888  -6.155  1.00  0.00     0.165 C
BRANCH  19  20
HETATM   20  N1  UNL     1     -39.935  19.891  -6.897  1.00  0.00    -0.354 N
HETATM   21  C8  UNL     1     -38.793  19.080  -6.758  1.00  0.00     0.251 C
HETATM   22  O3  UNL     1     -38.764  18.212  -5.861  1.00  0.00    -0.271 OA
ATOM     23  H1  UNL     1     -39.886  20.585  -7.642  1.00  0.00     0.162 HD
BRANCH  21  24
HETATM   24  C9  UNL     1     -37.599  19.209  -7.641  1.00  0.00     0.269 C
HETATM   25 CL1  UNL     1     -37.875  18.418  -9.211  1.00  0.00    -0.098 Cl
HETATM   26 CL2  UNL     1     -37.213  20.911  -7.830  1.00  0.00    -0.098 Cl
ENDBRANCH  21  24
ENDBRANCH  19  20
ENDBRANCH   4  19
BRANCH   3  27
HETATM   27  O2  UNL     1     -39.682  22.300  -5.757  1.00  0.00    -0.355 OA
HETATM   28  C5  UNL     1     -38.864  23.445  -5.901  1.00  0.00     0.210 C
ENDBRANCH   3  27
BRANCH   1  29
HETATM   29  O1  UNL     1     -43.715  24.872  -5.335  1.00  0.00    -0.354 OA
HETATM   30  C1  UNL     1     -43.476  25.709  -4.231  1.00  0.00     0.210 C
ENDBRANCH   1  29
TORSDOF 8
ENDMDL