MODEL 5
REMARK VINA RESULT: -10.749650986      4.029     10.501
REMARK  10 active torsions:
REMARK  status: ('A' for Active; 'I' for Inactive)
REMARK    1  A    between atoms: C2_2  and  C3_3
REMARK    2  A    between atoms: C2_2  and  N1_8
REMARK    3  A    between atoms: C3_3  and  C4_4
REMARK    4  A    between atoms: C9_15  and  C10_16
REMARK    5  A    between atoms: C13_19  and  O1_20
REMARK    6  A    between atoms: O1_20  and  C14_21
REMARK    7  A    between atoms: C14_21  and  C15_22
REMARK    8  A    between atoms: N4_25  and  C18_26
REMARK    9  A    between atoms: C18_26  and  N5_28
REMARK   10  A    between atoms: C21_33  and  C22_34
ROOT
HETATM    1  C10 UNL     1     -37.197  18.885  -7.814  1.00  0.00     0.018 A
HETATM    2  C11 UNL     1     -37.885  18.579  -6.664  1.00  0.00     0.018 A
HETATM    3  C12 UNL     1     -38.850  19.447  -6.200  1.00  0.00     0.038 A
HETATM    4  C13 UNL     1     -39.137  20.608  -6.859  1.00  0.00     0.077 A
HETATM    5  C21 UNL     1     -38.441  20.920  -8.024  1.00  0.00     0.009 A
HETATM    6  C24 UNL     1     -37.479  20.063  -8.497  1.00  0.00     0.028 A
ENDROOT
BRANCH   1   7
HETATM    7  C9  UNL     1     -36.169  17.969  -8.316  1.00  0.00     0.176 A
HETATM    8  N3  UNL     1     -35.654  16.924  -7.650  1.00  0.00    -0.276 N
HETATM    9  N2  UNL     1     -34.744  16.309  -8.399  1.00  0.00    -0.263 N
ATOM     10  H3  UNL     1     -35.922  16.643  -6.706  1.00  0.00     0.189 HD
HETATM   11  C8  UNL     1     -34.698  16.996  -9.565  1.00  0.00     0.241 A
ATOM     12  H2  UNL     1     -34.194  15.488  -8.148  1.00  0.00     0.190 HD
HETATM   13  N1  UNL     1     -33.912  16.671 -10.537  1.00  0.00    -0.350 N
HETATM   14  O2  UNL     1     -35.564  17.981  -9.478  1.00  0.00    -0.259 OA
ATOM     15  H1  UNL     1     -33.299  15.863 -10.427  1.00  0.00     0.163 HD
BRANCH  13  16
HETATM   16  C2  UNL     1     -33.872  17.410 -11.770  1.00  0.00     0.081 C
HETATM   17  C1  UNL     1     -34.988  16.967 -12.695  1.00  0.00     0.032 C
BRANCH  16  18
HETATM   18  C3  UNL     1     -32.532  17.341 -12.397  1.00  0.00     0.029 C
BRANCH  18  19
HETATM   19  C4  UNL     1     -31.596  16.480 -11.601  1.00  0.00    -0.013 C
HETATM   20  C5  UNL     1     -31.312  15.189 -12.391  1.00  0.00     0.005 C
HETATM   21  C6  UNL     1     -30.114  15.886 -12.982  1.00  0.00     0.001 C
HETATM   22  C7  UNL     1     -30.128  16.782 -11.750  1.00  0.00     0.005 C
ENDBRANCH  18  19
ENDBRANCH  16  18
ENDBRANCH  13  16
ENDBRANCH   1   7
BRANCH   5  23
HETATM   23  C22 UNL     1     -38.757  22.199  -8.753  1.00  0.00     0.202 C
HETATM   24  C23 UNL     1     -38.757  21.911 -10.237  1.00  0.00     0.050 C
HETATM   25  F2  UNL     1     -37.896  23.195  -8.410  1.00  0.00    -0.245 F
ENDBRANCH   5  23
BRANCH   4  26
HETATM   26  O1  UNL     1     -40.101  21.514  -6.429  1.00  0.00    -0.350 OA
BRANCH  26  27
HETATM   27  C14 UNL     1     -41.275  21.143  -5.770  1.00  0.00     0.180 C
BRANCH  27  28
HETATM   28  C15 UNL     1     -42.298  20.751  -6.835  1.00  0.00     0.013 C
HETATM   29  C16 UNL     1     -43.570  21.515  -6.627  1.00  0.00     0.027 C
HETATM   30  C17 UNL     1     -44.488  21.308  -7.814  1.00  0.00     0.126 C
HETATM   31  N4  UNL     1     -44.305  19.951  -8.301  1.00  0.00    -0.356 N
HETATM   32  C19 UNL     1     -43.893  18.908  -7.406  1.00  0.00     0.126 C
HETATM   33  C20 UNL     1     -42.547  19.243  -6.751  1.00  0.00     0.027 C
BRANCH  31  34
HETATM   34  C18 UNL     1     -44.537  19.662  -9.672  1.00  0.00     0.201 C
HETATM   35 CL1  UNL     1     -44.714  17.994 -10.241  1.00  0.00    -0.043 Cl
BRANCH  34  36
HETATM   36  N5  UNL     1     -44.631  20.577 -10.575  1.00  0.00    -0.198 N
HETATM   37  F1  UNL     1     -45.799  21.126 -10.929  1.00  0.00    -0.099 F
ATOM     38  H5  UNL     1     -43.780  20.895 -11.039  1.00  0.00     0.202 HD
ENDBRANCH  34  36
ENDBRANCH  31  34
ENDBRANCH  27  28
ENDBRANCH  26  27
ENDBRANCH   4  26
TORSDOF 10
ENDMDL