MODEL 1
REMARK VINA RESULT: -8.944960574      0.000      0.000
REMARK  10 active torsions:
REMARK  status: ('A' for Active; 'I' for Inactive)
REMARK    1  A    between atoms: C2_2  and  O1_3
REMARK    2  A    between atoms: O1_3  and  C3_4
REMARK    3  A    between atoms: C3_4  and  C4_6
REMARK    4  A    between atoms: C4_6  and  C5_7
REMARK    5  A    between atoms: C6_8  and  C7_9
REMARK    6  A    between atoms: C7_9  and  S1_10
REMARK    7  A    between atoms: S1_10  and  C8_11
REMARK    8  A    between atoms: C8_11  and  C9_12
REMARK       I    between atoms: C9_12  and  N1_14
REMARK    9  A    between atoms: N1_14  and  C10_16
REMARK   10  A    between atoms: C19_26  and  C20_27
ROOT
HETATM    1  C5  UNL     1     -38.708  20.962  -7.935  1.00  0.00    -0.013 A
HETATM    2  C6  UNL     1     -38.645  19.583  -7.698  1.00  0.00    -0.024 A
HETATM    3  C17 UNL     1     -38.833  19.413  -6.370  1.00  0.00     0.099 A
HETATM    4  N2  UNL     1     -39.018  20.607  -5.725  1.00  0.00    -0.360 N
HETATM    5  C18 UNL     1     -39.242  20.734  -4.283  1.00  0.00     0.155 C
HETATM    6  C19 UNL     1     -38.945  21.542  -6.676  1.00  0.00     0.073 A
ENDROOT
BRANCH   2   7
HETATM    7  C7  UNL     1     -38.304  18.496  -8.733  1.00  0.00     0.119 C
BRANCH   7   8
HETATM    8  S1  UNL     1     -36.585  18.509  -8.972  1.00  0.00    -0.131 SA
BRANCH   8   9
HETATM    9  C8  UNL     1     -35.294  17.707  -8.287  1.00  0.00     0.119 C
BRANCH   9  10
HETATM   10  C9  UNL     1     -34.182  17.137  -9.074  1.00  0.00     0.247 C
HETATM   11  O3  UNL     1     -33.427  16.273  -8.633  1.00  0.00    -0.268 OA
HETATM   12  N1  UNL     1     -33.944  17.578 -10.437  1.00  0.00    -0.353 N
ATOM     13  H1  UNL     1     -34.495  18.340 -10.832  1.00  0.00     0.163 HD
BRANCH  12  14
HETATM   14  C10 UNL     1     -32.933  16.939 -11.224  1.00  0.00     0.084 C
HETATM   15  C11 UNL     1     -31.751  17.800 -11.615  1.00  0.00     0.025 C
HETATM   16  C12 UNL     1     -30.475  17.016 -11.423  1.00  0.00     0.002 C
HETATM   17  C13 UNL     1     -30.208  15.987 -12.460  1.00  0.00     0.000 C
HETATM   18  C14 UNL     1     -31.348  15.066 -12.767  1.00  0.00     0.000 C
HETATM   19  C15 UNL     1     -32.484  15.810 -13.416  1.00  0.00     0.002 C
HETATM   20  C16 UNL     1     -33.477  16.129 -12.316  1.00  0.00     0.025 C
ENDBRANCH  12  14
ENDBRANCH   9  10
ENDBRANCH   8   9
ENDBRANCH   7   8
ENDBRANCH   2   7
BRANCH   1  21
HETATM   21  C4  UNL     1     -38.658  21.563  -9.244  1.00  0.00     0.152 C
BRANCH  21  22
HETATM   22  C3  UNL     1     -39.828  21.596 -10.123  1.00  0.00     0.263 C
HETATM   23  O2  UNL     1     -41.026  21.482  -9.872  1.00  0.00    -0.265 OA
BRANCH  22  24
HETATM   24  O1  UNL     1     -39.524  21.785 -11.492  1.00  0.00    -0.322 OA
BRANCH  24  25
HETATM   25  C2  UNL     1     -38.376  22.300 -12.018  1.00  0.00     0.174 C
HETATM   26  C1  UNL     1     -38.010  21.947 -13.437  1.00  0.00     0.034 C
ENDBRANCH  24  25
ENDBRANCH  22  24
ENDBRANCH  21  22
ENDBRANCH   1  21
BRANCH   6  27
HETATM   27  C20 UNL     1     -39.196  22.991  -6.487  1.00  0.00     0.231 C
HETATM   28 CL1  UNL     1     -38.066  23.995  -7.372  1.00  0.00    -0.077 Cl
HETATM   29 CL2  UNL     1     -39.101  23.494  -4.783  1.00  0.00    -0.077 Cl
HETATM   30 CL3  UNL     1     -40.860  23.383  -7.072  1.00  0.00    -0.077 Cl
ENDBRANCH   6  27
TORSDOF 10
ENDMDL