MODEL 1
REMARK VINA RESULT: -9.898493317      0.000      0.000
REMARK  9 active torsions:
REMARK  status: ('A' for Active; 'I' for Inactive)
REMARK    1  A    between atoms: C2_2  and  C3_3
REMARK    2  A    between atoms: C4_7  and  C5_8
REMARK    3  A    between atoms: C5_8  and  N3_9
REMARK    4  A    between atoms: N3_9  and  C6_10
REMARK    5  A    between atoms: N3_9  and  C9_13
REMARK    6  A    between atoms: C12_16  and  C13_17
REMARK    7  A    between atoms: C13_17  and  O1_20
REMARK    8  A    between atoms: C19_27  and  C20_28
REMARK    9  A    between atoms: C20_28  and  C21_29
ROOT
HETATM    1  C3  UNL     1     -38.308  20.110 -10.875  1.00  0.00     0.040 A
HETATM    2  N1  UNL     1     -38.789  21.027  -9.962  1.00  0.00    -0.295 N
ATOM      3  H1  UNL     1     -39.130  21.962 -10.187  1.00  0.00     0.187 HD
HETATM    4  N2  UNL     1     -38.738  20.500  -8.752  1.00  0.00    -0.241 N
HETATM    5  C4  UNL     1     -39.133  21.036  -7.581  1.00  0.00     0.075 A
HETATM    6  C12 UNL     1     -39.011  20.247  -6.392  1.00  0.00     0.024 A
HETATM    7  C16 UNL     1     -38.501  18.996  -6.505  1.00  0.00     0.018 A
HETATM    8  C17 UNL     1     -38.254  18.058  -5.406  1.00  0.00     0.069 C
HETATM    9  N4  UNL     1     -38.124  18.540  -7.756  1.00  0.00    -0.344 N
ATOM     10  H4  UNL     1     -37.741  17.598  -7.834  1.00  0.00     0.167 HD
HETATM   11  C18 UNL     1     -38.237  19.270  -8.858  1.00  0.00     0.140 A
HETATM   12  C19 UNL     1     -37.947  18.994 -10.223  1.00  0.00     0.035 A
ENDROOT
BRANCH  12  13
HETATM   13  C20 UNL     1     -37.320  17.749 -10.585  1.00  0.00     0.032 C
BRANCH  13  14
HETATM   14  C21 UNL     1     -35.910  17.522 -10.507  1.00  0.00     0.010 A
HETATM   15  C22 UNL     1     -35.337  16.841  -9.419  1.00  0.00     0.060 A
HETATM   16  C23 UNL     1     -33.993  16.620  -9.306  1.00  0.00     0.159 A
HETATM   17  F1  UNL     1     -33.427  15.966  -8.260  1.00  0.00    -0.203 F
HETATM   18  C24 UNL     1     -33.167  17.082 -10.302  1.00  0.00     0.196 A
HETATM   19  F2  UNL     1     -31.817  16.911 -10.279  1.00  0.00    -0.199 F
HETATM   20  C25 UNL     1     -33.683  17.752 -11.387  1.00  0.00     0.197 A
HETATM   21  F3  UNL     1     -32.838  18.211 -12.381  1.00  0.00    -0.199 F
HETATM   22  C26 UNL     1     -35.038  17.959 -11.470  1.00  0.00     0.168 A
HETATM   23  F4  UNL     1     -35.529  18.603 -12.581  1.00  0.00    -0.202 F
ENDBRANCH  13  14
ENDBRANCH  12  13
BRANCH   1  24
HETATM   24  C2  UNL     1     -38.340  20.468 -12.297  1.00  0.00     0.055 C
HETATM   25  C1  UNL     1     -38.373  21.958 -12.569  1.00  0.00     0.011 C
ENDBRANCH   1  24
BRANCH   5  26
HETATM   26  C5  UNL     1     -39.818  22.325  -7.494  1.00  0.00     0.333 C
BRANCH  26  27
HETATM   27  N3  UNL     1     -41.259  22.178  -7.220  1.00  0.00     0.101 N
BRANCH  27  28
HETATM   28  C6  UNL     1     -41.762  21.278  -8.233  1.00  0.00     0.216 C
HETATM   29  C7  UNL     1     -42.318  22.020  -9.441  1.00  0.00     0.042 C
HETATM   30  C8  UNL     1     -42.784  20.281  -7.793  1.00  0.00     0.042 C
ENDBRANCH  27  28
BRANCH  27  31
HETATM   31  C9  UNL     1     -41.847  23.463  -7.163  1.00  0.00     0.216 C
HETATM   32  C10 UNL     1     -40.731  24.481  -6.883  1.00  0.00     0.042 C
HETATM   33  C11 UNL     1     -42.858  23.700  -6.091  1.00  0.00     0.042 C
ENDBRANCH  27  31
ENDBRANCH  26  27
ENDBRANCH   5  26
BRANCH   6  34
HETATM   34  C13 UNL     1     -39.347  20.862  -5.114  1.00  0.00     0.081 C
HETATM   35  C14 UNL     1     -38.984  22.299  -4.939  1.00  0.00     0.051 C
HETATM   36  C15 UNL     1     -38.915  20.083  -3.855  1.00  0.00     0.051 C
BRANCH  34  37
HETATM   37  O1  UNL     1     -40.781  20.749  -4.942  1.00  0.00    -0.386 OA
ATOM     38  H1  UNL     1     -41.085  21.558  -4.548  1.00  0.00     0.211 HD
ENDBRANCH  34  37
ENDBRANCH   6  34
TORSDOF 9
ENDMDL