MODEL 5
REMARK VINA RESULT: -9.507132912      2.483      4.030
REMARK  8 active torsions:
REMARK  status: ('A' for Active; 'I' for Inactive)
REMARK    1  A    between atoms: C2_2  and  C3_3
REMARK    2  A    between atoms: C4_4  and  O1_5
REMARK    3  A    between atoms: O1_5  and  C5_6
REMARK    4  A    between atoms: C5_6  and  C6_7
REMARK    5  A    between atoms: C10_14  and  O2_15
REMARK    6  A    between atoms: O2_15  and  C11_16
REMARK    7  A    between atoms: C18_24  and  C19_25
REMARK    8  A    between atoms: C18_24  and  C22_32
ROOT
HETATM    1  C11 UNL     1     -38.413  19.848  -8.716  1.00  0.00     0.115 A
HETATM    2  C12 UNL     1     -39.027  19.976  -7.506  1.00  0.00     0.049 A
HETATM    3  C13 UNL     1     -39.649  21.134  -7.080  1.00  0.00    -0.032 A
HETATM    4  C14 UNL     1     -39.643  22.209  -7.931  1.00  0.00    -0.046 A
HETATM    5  C15 UNL     1     -39.016  22.084  -9.176  1.00  0.00     0.053 A
HETATM    6  C16 UNL     1     -38.398  20.933  -9.599  1.00  0.00     0.150 A
HETATM    7  F3  UNL     1     -37.824  20.904 -10.804  1.00  0.00    -0.203 F
HETATM    8  C17 UNL     1     -40.392  23.106  -7.030  1.00  0.00     0.062 A
HETATM    9  C18 UNL     1     -40.401  21.942  -6.094  1.00  0.00     0.053 A
ENDROOT
BRANCH   1  10
HETATM   10  O2  UNL     1     -37.805  18.697  -9.113  1.00  0.00    -0.307 OA
BRANCH  10  11
HETATM   11  C10 UNL     1     -36.921  18.444 -10.120  1.00  0.00     0.086 A
HETATM   12  C3  UNL     1     -35.611  18.139  -9.946  1.00  0.00     0.009 A
HETATM   13  C4  UNL     1     -34.774  17.891 -11.035  1.00  0.00     0.079 A
HETATM   14  C7  UNL     1     -35.292  17.959 -12.296  1.00  0.00     0.061 A
HETATM   15  C8  UNL     1     -36.608  18.263 -12.536  1.00  0.00     0.039 A
HETATM   16 CL1  UNL     1     -37.171  18.324 -14.193  1.00  0.00    -0.084 Cl
HETATM   17  C9  UNL     1     -37.403  18.500 -11.458  1.00  0.00     0.061 A
BRANCH  12  18
HETATM   18  C2  UNL     1     -34.994  18.061  -8.598  1.00  0.00     0.040 C
HETATM   19  C1  UNL     1     -34.866  16.628  -8.184  1.00  0.00     0.010 C
ENDBRANCH  12  18
BRANCH  13  20
HETATM   20  O1  UNL     1     -33.421  17.577 -10.804  1.00  0.00    -0.345 OA
BRANCH  20  21
HETATM   21  C5  UNL     1     -32.525  17.393 -11.867  1.00  0.00     0.246 C
BRANCH  21  22
HETATM   22  C6  UNL     1     -32.286  15.914 -12.140  1.00  0.00     0.377 C
HETATM   23  F1  UNL     1     -32.418  15.200 -10.963  1.00  0.00    -0.212 F
HETATM   24  F2  UNL     1     -33.191  15.496 -13.095  1.00  0.00    -0.212 F
ENDBRANCH  21  22
ENDBRANCH  20  21
ENDBRANCH  13  20
ENDBRANCH  10  11
ENDBRANCH   1  10
BRANCH   9  25
HETATM   25  C19 UNL     1     -41.748  21.405  -5.850  1.00  0.00     0.087 C
HETATM   26  N1  UNL     1     -42.704  22.104  -5.335  1.00  0.00    -0.377 N
HETATM   27  C20 UNL     1     -43.914  21.360  -5.200  1.00  0.00     0.140 C
ATOM     28  H1  UNL     1     -42.606  23.080  -5.057  1.00  0.00     0.160 HD
HETATM   29  C21 UNL     1     -43.550  19.920  -5.512  1.00  0.00     0.140 C
HETATM   30  N2  UNL     1     -42.248  20.084  -6.113  1.00  0.00    -0.377 N
ATOM     31  H2  UNL     1     -41.756  19.367  -6.646  1.00  0.00     0.160 HD
ENDBRANCH   9  25
BRANCH   9  32
HETATM   32  C22 UNL     1     -39.564  22.226  -4.870  1.00  0.00     0.010 C
HETATM   33  C23 UNL     1     -39.688  23.613  -4.340  1.00  0.00     0.032 C
HETATM   34  C24 UNL     1     -38.546  23.789  -3.325  1.00  0.00     0.168 C
HETATM   35  O3  UNL     1     -38.793  22.908  -2.298  1.00  0.00    -0.391 OA
HETATM   36  C25 UNL     1     -38.775  21.589  -2.663  1.00  0.00     0.168 C
HETATM   37  C26 UNL     1     -39.776  21.252  -3.747  1.00  0.00     0.032 C
ENDBRANCH   9  32
TORSDOF 8
ENDMDL