MODEL 4
REMARK VINA RESULT: -6.971102997      1.840      3.602
REMARK  20 active torsions:
REMARK  status: ('A' for Active; 'I' for Inactive)
REMARK    1  A    between atoms: C3_3  and  O1_4
REMARK    2  A    between atoms: C5_8  and  O3_9
REMARK    3  A    between atoms: C9_14  and  C11_16
REMARK    4  A    between atoms: C11_16  and  C12_17
REMARK    5  A    between atoms: C12_17  and  O4_18
REMARK    6  A    between atoms: C12_17  and  C13_20
REMARK    7  A    between atoms: C13_20  and  C15_22
REMARK    8  A    between atoms: C15_22  and  C16_23
REMARK    9  A    between atoms: C16_23  and  C17_24
REMARK   10  A    between atoms: C17_24  and  C18_25
REMARK   11  A    between atoms: C17_24  and  C25_34
REMARK   12  A    between atoms: C18_25  and  O5_26
REMARK   13  A    between atoms: C18_25  and  C19_28
REMARK   14  A    between atoms: C20_29  and  C21_30
REMARK   15  A    between atoms: C21_30  and  C22_31
REMARK   16  A    between atoms: C22_31  and  C23_32
REMARK   17  A    between atoms: C25_34  and  C27_36
REMARK   18  A    between atoms: C27_36  and  C28_37
REMARK   19  A    between atoms: C28_37  and  O6_38
REMARK   20  A    between atoms: C29_40  and  O7_41
ROOT
HETATM    1  C12 UNL     1      13.222  37.776 -10.121  1.00  0.00     0.044 C
ENDROOT
BRANCH   1   2
HETATM    2  C11 UNL     1      13.342  37.587 -11.566  1.00  0.00     0.018 C
BRANCH   2   3
HETATM    3  C9  UNL     1      14.319  36.699 -12.179  1.00  0.00     0.012 C
HETATM    4  C8  UNL     1      13.669  36.118 -13.475  1.00  0.00     0.025 C
HETATM    5  C7  UNL     1      15.042  36.123 -14.114  1.00  0.00     0.038 C
HETATM    6  C6  UNL     1      14.960  36.552 -15.511  1.00  0.00     0.080 C
HETATM    7  C29 UNL     1      15.403  37.179 -13.089  1.00  0.00     0.098 C
HETATM    8  C4  UNL     1      14.372  37.860 -15.807  1.00  0.00     0.167 C
HETATM    9  C5  UNL     1      16.122  37.122 -16.225  1.00  0.00     0.264 C
HETATM   10  C3  UNL     1      14.593  38.944 -14.795  1.00  0.00     0.179 C
HETATM   11  O2  UNL     1      15.266  38.018 -16.865  1.00  0.00    -0.352 OA
HETATM   12  C2  UNL     1      15.440  38.506 -13.660  1.00  0.00    -0.023 C
HETATM   13  C1  UNL     1      16.308  39.416 -13.187  1.00  0.00     0.020 C
HETATM   14  C10 UNL     1      14.789  35.503 -11.382  1.00  0.00     0.023 C
BRANCH  10  15
HETATM   15  O1  UNL     1      15.168  40.083 -15.377  1.00  0.00    -0.389 OA
ATOM     16  H1  UNL     1      15.387  39.888 -16.281  1.00  0.00     0.210 HD
ENDBRANCH  10  15
BRANCH   9  17
HETATM   17  O3  UNL     1      16.637  36.260 -17.226  1.00  0.00    -0.371 OA
ATOM     18  H3  UNL     1      16.963  35.486 -16.782  1.00  0.00     0.212 HD
ENDBRANCH   9  17
BRANCH   7  19
HETATM   19  O7  UNL     1      16.689  36.845 -12.588  1.00  0.00    -0.384 OA
ATOM     20  H7  UNL     1      16.628  36.666 -11.657  1.00  0.00     0.211 HD
ENDBRANCH   7  19
ENDBRANCH   2   3
ENDBRANCH   1   2
BRANCH   1  21
HETATM   21  O4  UNL     1      12.258  37.130  -9.421  1.00  0.00    -0.365 OA
ATOM     22  H4  UNL     1      12.180  37.253  -8.482  1.00  0.00     0.217 HD
ENDBRANCH   1  21
BRANCH   1  23
HETATM   23  C13 UNL     1      13.365  39.250  -9.672  1.00  0.00     0.038 C
HETATM   24  C14 UNL     1      14.833  39.552  -9.825  1.00  0.00     0.017 C
BRANCH  23  25
HETATM   25  C15 UNL     1      12.891  39.338  -8.224  1.00  0.00     0.011 C
BRANCH  25  26
HETATM   26  C16 UNL     1      12.149  40.583  -7.961  1.00  0.00     0.009 C
BRANCH  26  27
HETATM   27  C17 UNL     1      12.826  41.871  -8.457  1.00  0.00     0.022 C
BRANCH  27  28
HETATM   28  C18 UNL     1      13.165  42.592  -7.160  1.00  0.00     0.145 C
BRANCH  28  29
HETATM   29  O5  UNL     1      13.021  41.583  -6.163  1.00  0.00    -0.391 OA
ATOM     30  H5  UNL     1      13.881  41.536  -5.763  1.00  0.00     0.210 HD
ENDBRANCH  28  29
BRANCH  28  31
HETATM   31  C19 UNL     1      14.500  43.186  -7.107  1.00  0.00     0.001 C
HETATM   32  C20 UNL     1      15.312  43.324  -8.133  1.00  0.00    -0.028 C
BRANCH  32  33
HETATM   33  C21 UNL     1      16.648  43.934  -8.002  1.00  0.00     0.027 C
BRANCH  33  34
HETATM   34  C22 UNL     1      17.469  43.651  -9.243  1.00  0.00     0.003 C
BRANCH  34  35
HETATM   35  C23 UNL     1      16.776  42.599 -10.104  1.00  0.00    -0.004 C
HETATM   36  C24 UNL     1      17.860  41.684 -10.626  1.00  0.00     0.005 C
ENDBRANCH  34  35
ENDBRANCH  33  34
ENDBRANCH  32  33
ENDBRANCH  28  31
ENDBRANCH  27  28
BRANCH  27  37
HETATM   37  C25 UNL     1      11.915  42.593  -9.363  1.00  0.00    -0.010 C
HETATM   38  C26 UNL     1      12.414  42.731 -10.775  1.00  0.00     0.010 C
BRANCH  37  39
HETATM   39  C27 UNL     1      10.484  42.160  -9.402  1.00  0.00     0.031 C
BRANCH  39  40
HETATM   40  C28 UNL     1       9.502  43.270  -9.644  1.00  0.00     0.164 C
BRANCH  40  41
HETATM   41  O6  UNL     1       8.485  42.884 -10.520  1.00  0.00    -0.401 OA
ATOM     42  H6  UNL     1       8.116  43.626 -10.984  1.00  0.00     0.209 HD
ENDBRANCH  40  41
ENDBRANCH  39  40
ENDBRANCH  37  39
ENDBRANCH  27  37
ENDBRANCH  26  27
ENDBRANCH  25  26
ENDBRANCH  23  25
ENDBRANCH   1  23
TORSDOF 20
ENDMDL