MODEL 2
REMARK VINA RESULT: -8.212337672      2.214      8.424
REMARK  16 active torsions:
REMARK  status: ('A' for Active; 'I' for Inactive)
REMARK    1  A    between atoms: N2_6  and  O1_7
REMARK    2  A    between atoms: C7_15  and  N5_16
REMARK    3  A    between atoms: C10_26  and  N8_27
REMARK    4  A    between atoms: N8_27  and  C11_28
REMARK    5  A    between atoms: C11_28  and  C12_29
REMARK    6  A    between atoms: C12_29  and  C13_30
REMARK    7  A    between atoms: C13_30  and  C14_31
REMARK    8  A    between atoms: C14_31  and  C15_32
REMARK    9  A    between atoms: C15_32  and  C16_33
REMARK   10  A    between atoms: C16_33  and  C17_34
REMARK   11  A    between atoms: C17_34  and  C18_35
REMARK   12  A    between atoms: C18_35  and  C19_36
REMARK   13  A    between atoms: C19_36  and  C20_37
REMARK   14  A    between atoms: C20_37  and  N9_38
REMARK   15  A    between atoms: N9_38  and  C21_41
REMARK   16  A    between atoms: C21_41  and  C22_42
ROOT
HETATM    1  N1  UNL     1      12.870  37.214  -9.577  1.00  0.00    -0.191 NA
HETATM    2  C1  UNL     1      13.217  37.078 -10.658  1.00  0.00     0.100 C
HETATM    3  C2  UNL     1      13.617  36.812 -11.980  1.00  0.00     0.063 A
HETATM    4  C3  UNL     1      12.955  35.759 -12.669  1.00  0.00     0.043 A
HETATM    5  C4  UNL     1      13.384  35.303 -13.884  1.00  0.00     0.126 A
HETATM    6  N2  UNL     1      14.462  35.860 -14.448  1.00  0.00    -0.218 N
HETATM    7  C5  UNL     1      15.119  36.875 -13.814  1.00  0.00     0.149 A
HETATM    8  N3  UNL     1      16.209  37.326 -14.429  1.00  0.00    -0.325 N
ATOM      9  H3  UNL     1      16.468  36.931 -15.333  1.00  0.00     0.169 HD
HETATM   10  C6  UNL     1      16.975  38.280 -13.895  1.00  0.00     0.140 A
HETATM   11  N4  UNL     1      18.103  38.658 -14.521  1.00  0.00    -0.176 N
ATOM     12  H4  UNL     1      18.351  38.256 -15.425  1.00  0.00     0.186 HD
HETATM   13  C7  UNL     1      18.896  39.565 -13.946  1.00  0.00     0.679 A
HETATM   14  N6  UNL     1      18.612  40.113 -12.770  1.00  0.00    -0.176 N
ATOM     15  H6  UNL     1      19.243  40.802 -12.361  1.00  0.00     0.186 HD
HETATM   16  C8  UNL     1      17.467  39.750 -12.107  1.00  0.00     0.132 A
HETATM   17  N7  UNL     1      17.309  40.210 -10.931  1.00  0.00    -0.384 N
ATOM     18  H71 UNL     1      16.458  39.939 -10.439  1.00  0.00     0.157 HD
ATOM     19  H72 UNL     1      17.942  40.895 -10.519  1.00  0.00     0.157 HD
HETATM   20  C9  UNL     1      16.618  38.831 -12.659  1.00  0.00     0.094 A
HETATM   21  C10 UNL     1      15.462  38.388 -11.982  1.00  0.00     0.133 A
HETATM   22  C27 UNL     1      14.697  37.356 -12.584  1.00  0.00     0.072 A
ENDROOT
BRANCH  21  23
HETATM   23  N8  UNL     1      14.955  39.074 -11.104  1.00  0.00    -0.446 NA
BRANCH  23  24
HETATM   24  C11 UNL     1      14.395  40.023 -10.332  1.00  0.00     0.218 C
BRANCH  24  25
HETATM   25  C12 UNL     1      13.789  41.220 -11.139  1.00  0.00     0.033 C
BRANCH  25  26
HETATM   26  C13 UNL     1      14.056  42.444 -10.289  1.00  0.00     0.002 C
BRANCH  26  27
HETATM   27  C14 UNL     1      15.025  42.166  -9.184  1.00  0.00     0.000 C
BRANCH  27  28
HETATM   28  C15 UNL     1      14.641  42.848  -7.884  1.00  0.00     0.000 C
BRANCH  28  29
HETATM   29  C16 UNL     1      13.144  42.694  -7.625  1.00  0.00     0.000 C
BRANCH  29  30
HETATM   30  C17 UNL     1      12.971  41.383  -6.857  1.00  0.00     0.000 C
BRANCH  30  31
HETATM   31  C18 UNL     1      11.935  40.511  -7.500  1.00  0.00     0.002 C
BRANCH  31  32
HETATM   32  C19 UNL     1      11.273  39.653  -6.464  1.00  0.00     0.027 C
BRANCH  32  33
HETATM   33  C20 UNL     1      11.833  38.274  -6.490  1.00  0.00     0.232 C
BRANCH  33  34
HETATM   34  N9  UNL     1      11.487  37.640  -5.203  1.00  0.00    -0.070 N
ATOM     35  H92 UNL     1      11.392  36.627  -5.266  1.00  0.00     0.277 HD
ATOM     36  H91 UNL     1      12.253  37.655  -4.528  1.00  0.00     0.277 HD
BRANCH  34  37
HETATM   37  C21 UNL     1      10.280  38.304  -4.719  1.00  0.00     0.289 C
BRANCH  37  38
HETATM   38  C22 UNL     1      10.278  38.158  -3.236  1.00  0.00     0.034 A
HETATM   39  C23 UNL     1       9.259  37.375  -2.705  1.00  0.00     0.027 A
HETATM   40  C24 UNL     1       9.236  37.223  -1.322  1.00  0.00     0.003 A
HETATM   41  C25 UNL     1      10.189  37.833  -0.555  1.00  0.00     0.017 A
HETATM   42  C26 UNL     1      11.166  38.591  -1.126  1.00  0.00     0.088 A
HETATM   43  N10 UNL     1      11.206  38.751  -2.479  1.00  0.00    -0.368 N
ATOM     44  H10 UNL     1      11.936  39.318  -2.909  1.00  0.00     0.165 HD
ENDBRANCH  37  38
ENDBRANCH  34  37
ENDBRANCH  33  34
ENDBRANCH  32  33
ENDBRANCH  31  32
ENDBRANCH  30  31
ENDBRANCH  29  30
ENDBRANCH  28  29
ENDBRANCH  27  28
ENDBRANCH  26  27
ENDBRANCH  25  26
ENDBRANCH  24  25
ENDBRANCH  23  24
ENDBRANCH  21  23
BRANCH   6  45
HETATM   45  O1  UNL     1      14.881  35.386 -15.667  1.00  0.00    -0.282 OA
ATOM     46  H1  UNL     1      15.674  35.747 -16.045  1.00  0.00     0.245 HD
ENDBRANCH   6  45
BRANCH  13  47
HETATM   47  N5  UNL     1      19.970  39.910 -14.570  1.00  0.00    -0.234 N
ATOM     48  H52 UNL     1      20.817  39.351 -14.465  1.00  0.00     0.174 HD
ATOM     49  H51 UNL     1      19.935  40.744 -15.156  1.00  0.00     0.174 HD
ENDBRANCH  13  47
TORSDOF 16
ENDMDL