MODEL 2
REMARK VINA RESULT: -8.453590401      4.337     11.021
REMARK  15 active torsions:
REMARK  status: ('A' for Active; 'I' for Inactive)
REMARK    1  A    between atoms: N3_15  and  C11_16
REMARK    2  A    between atoms: C11_16  and  C12_17
REMARK    3  A    between atoms: C12_17  and  C13_18
REMARK    4  A    between atoms: C13_18  and  C14_19
REMARK    5  A    between atoms: C14_19  and  C15_20
REMARK    6  A    between atoms: C15_20  and  C16_21
REMARK    7  A    between atoms: C16_21  and  C17_22
REMARK    8  A    between atoms: C17_22  and  C18_23
REMARK    9  A    between atoms: C18_23  and  C19_24
REMARK   10  A    between atoms: C19_24  and  N4_25
REMARK   11  A    between atoms: N4_25  and  C20_28
REMARK   12  A    between atoms: C20_28  and  C21_29
REMARK   13  A    between atoms: C21_29  and  N5_30
REMARK   14  A    between atoms: N5_30  and  C22_32
REMARK   15  A    between atoms: C25_41  and  N9_42
ROOT
HETATM    1  C18 UNL     1      13.307  37.242 -10.687  1.00  0.00     0.028 C
ENDROOT
BRANCH   1   2
HETATM    2  C17 UNL     1      13.866  35.981 -11.285  1.00  0.00     0.005 C
BRANCH   2   3
HETATM    3  C16 UNL     1      13.315  35.608 -12.617  1.00  0.00     0.027 C
BRANCH   3   4
HETATM    4  C15 UNL     1      14.153  35.854 -13.794  1.00  0.00    -0.031 C
BRANCH   4   5
HETATM    5  C14 UNL     1      14.065  37.062 -14.598  1.00  0.00    -0.031 C
BRANCH   5   6
HETATM    6  C13 UNL     1      14.091  38.422 -13.994  1.00  0.00     0.028 C
BRANCH   6   7
HETATM    7  C12 UNL     1      15.382  39.108 -13.840  1.00  0.00     0.024 C
BRANCH   7   8
HETATM    8  C11 UNL     1      16.234  38.689 -12.671  1.00  0.00     0.134 C
BRANCH   8   9
HETATM    9  N3  UNL     1      16.917  39.804 -12.112  1.00  0.00    -0.297 N
HETATM   10  C10 UNL     1      16.337  40.514 -11.114  1.00  0.00     0.139 A
HETATM   11  C3  UNL     1      17.055  41.577 -10.585  1.00  0.00     0.090 A
HETATM   12  N2  UNL     1      15.142  40.441 -10.471  1.00  0.00    -0.340 N
HETATM   13  N1  UNL     1      18.279  41.901 -11.037  1.00  0.00    -0.352 N
HETATM   14  C4  UNL     1      16.233  42.118  -9.612  1.00  0.00     0.021 A
HETATM   15  C2  UNL     1      18.855  41.205 -12.021  1.00  0.00     0.074 A
ATOM     16  H1  UNL     1      18.775  42.690 -10.623  1.00  0.00     0.166 HD
HETATM   17  C1  UNL     1      20.213  41.534 -12.551  1.00  0.00     0.074 C
HETATM   18  C27 UNL     1      18.146  40.150 -12.547  1.00  0.00     0.271 A
HETATM   19  O1  UNL     1      18.633  39.446 -13.487  1.00  0.00    -0.266 OA
HETATM   20  C5  UNL     1      16.409  43.185  -8.761  1.00  0.00     0.016 A
HETATM   21  C9  UNL     1      15.068  41.417  -9.553  1.00  0.00     0.046 A
HETATM   22  C6  UNL     1      15.447  43.551  -7.866  1.00  0.00     0.001 A
HETATM   23  C7  UNL     1      14.275  42.825  -7.822  1.00  0.00     0.002 A
HETATM   24  C8  UNL     1      14.062  41.758  -8.654  1.00  0.00     0.030 A
ATOM     25  H2  UNL     1      14.413  39.752 -10.658  1.00  0.00     0.167 HD
ENDBRANCH   8   9
ENDBRANCH   7   8
ENDBRANCH   6   7
ENDBRANCH   5   6
ENDBRANCH   4   5
ENDBRANCH   3   4
ENDBRANCH   2   3
ENDBRANCH   1   2
BRANCH   1  26
HETATM   26  C19 UNL     1      13.636  37.413  -9.244  1.00  0.00     0.232 C
BRANCH  26  27
HETATM   27  N4  UNL     1      12.695  38.265  -8.550  1.00  0.00    -0.074 N
ATOM     28  H42 UNL     1      12.892  39.250  -8.721  1.00  0.00     0.277 HD
ATOM     29  H41 UNL     1      11.767  38.211  -8.970  1.00  0.00     0.277 HD
BRANCH  27  30
HETATM   30  C20 UNL     1      12.648  37.980  -7.152  1.00  0.00     0.251 C
BRANCH  30  31
HETATM   31  C21 UNL     1      11.294  38.342  -6.567  1.00  0.00     0.148 C
BRANCH  31  32
HETATM   32  N5  UNL     1      11.278  38.135  -5.139  1.00  0.00    -0.373 N
ATOM     33  H5  UNL     1      12.001  37.567  -4.697  1.00  0.00     0.161 HD
BRANCH  32  34
HETATM   34  C22 UNL     1      10.361  38.664  -4.430  1.00  0.00     0.133 A
HETATM   35  N6  UNL     1       9.863  39.854  -4.731  1.00  0.00    -0.337 N
HETATM   36  C23 UNL     1       8.882  40.442  -4.002  1.00  0.00     0.183 A
ATOM     37  H6  UNL     1      10.232  40.348  -5.543  1.00  0.00     0.168 HD
HETATM   38  N7  UNL     1       8.421  39.765  -2.941  1.00  0.00    -0.336 N
HETATM   39  C24 UNL     1       8.868  38.555  -2.561  1.00  0.00     0.153 A
ATOM     40  H7  UNL     1       7.684  40.196  -2.384  1.00  0.00     0.168 HD
HETATM   41  N8  UNL     1       8.597  37.678  -1.577  1.00  0.00    -0.174 N
HETATM   42  C26 UNL     1       9.874  37.986  -3.336  1.00  0.00     0.137 A
HETATM   43  C25 UNL     1       9.372  36.591  -1.684  1.00  0.00     0.678 A
ATOM     44  H8  UNL     1       7.898  37.821  -0.849  1.00  0.00     0.186 HD
HETATM   45  N10 UNL     1      10.143  36.796  -2.760  1.00  0.00    -0.184 N
ATOM     46  H10 UNL     1      10.843  36.137  -3.101  1.00  0.00     0.184 HD
BRANCH  43  47
HETATM   47  N9  UNL     1       9.351  35.566  -0.888  1.00  0.00    -0.234 N
ATOM     48  H92 UNL     1       9.437  35.550   0.128  1.00  0.00     0.174 HD
ATOM     49  H91 UNL     1       9.241  34.594  -1.174  1.00  0.00     0.174 HD
ENDBRANCH  43  47
ENDBRANCH  32  34
ENDBRANCH  31  32
ENDBRANCH  30  31
ENDBRANCH  27  30
ENDBRANCH  26  27
ENDBRANCH   1  26
TORSDOF 15
ENDMDL