MODEL 5
REMARK VINA RESULT: -7.215591737      1.514      1.962
REMARK  20 active torsions:
REMARK  status: ('A' for Active; 'I' for Inactive)
REMARK    1  A    between atoms: C3_3  and  C4_4
REMARK    2  A    between atoms: C4_4  and  C5_5
REMARK    3  A    between atoms: C6_6  and  C7_7
REMARK    4  A    between atoms: C7_7  and  C8_8
REMARK    5  A    between atoms: C8_8  and  C9_10
REMARK    6  A    between atoms: C10_11  and  C11_12
REMARK    7  A    between atoms: C11_12  and  C12_13
REMARK    8  A    between atoms: C12_13  and  O2_14
REMARK    9  A    between atoms: C12_13  and  C13_16
REMARK   10  A    between atoms: C14_17  and  C15_18
REMARK   11  A    between atoms: C18_21  and  O3_22
REMARK   12  A    between atoms: C19_24  and  O4_25
REMARK   13  A    between atoms: C20_27  and  O5_28
REMARK   14  A    between atoms: C21_30  and  O6_31
REMARK   15  A    between atoms: C24_35  and  C25_36
REMARK   16  A    between atoms: C24_35  and  C29_44
REMARK   17  A    between atoms: C25_36  and  C26_37
REMARK   18  A    between atoms: C26_37  and  C27_38
REMARK   19  A    between atoms: C27_38  and  C28_39
REMARK   20  A    between atoms: C28_39  and  N1_40
ROOT
HETATM    1  C11 UNL     1      13.219  36.530 -10.536  1.00  0.00     0.063 C
ENDROOT
BRANCH   1   2
HETATM    2  C10 UNL     1      13.057  36.595 -12.005  1.00  0.00    -0.020 C
HETATM    3  C9  UNL     1      13.677  35.773 -12.798  1.00  0.00     0.052 C
BRANCH   3   4
HETATM    4  C8  UNL     1      13.546  35.801 -14.287  1.00  0.00     0.182 C
HETATM    5  O1  UNL     1      12.724  34.985 -14.743  1.00  0.00    -0.288 OA
BRANCH   4   6
HETATM    6  C7  UNL     1      14.325  36.709 -15.095  1.00  0.00     0.020 C
HETATM    7  C24 UNL     1      15.379  36.297 -15.992  1.00  0.00    -0.044 C
BRANCH   6   8
HETATM    8  C6  UNL     1      14.681  38.004 -14.415  1.00  0.00     0.012 C
HETATM    9  C5  UNL     1      14.052  39.144 -14.585  1.00  0.00    -0.022 C
BRANCH   9  10
HETATM   10  C4  UNL     1      14.527  40.344 -13.840  1.00  0.00     0.054 C
BRANCH  10  11
HETATM   11  C3  UNL     1      15.529  39.976 -12.812  1.00  0.00    -0.027 C
HETATM   12  C2  UNL     1      16.508  40.787 -12.438  1.00  0.00    -0.035 C
HETATM   13  C1  UNL     1      17.517  40.432 -11.412  1.00  0.00     0.036 C
ENDBRANCH  10  11
ENDBRANCH   9  10
ENDBRANCH   6   8
BRANCH   7  14
HETATM   14  C25 UNL     1      15.217  36.620 -17.295  1.00  0.00     0.008 C
BRANCH  14  15
HETATM   15  C26 UNL     1      14.037  36.415 -18.072  1.00  0.00    -0.002 C
BRANCH  15  16
HETATM   16  C27 UNL     1      13.378  35.268 -18.147  1.00  0.00     0.000 C
BRANCH  16  17
HETATM   17  C28 UNL     1      13.967  33.926 -18.255  1.00  0.00     0.257 C
BRANCH  17  18
HETATM   18  N1  UNL     1      13.655  33.192 -17.020  1.00  0.00    -0.076 N
ATOM     19  H13 UNL     1      14.355  32.484 -16.794  1.00  0.00     0.274 HD
ATOM     20  H12 UNL     1      13.765  33.763 -16.182  1.00  0.00     0.274 HD
ATOM     21  H11 UNL     1      12.716  32.804 -17.113  1.00  0.00     0.274 HD
ENDBRANCH  17  18
ENDBRANCH  16  17
ENDBRANCH  15  16
ENDBRANCH  14  15
ENDBRANCH   7  14
BRANCH   7  22
HETATM   22  C29 UNL     1      16.657  35.704 -15.631  1.00  0.00     0.035 C
HETATM   23  C30 UNL     1      17.193  34.667 -16.568  1.00  0.00     0.010 C
ENDBRANCH   7  22
ENDBRANCH   4   6
ENDBRANCH   3   4
ENDBRANCH   1   2
BRANCH   1  24
HETATM   24  C12 UNL     1      14.264  37.513 -10.036  1.00  0.00     0.144 C
BRANCH  24  25
HETATM   25  O2  UNL     1      14.606  37.153  -8.729  1.00  0.00    -0.391 OA
ATOM     26  H2  UNL     1      15.468  37.507  -8.542  1.00  0.00     0.210 HD
ENDBRANCH  24  25
BRANCH  24  27
HETATM   27  C13 UNL     1      13.637  38.849 -10.057  1.00  0.00     0.001 C
HETATM   28  C14 UNL     1      14.081  39.804  -9.261  1.00  0.00    -0.023 C
BRANCH  28  29
HETATM   29  C15 UNL     1      13.523  41.189  -9.200  1.00  0.00     0.020 C
HETATM   30  C16 UNL     1      12.092  41.048  -8.782  1.00  0.00     0.021 C
HETATM   31  C17 UNL     1      11.895  40.302  -7.491  1.00  0.00     0.013 C
HETATM   32  C18 UNL     1      11.295  42.310  -8.864  1.00  0.00     0.153 C
HETATM   33  C19 UNL     1      12.076  43.513  -9.281  1.00  0.00     0.178 C
HETATM   34  C20 UNL     1      12.833  44.008  -8.092  1.00  0.00     0.178 C
HETATM   35  C21 UNL     1      13.905  43.128  -7.588  1.00  0.00     0.153 C
HETATM   36  C22 UNL     1      14.411  42.058  -8.472  1.00  0.00     0.021 C
HETATM   37  C23 UNL     1      15.391  42.721  -9.458  1.00  0.00     0.013 C
BRANCH  32  38
HETATM   38  O3  UNL     1      10.187  42.215  -9.717  1.00  0.00    -0.393 OA
ATOM     39  H3  UNL     1       9.831  43.059  -9.968  1.00  0.00     0.210 HD
ENDBRANCH  32  38
BRANCH  33  40
HETATM   40  O4  UNL     1      11.134  44.517  -9.607  1.00  0.00    -0.390 OA
ATOM     41  H4  UNL     1      10.813  44.868  -8.784  1.00  0.00     0.210 HD
ENDBRANCH  33  40
BRANCH  34  42
HETATM   42  O5  UNL     1      11.877  44.247  -7.075  1.00  0.00    -0.390 OA
ATOM     43  H5  UNL     1      12.285  43.997  -6.255  1.00  0.00     0.210 HD
ENDBRANCH  34  42
BRANCH  35  44
HETATM   44  O6  UNL     1      13.642  42.600  -6.300  1.00  0.00    -0.393 OA
ATOM     45  H6  UNL     1      14.110  41.793  -6.119  1.00  0.00     0.210 HD
ENDBRANCH  35  44
ENDBRANCH  28  29
ENDBRANCH  24  27
ENDBRANCH   1  24
TORSDOF 20
ENDMDL