MODEL 4
REMARK VINA RESULT: -7.896719398      4.110      8.277
REMARK  18 active torsions:
REMARK  status: ('A' for Active; 'I' for Inactive)
REMARK    1  A    between atoms: C2_2  and  C3_3
REMARK    2  A    between atoms: C3_3  and  C4_4
REMARK    3  A    between atoms: C4_4  and  C6_6
REMARK    4  A    between atoms: C6_6  and  C7_7
REMARK    5  A    between atoms: C7_7  and  C8_8
REMARK    6  A    between atoms: C8_8  and  C9_9
REMARK    7  A    between atoms: C9_9  and  C12_12
REMARK    8  A    between atoms: C13_13  and  C14_14
REMARK    9  A    between atoms: C14_14  and  C15_15
REMARK   10  A    between atoms: C15_15  and  O1_16
REMARK   11  A    between atoms: C15_15  and  C16_18
REMARK   12  A    between atoms: C16_18  and  C18_20
REMARK   13  A    between atoms: C18_20  and  C19_21
REMARK   14  A    between atoms: C19_21  and  C20_22
REMARK   15  A    between atoms: C21_23  and  O2_24
REMARK   16  A    between atoms: C22_26  and  O3_27
REMARK   17  A    between atoms: C23_29  and  O4_30
REMARK   18  A    between atoms: C24_32  and  O5_33
ROOT
HETATM    1  C20 UNL     1      13.786  37.689 -11.157  1.00  0.00     0.049 C
HETATM    2  C21 UNL     1      13.742  36.199 -11.097  1.00  0.00     0.156 C
HETATM    3  C22 UNL     1      13.266  35.581 -12.400  1.00  0.00     0.178 C
HETATM    4  C23 UNL     1      14.227  35.849 -13.507  1.00  0.00     0.180 C
HETATM    5  C24 UNL     1      13.923  37.227 -14.046  1.00  0.00     0.179 C
HETATM    6  C25 UNL     1      14.730  38.300 -13.426  1.00  0.00     0.087 C
HETATM    7  C26 UNL     1      16.075  38.509 -14.112  1.00  0.00     0.044 C
HETATM    8  N1  UNL     1      14.021  39.556 -13.525  1.00  0.00    -0.323 N
ATOM      9  H1  UNL     1      13.397  39.851 -14.277  1.00  0.00     0.165 HD
HETATM   10  C27 UNL     1      14.362  40.288 -12.379  1.00  0.00     0.361 C
HETATM   11  O6  UNL     1      13.946  41.452 -12.137  1.00  0.00    -0.238 OA
HETATM   12  O7  UNL     1      15.224  39.500 -11.588  1.00  0.00    -0.295 OA
HETATM   13  C28 UNL     1      14.990  38.127 -11.961  1.00  0.00     0.170 C
ENDROOT
BRANCH   1  14
HETATM   14  C19 UNL     1      14.015  38.240  -9.754  1.00  0.00     0.010 C
BRANCH  14  15
HETATM   15  C18 UNL     1      12.953  37.943  -8.779  1.00  0.00     0.007 C
BRANCH  15  16
HETATM   16  C16 UNL     1      12.095  39.049  -8.293  1.00  0.00     0.011 C
HETATM   17  C17 UNL     1      12.149  39.268  -6.786  1.00  0.00     0.012 C
BRANCH  16  18
HETATM   18  C15 UNL     1      12.309  40.404  -8.935  1.00  0.00     0.125 C
BRANCH  18  19
HETATM   19  C14 UNL     1      13.222  41.307  -8.174  1.00  0.00     0.059 C
BRANCH  19  20
HETATM   20  C13 UNL     1      14.430  41.804  -8.813  1.00  0.00    -0.027 C
HETATM   21  C12 UNL     1      15.124  42.846  -8.495  1.00  0.00    -0.022 C
BRANCH  21  22
HETATM   22  C9  UNL     1      16.336  43.262  -9.219  1.00  0.00    -0.030 C
HETATM   23  C10 UNL     1      15.875  44.250 -10.333  1.00  0.00     0.019 C
HETATM   24  C11 UNL     1      17.211  44.121  -8.329  1.00  0.00     0.019 C
BRANCH  22  25
HETATM   25  C8  UNL     1      17.022  42.173  -9.933  1.00  0.00     0.013 C
BRANCH  25  26
HETATM   26  C7  UNL     1      17.942  42.445 -11.038  1.00  0.00     0.001 C
BRANCH  26  27
HETATM   27  C6  UNL     1      19.338  41.994 -10.785  1.00  0.00     0.004 C
BRANCH  27  28
HETATM   28  C4  UNL     1      20.327  43.156 -10.883  1.00  0.00    -0.019 C
HETATM   29  C5  UNL     1      19.587  44.315 -11.524  1.00  0.00     0.010 C
BRANCH  28  30
HETATM   30  C3  UNL     1      20.767  43.513  -9.496  1.00  0.00     0.004 C
BRANCH  30  31
HETATM   31  C2  UNL     1      21.948  42.717  -9.025  1.00  0.00    -0.004 C
HETATM   32  C1  UNL     1      22.955  42.573 -10.170  1.00  0.00     0.005 C
ENDBRANCH  30  31
ENDBRANCH  28  30
ENDBRANCH  27  28
ENDBRANCH  26  27
ENDBRANCH  25  26
ENDBRANCH  22  25
ENDBRANCH  21  22
ENDBRANCH  19  20
ENDBRANCH  18  19
BRANCH  18  33
HETATM   33  O1  UNL     1      11.049  41.069  -8.950  1.00  0.00    -0.395 OA
ATOM     34  H1  UNL     1      10.400  40.376  -8.969  1.00  0.00     0.210 HD
ENDBRANCH  18  33
ENDBRANCH  16  18
ENDBRANCH  15  16
ENDBRANCH  14  15
ENDBRANCH   1  14
BRANCH   2  35
HETATM   35  O2  UNL     1      15.034  35.719 -10.877  1.00  0.00    -0.392 OA
ATOM     36  H2  UNL     1      15.657  36.338 -11.240  1.00  0.00     0.210 HD
ENDBRANCH   2  35
BRANCH   3  37
HETATM   37  O3  UNL     1      13.162  34.210 -12.182  1.00  0.00    -0.390 OA
ATOM     38  H3  UNL     1      13.839  33.796 -12.704  1.00  0.00     0.210 HD
ENDBRANCH   3  37
BRANCH   4  39
HETATM   39  O4  UNL     1      15.547  35.652 -13.199  1.00  0.00    -0.390 OA
ATOM     40  H4  UNL     1      15.719  35.357 -12.312  1.00  0.00     0.210 HD
ENDBRANCH   4  39
BRANCH   5  41
HETATM   41  O5  UNL     1      14.128  37.224 -15.415  1.00  0.00    -0.390 OA
ATOM     42  H5  UNL     1      13.641  37.945 -15.798  1.00  0.00     0.210 HD
ENDBRANCH   5  41
TORSDOF 18
ENDMDL