MODEL 3
REMARK VINA RESULT: -8.103304075      2.596      9.255
REMARK  20 active torsions:
REMARK  status: ('A' for Active; 'I' for Inactive)
REMARK    1  A    between atoms: C2_2  and  C27_40
REMARK    2  A    between atoms: C3_3  and  C4_4
REMARK    3  A    between atoms: C4_4  and  C6_6
REMARK    4  A    between atoms: C6_6  and  C7_7
REMARK    5  A    between atoms: C7_7  and  C8_8
REMARK    6  A    between atoms: C8_8  and  O1_9
REMARK    7  A    between atoms: C8_8  and  C9_11
REMARK    8  A    between atoms: C9_11  and  O2_12
REMARK    9  A    between atoms: C9_11  and  C10_14
REMARK   10  A    between atoms: C10_14  and  O3_15
REMARK   11  A    between atoms: C10_14  and  C11_17
REMARK   12  A    between atoms: C11_17  and  O4_18
REMARK   13  A    between atoms: C11_17  and  C12_20
REMARK   14  A    between atoms: C12_20  and  O5_21
REMARK   15  A    between atoms: C12_20  and  C13_23
REMARK   16  A    between atoms: C13_23  and  C15_25
REMARK   17  A    between atoms: C15_25  and  C16_26
REMARK   18  A    between atoms: C17_28  and  C18_29
REMARK   19  A    between atoms: C18_29  and  C21_32
REMARK   20  A    between atoms: C21_32  and  O7_35
ROOT
HETATM    1  C11 UNL     1      13.153  37.930  -8.554  1.00  0.00     0.178 C
ENDROOT
BRANCH   1   2
HETATM    2  C10 UNL     1      11.970  38.380  -7.812  1.00  0.00     0.181 C
BRANCH   2   3
HETATM    3  C9  UNL     1      12.054  38.140  -6.313  1.00  0.00     0.181 C
BRANCH   3   4
HETATM    4  C8  UNL     1      10.871  38.889  -5.700  1.00  0.00     0.172 C
BRANCH   4   5
HETATM    5  C7  UNL     1      10.375  38.213  -4.473  1.00  0.00     0.004 C
BRANCH   5   6
HETATM    6  C6  UNL     1       9.128  38.222  -4.090  1.00  0.00    -0.020 C
BRANCH   6   7
HETATM    7  C4  UNL     1       8.606  39.181  -3.025  1.00  0.00     0.027 C
HETATM    8  C5  UNL     1       9.456  39.151  -1.833  1.00  0.00     0.018 C
BRANCH   7   9
HETATM    9  C3  UNL     1       8.175  40.397  -3.673  1.00  0.00    -0.012 C
HETATM   10  C2  UNL     1       7.716  41.556  -3.486  1.00  0.00    -0.064 C
HETATM   11  C1  UNL     1       7.497  42.344  -4.846  1.00  0.00     0.048 C
BRANCH  10  12
HETATM   12  C27 UNL     1       7.305  42.383  -2.373  1.00  0.00    -0.082 C
HETATM   13  C28 UNL     1       8.239  43.158  -1.542  1.00  0.00     0.043 C
HETATM   14  C29 UNL     1       6.069  43.240  -2.769  1.00  0.00     0.043 C
ENDBRANCH  10  12
ENDBRANCH   7   9
ENDBRANCH   6   7
ENDBRANCH   5   6
ENDBRANCH   4   5
BRANCH   4  15
HETATM   15  O1  UNL     1      11.260  40.216  -5.400  1.00  0.00    -0.389 OA
ATOM     16  H1  UNL     1      12.201  40.308  -5.488  1.00  0.00     0.210 HD
ENDBRANCH   4  15
ENDBRANCH   3   4
BRANCH   3  17
HETATM   17  O2  UNL     1      11.875  36.810  -5.963  1.00  0.00    -0.390 OA
ATOM     18  H2  UNL     1      12.158  36.744  -5.058  1.00  0.00     0.210 HD
ENDBRANCH   3  17
ENDBRANCH   2   3
BRANCH   2  19
HETATM   19  O3  UNL     1      11.494  39.639  -8.030  1.00  0.00    -0.390 OA
ATOM     20  H3  UNL     1      12.049  40.261  -7.574  1.00  0.00     0.210 HD
ENDBRANCH   2  19
ENDBRANCH   1   2
BRANCH   1  21
HETATM   21  O4  UNL     1      13.795  36.897  -7.874  1.00  0.00    -0.390 OA
ATOM     22  H4  UNL     1      14.474  36.513  -8.415  1.00  0.00     0.210 HD
ENDBRANCH   1  21
BRANCH   1  23
HETATM   23  C12 UNL     1      13.107  37.660  -9.992  1.00  0.00     0.153 C
BRANCH  23  24
HETATM   24  O5  UNL     1      13.075  36.313 -10.337  1.00  0.00    -0.393 OA
ATOM     25  H5  UNL     1      13.703  35.766  -9.878  1.00  0.00     0.210 HD
ENDBRANCH  23  24
BRANCH  23  26
HETATM   26  C13 UNL     1      14.018  38.379 -10.917  1.00  0.00     0.015 C
HETATM   27  C14 UNL     1      13.923  37.961 -12.368  1.00  0.00     0.012 C
BRANCH  26  28
HETATM   28  C15 UNL     1      13.794  39.877 -10.882  1.00  0.00     0.039 C
BRANCH  28  29
HETATM   29  C16 UNL     1      14.721  40.636  -9.996  1.00  0.00     0.126 C
HETATM   30  O6  UNL     1      14.045  41.212  -8.909  1.00  0.00    -0.379 OA
HETATM   31  C17 UNL     1      13.553  42.432  -9.392  1.00  0.00     0.133 C
HETATM   32  C24 UNL     1      14.715  42.990 -10.127  1.00  0.00     0.039 C
HETATM   33  C25 UNL     1      15.418  41.759 -10.679  1.00  0.00     0.013 C
HETATM   34  C26 UNL     1      16.905  41.806 -10.337  1.00  0.00     0.012 C
BRANCH  31  35
HETATM   35  C18 UNL     1      13.083  43.254  -8.211  1.00  0.00     0.009 C
HETATM   36  C19 UNL     1      13.549  42.445  -6.975  1.00  0.00     0.020 C
HETATM   37  C20 UNL     1      13.744  44.585  -8.127  1.00  0.00     0.020 C
BRANCH  35  38
HETATM   38  C21 UNL     1      11.601  43.274  -8.129  1.00  0.00     0.060 C
HETATM   39  C22 UNL     1      10.828  42.857  -9.321  1.00  0.00     0.046 C
HETATM   40  C23 UNL     1      11.125  44.668  -7.687  1.00  0.00     0.046 C
BRANCH  38  41
HETATM   41  O7  UNL     1      11.233  42.426  -7.060  1.00  0.00    -0.390 OA
ATOM     42  H7  UNL     1      10.517  41.883  -7.368  1.00  0.00     0.210 HD
ENDBRANCH  38  41
ENDBRANCH  35  38
ENDBRANCH  31  35
ENDBRANCH  28  29
ENDBRANCH  26  28
ENDBRANCH  23  26
ENDBRANCH   1  23
TORSDOF 20
ENDMDL