MODEL 3
REMARK VINA RESULT: -8.786888800      1.539      2.402
REMARK  15 active torsions:
REMARK  status: ('A' for Active; 'I' for Inactive)
REMARK    1  A    between atoms: C2_3  and  N2_4
REMARK    2  A    between atoms: C2_3  and  C3_8
REMARK    3  A    between atoms: C3_8  and  C4_9
REMARK    4  A    between atoms: C4_9  and  C5_10
REMARK    5  A    between atoms: C5_10  and  N3_11
REMARK    6  A    between atoms: N3_11  and  C6_12
REMARK    7  A    between atoms: N3_11  and  C15_25
REMARK    8  A    between atoms: C6_12  and  C7_13
REMARK    9  A    between atoms: C7_13  and  C8_14
REMARK   10  A    between atoms: C15_25  and  C16_26
REMARK   11  A    between atoms: C17_29  and  N7_30
REMARK   12  A    between atoms: C18_34  and  C19_35
REMARK   13  A    between atoms: C19_35  and  C20_36
REMARK   14  A    between atoms: C20_36  and  C21_37
REMARK   15  A    between atoms: C24_40  and  C25_41
ROOT
HETATM    1  N1  UNL     1       8.749  36.066  -1.716  1.00  0.00    -0.195 NA
HETATM    2  C1  UNL     1       9.240  37.000  -2.215  1.00  0.00     0.092 C
HETATM    3  C2  UNL     1       9.851  38.159  -2.860  1.00  0.00     0.289 C
ENDROOT
BRANCH   3   4
HETATM    4  N2  UNL     1       9.704  39.321  -2.046  1.00  0.00    -0.063 N
ATOM      5  H23 UNL     1       9.706  39.090  -1.052  1.00  0.00     0.275 HD
ATOM      6  H22 UNL     1      10.539  39.906  -2.067  1.00  0.00     0.275 HD
ATOM      7  H21 UNL     1       8.869  39.842  -2.313  1.00  0.00     0.275 HD
ENDBRANCH   3   4
BRANCH   3   8
HETATM    8  C3  UNL     1       9.326  38.329  -4.276  1.00  0.00     0.049 C
BRANCH   8   9
HETATM    9  C4  UNL     1      10.369  39.158  -5.026  1.00  0.00     0.033 C
BRANCH   9  10
HETATM   10  C5  UNL     1      11.195  38.317  -5.929  1.00  0.00     0.273 C
BRANCH  10  11
HETATM   11  N3  UNL     1      11.490  38.968  -7.208  1.00  0.00     0.094 N
BRANCH  11  12
HETATM   12  C6  UNL     1      12.230  37.975  -8.017  1.00  0.00     0.277 C
BRANCH  12  13
HETATM   13  C7  UNL     1      13.533  38.482  -8.542  1.00  0.00     0.069 C
BRANCH  13  14
HETATM   14  C8  UNL     1      13.599  38.068  -9.992  1.00  0.00    -0.054 A
HETATM   15  C9  UNL     1      13.980  39.013 -10.915  1.00  0.00     0.009 A
HETATM   16  C10 UNL     1      14.038  38.645 -12.236  1.00  0.00     0.032 A
HETATM   17  C11 UNL     1      13.723  37.361 -12.632  1.00  0.00     0.060 A
HETATM   18  N4  UNL     1      13.706  36.777 -13.836  1.00  0.00    -0.351 N
HETATM   19  C13 UNL     1      13.343  36.422 -11.704  1.00  0.00     0.060 A
HETATM   20  C12 UNL     1      13.322  35.490 -13.689  1.00  0.00     0.181 A
ATOM     21  H4  UNL     1      13.943  37.228 -14.719  1.00  0.00     0.166 HD
HETATM   22  N5  UNL     1      13.106  35.294 -12.376  1.00  0.00    -0.350 N
ATOM     23  H5  UNL     1      12.805  34.415 -11.956  1.00  0.00     0.166 HD
HETATM   24  C14 UNL     1      13.286  36.798 -10.375  1.00  0.00     0.039 A
ENDBRANCH  13  14
ENDBRANCH  12  13
ENDBRANCH  11  12
BRANCH  11  25
HETATM   25  C15 UNL     1      12.246  40.164  -7.061  1.00  0.00     0.330 C
BRANCH  25  26
HETATM   26  C16 UNL     1      11.868  41.196  -8.123  1.00  0.00     0.052 A
HETATM   27  N6  UNL     1      10.675  41.300  -8.662  1.00  0.00    -0.338 N
HETATM   28  C17 UNL     1      10.443  42.272  -9.543  1.00  0.00     0.142 A
ATOM     29  H6  UNL     1       9.935  40.645  -8.409  1.00  0.00     0.168 HD
HETATM   30  S1  UNL     1      11.943  43.080  -9.626  1.00  0.00    -0.057 SA
HETATM   31  C18 UNL     1      12.808  42.125  -8.519  1.00  0.00     0.011 A
BRANCH  28  32
HETATM   32  N7  UNL     1       9.324  42.535 -10.187  1.00  0.00    -0.380 N
ATOM     33  H72 UNL     1       8.427  42.051 -10.140  1.00  0.00     0.158 HD
ATOM     34  H71 UNL     1       9.146  43.281 -10.860  1.00  0.00     0.158 HD
ENDBRANCH  28  32
BRANCH  31  35
HETATM   35  C19 UNL     1      14.239  42.279  -8.091  1.00  0.00     0.053 C
BRANCH  35  36
HETATM   36  C20 UNL     1      15.222  42.035  -9.186  1.00  0.00     0.043 C
BRANCH  36  37
HETATM   37  C21 UNL     1      16.407  42.944  -9.058  1.00  0.00    -0.058 A
HETATM   38  C22 UNL     1      16.492  43.909  -8.067  1.00  0.00     0.008 A
HETATM   39  C23 UNL     1      17.575  44.747  -7.946  1.00  0.00     0.015 A
HETATM   40  C24 UNL     1      18.636  44.636  -8.844  1.00  0.00     0.004 A
HETATM   41  C26 UNL     1      18.539  43.683  -9.812  1.00  0.00     0.015 A
HETATM   42  C27 UNL     1      17.446  42.836  -9.938  1.00  0.00     0.008 A
BRANCH  40  43
HETATM   43  C25 UNL     1      19.774  45.524  -8.708  1.00  0.00     0.120 C
HETATM   44  N8  UNL     1      20.956  45.089  -8.539  1.00  0.00    -0.387 N
ATOM     45  H82 UNL     1      21.075  44.076  -8.503  1.00  0.00     0.157 HD
ATOM     46  H81 UNL     1      21.757  45.714  -8.444  1.00  0.00     0.157 HD
HETATM   47  N9  UNL     1      19.606  46.948  -8.758  1.00  0.00    -0.082 NA
ENDBRANCH  40  43
ENDBRANCH  36  37
ENDBRANCH  35  36
ENDBRANCH  31  35
ENDBRANCH  25  26
ENDBRANCH  11  25
ENDBRANCH  10  11
ENDBRANCH   9  10
ENDBRANCH   8   9
ENDBRANCH   3   8
TORSDOF 15
ENDMDL