MODEL 2
REMARK VINA RESULT: -7.832932601      3.379      4.518
REMARK  15 active torsions:
REMARK  status: ('A' for Active; 'I' for Inactive)
REMARK    1  A    between atoms: C3_7  and  N3_8
REMARK    2  A    between atoms: C5_15  and  C6_16
REMARK       I    between atoms: C6_16  and  N5_18
REMARK    3  A    between atoms: N5_18  and  C7_19
REMARK    4  A    between atoms: C7_19  and  C8_20
REMARK    5  A    between atoms: C8_20  and  C9_21
REMARK    6  A    between atoms: C9_21  and  C10_22
REMARK    7  A    between atoms: C10_22  and  C11_23
REMARK    8  A    between atoms: C11_23  and  C12_24
REMARK    9  A    between atoms: C12_24  and  N7_28
REMARK   10  A    between atoms: N7_28  and  C13_30
REMARK   11  A    between atoms: C13_30  and  C14_31
REMARK   12  A    between atoms: C14_31  and  C15_32
REMARK   13  A    between atoms: C15_32  and  C16_33
REMARK   14  A    between atoms: C16_33  and  C17_34
REMARK   15  A    between atoms: C17_34  and  C18_35
ROOT
HETATM    1  C8  UNL     1      12.009  41.144  -8.828  1.00  0.00     0.060 C
ENDROOT
BRANCH   1   2
HETATM    2  C7  UNL     1      12.986  40.801  -9.875  1.00  0.00     0.159 C
BRANCH   2   3
HETATM    3  N5  UNL     1      13.450  39.490  -9.943  1.00  0.00    -0.383 NA
HETATM    4  C6  UNL     1      13.904  38.215 -10.000  1.00  0.00     0.332 C
HETATM    5  O1  UNL     1      14.397  37.530  -9.069  1.00  0.00    -0.250 OA
BRANCH   4   6
HETATM    6  C5  UNL     1      13.829  37.515 -11.329  1.00  0.00     0.090 A
HETATM    7  S1  UNL     1      13.286  35.936 -11.654  1.00  0.00    -0.064 SA
HETATM    8  C4  UNL     1      13.514  35.922 -13.355  1.00  0.00     0.105 A
HETATM    9  N4  UNL     1      13.297  34.972 -14.319  1.00  0.00    -0.185 N
HETATM   10  C24 UNL     1      14.010  37.168 -13.625  1.00  0.00     0.044 A
HETATM   11  C3  UNL     1      13.572  35.233 -15.604  1.00  0.00     0.678 A
ATOM     12  H4  UNL     1      12.924  34.059 -14.057  1.00  0.00     0.185 HD
HETATM   13  N2  UNL     1      14.050  36.432 -15.883  1.00  0.00    -0.176 N
HETATM   14  C2  UNL     1      14.292  37.431 -14.981  1.00  0.00     0.129 A
ATOM     15  H2  UNL     1      14.258  36.631 -16.862  1.00  0.00     0.186 HD
HETATM   16  N1  UNL     1      14.725  38.481 -15.490  1.00  0.00    -0.379 N
HETATM   17  C1  UNL     1      15.109  39.725 -15.064  1.00  0.00     0.147 C
ATOM     18  H1  UNL     1      14.819  38.390 -16.502  1.00  0.00     0.160 HD
HETATM   19  C23 UNL     1      14.170  37.987 -12.560  1.00  0.00     0.044 A
BRANCH  11  20
HETATM   20  N3  UNL     1      13.377  34.359 -16.524  1.00  0.00    -0.234 N
ATOM     21  H32 UNL     1      14.029  34.247 -17.300  1.00  0.00     0.174 HD
ATOM     22  H31 UNL     1      12.562  33.746 -16.510  1.00  0.00     0.174 HD
ENDBRANCH  11  20
ENDBRANCH   4   6
ENDBRANCH   2   3
ENDBRANCH   1   2
BRANCH   1  23
HETATM   23  C9  UNL     1      12.589  41.263  -7.456  1.00  0.00     0.006 C
BRANCH  23  24
HETATM   24  C10 UNL     1      11.708  40.686  -6.403  1.00  0.00     0.008 C
BRANCH  24  25
HETATM   25  C11 UNL     1      11.136  39.369  -6.787  1.00  0.00     0.075 C
BRANCH  25  26
HETATM   26  C12 UNL     1      11.787  38.225  -6.116  1.00  0.00     0.070 C
HETATM   27  N6  UNL     1      12.844  37.633  -6.603  1.00  0.00    -0.389 N
ATOM     28  H62 UNL     1      13.207  38.036  -7.466  1.00  0.00     0.157 HD
ATOM     29  H61 UNL     1      13.294  36.843  -6.140  1.00  0.00     0.157 HD
BRANCH  26  30
HETATM   30  N7  UNL     1      11.284  37.666  -4.920  1.00  0.00    -0.380 N
ATOM     31  H7  UNL     1      11.419  36.666  -4.772  1.00  0.00     0.160 HD
BRANCH  30  32
HETATM   32  C13 UNL     1      10.594  38.408  -3.894  1.00  0.00     0.121 C
BRANCH  32  33
HETATM   33  C14 UNL     1       9.100  38.107  -3.921  1.00  0.00     0.020 C
BRANCH  33  34
HETATM   34  C15 UNL     1       8.309  39.303  -3.428  1.00  0.00     0.002 C
BRANCH  34  35
HETATM   35  C16 UNL     1       8.700  40.551  -4.174  1.00  0.00     0.003 C
BRANCH  35  36
HETATM   36  C17 UNL     1       7.916  41.728  -3.626  1.00  0.00     0.034 C
BRANCH  36  37
HETATM   37  C18 UNL     1       6.490  41.716  -4.126  1.00  0.00     0.149 C
HETATM   38  C19 UNL     1       6.338  42.866  -5.119  1.00  0.00     0.203 C
HETATM   39  O2  UNL     1       6.181  43.929  -4.260  1.00  0.00    -0.353 OA
HETATM   40  C20 UNL     1       5.492  43.472  -3.139  1.00  0.00     0.157 C
HETATM   41  C21 UNL     1       6.168  44.012  -1.898  1.00  0.00     0.078 C
HETATM   42  C22 UNL     1       4.059  43.944  -3.173  1.00  0.00     0.078 C
HETATM   43  O3  UNL     1       5.600  42.082  -3.111  1.00  0.00    -0.348 OA
ENDBRANCH  36  37
ENDBRANCH  35  36
ENDBRANCH  34  35
ENDBRANCH  33  34
ENDBRANCH  32  33
ENDBRANCH  30  32
ENDBRANCH  26  30
ENDBRANCH  25  26
ENDBRANCH  24  25
ENDBRANCH  23  24
ENDBRANCH   1  23
TORSDOF 15
ENDMDL