MODEL 2
REMARK VINA RESULT: -8.202144291      3.524      6.825
REMARK  15 active torsions:
REMARK  status: ('A' for Active; 'I' for Inactive)
REMARK    1  A    between atoms: C4_4  and  N1_5
REMARK    2  A    between atoms: N1_5  and  C5_7
REMARK    3  A    between atoms: C5_7  and  C6_8
REMARK    4  A    between atoms: C6_8  and  C7_9
REMARK    5  A    between atoms: C7_9  and  C8_10
REMARK    6  A    between atoms: C8_10  and  C9_11
REMARK    7  A    between atoms: C9_11  and  C10_12
REMARK    8  A    between atoms: C10_12  and  C11_13
REMARK    9  A    between atoms: C11_13  and  C12_14
REMARK   10  A    between atoms: C12_14  and  N2_15
REMARK   11  A    between atoms: N2_15  and  C13_17
REMARK   12  A    between atoms: C16_22  and  N4_23
REMARK   13  A    between atoms: C17_28  and  N6_29
REMARK   14  A    between atoms: C19_33  and  C20_34
REMARK   15  A    between atoms: C20_34  and  C21_35
ROOT
HETATM    1  N1  UNL     1      13.442  38.402 -10.954  1.00  0.00    -0.388 N
ATOM      2  H1  UNL     1      12.470  38.393 -10.643  1.00  0.00     0.159 HD
ENDROOT
BRANCH   1   3
HETATM    3  C4  UNL     1      13.746  38.081 -12.299  1.00  0.00     0.061 A
HETATM    4  C3  UNL     1      13.999  39.144 -13.182  1.00  0.00     0.039 A
HETATM    5  C2  UNL     1      14.346  38.957 -14.497  1.00  0.00    -0.053 A
HETATM    6  C1  UNL     1      14.590  40.147 -15.362  1.00  0.00     0.049 C
HETATM    7  C19 UNL     1      14.446  37.660 -14.957  1.00  0.00    -0.045 A
HETATM    8  C18 UNL     1      14.202  36.611 -14.107  1.00  0.00     0.046 A
HETATM    9  C17 UNL     1      13.844  36.811 -12.751  1.00  0.00     0.129 A
BRANCH   7  10
HETATM   10  C20 UNL     1      14.795  37.348 -16.336  1.00  0.00     0.085 C
BRANCH  10  11
HETATM   11  C21 UNL     1      14.804  35.942 -16.735  1.00  0.00     0.036 A
HETATM   12  C22 UNL     1      16.026  35.254 -16.705  1.00  0.00     0.022 A
HETATM   13  C23 UNL     1      17.226  36.034 -16.281  1.00  0.00     0.069 C
HETATM   14  N7  UNL     1      16.124  33.964 -17.042  1.00  0.00    -0.312 N
HETATM   15  C24 UNL     1      15.041  33.261 -17.428  1.00  0.00     0.327 A
ATOM     16  H7  UNL     1      17.034  33.504 -17.006  1.00  0.00     0.170 HD
HETATM   17  O3  UNL     1      15.139  32.039 -17.746  1.00  0.00    -0.247 OA
HETATM   18  N8  UNL     1      13.860  33.898 -17.465  1.00  0.00    -0.275 N
HETATM   19  C25 UNL     1      13.713  35.201 -17.134  1.00  0.00     0.257 A
ATOM     20  H8  UNL     1      13.035  33.374 -17.757  1.00  0.00     0.173 HD
HETATM   21  O4  UNL     1      12.598  35.771 -17.177  1.00  0.00    -0.267 OA
ENDBRANCH  10  11
ENDBRANCH   7  10
BRANCH   9  22
HETATM   22  N6  UNL     1      13.608  35.691 -11.936  1.00  0.00    -0.113 N
HETATM   23  O1  UNL     1      12.637  34.963 -12.068  1.00  0.00    -0.532 OA
HETATM   24  O2  UNL     1      14.533  35.347 -10.949  1.00  0.00    -0.532 OA
ENDBRANCH   9  22
ENDBRANCH   1   3
BRANCH   1  25
HETATM   25  C5  UNL     1      14.494  38.745 -10.009  1.00  0.00     0.120 C
BRANCH  25  26
HETATM   26  C6  UNL     1      14.528  40.235  -9.842  1.00  0.00     0.020 C
BRANCH  26  27
HETATM   27  C7  UNL     1      15.828  40.886 -10.159  1.00  0.00     0.002 C
BRANCH  27  28
HETATM   28  C8  UNL     1      16.039  42.216  -9.456  1.00  0.00     0.000 C
BRANCH  28  29
HETATM   29  C9  UNL     1      14.696  42.735  -8.996  1.00  0.00     0.000 C
BRANCH  29  30
HETATM   30  C10 UNL     1      14.706  43.093  -7.528  1.00  0.00     0.002 C
BRANCH  30  31
HETATM   31  C11 UNL     1      13.562  42.474  -6.790  1.00  0.00     0.020 C
BRANCH  31  32
HETATM   32  C12 UNL     1      12.337  42.211  -7.606  1.00  0.00     0.121 C
BRANCH  32  33
HETATM   33  N2  UNL     1      11.390  41.396  -6.921  1.00  0.00    -0.376 N
ATOM     34  H2  UNL     1      10.487  41.837  -6.751  1.00  0.00     0.161 HD
BRANCH  33  35
HETATM   35  C13 UNL     1      11.494  40.216  -6.491  1.00  0.00     0.118 A
HETATM   36  C14 UNL     1      12.131  39.264  -7.297  1.00  0.00     0.066 A
HETATM   37  C15 UNL     1      12.273  37.957  -6.880  1.00  0.00     0.110 A
HETATM   38  N3  UNL     1      11.803  37.578  -5.691  1.00  0.00    -0.202 N
HETATM   39  C16 UNL     1      11.197  38.511  -4.938  1.00  0.00     0.677 A
ATOM     40  H3  UNL     1      11.899  36.616  -5.366  1.00  0.00     0.183 HD
HETATM   41  N5  UNL     1      11.038  39.794  -5.307  1.00  0.00    -0.177 N
ATOM     42  H5  UNL     1      10.567  40.447  -4.681  1.00  0.00     0.185 HD
BRANCH  39  43
HETATM   43  N4  UNL     1      10.737  38.155  -3.782  1.00  0.00    -0.234 N
ATOM     44  H42 UNL     1      11.360  37.635  -3.164  1.00  0.00     0.174 HD
ATOM     45  H41 UNL     1       9.777  38.410  -3.549  1.00  0.00     0.174 HD
ENDBRANCH  39  43
ENDBRANCH  33  35
ENDBRANCH  32  33
ENDBRANCH  31  32
ENDBRANCH  30  31
ENDBRANCH  29  30
ENDBRANCH  28  29
ENDBRANCH  27  28
ENDBRANCH  26  27
ENDBRANCH  25  26
ENDBRANCH   1  25
TORSDOF 15
ENDMDL