MODEL 1
REMARK VINA RESULT: -8.140528341      0.000      0.000
REMARK  19 active torsions:
REMARK  status: ('A' for Active; 'I' for Inactive)
REMARK    1  A    between atoms: C2_2  and  C3_3
REMARK    2  A    between atoms: C3_3  and  C4_4
REMARK    3  A    between atoms: C4_4  and  C5_5
REMARK    4  A    between atoms: C5_5  and  C6_6
REMARK    5  A    between atoms: C6_6  and  C7_7
REMARK    6  A    between atoms: C7_7  and  C8_8
REMARK    7  A    between atoms: C12_16  and  C13_17
REMARK    8  A    between atoms: C13_17  and  O1_18
REMARK    9  A    between atoms: C13_17  and  N3_20
REMARK   10  A    between atoms: N3_20  and  C14_21
REMARK   11  A    between atoms: N3_20  and  C17_26
REMARK   12  A    between atoms: C14_21  and  C15_22
REMARK   13  A    between atoms: C15_22  and  C16_23
REMARK   14  A    between atoms: C16_23  and  O2_24
REMARK   15  A    between atoms: C17_26  and  C18_27
REMARK   16  A    between atoms: C21_30  and  C22_31
REMARK   17  A    between atoms: C22_31  and  N4_32
REMARK   18  A    between atoms: C22_31  and  N5_36
REMARK   19  A    between atoms: C25_46  and  N8_47
ROOT
HETATM    1  N3  UNL     1      14.278  38.127 -11.070  1.00  0.00    -0.357 N
ENDROOT
BRANCH   1   2
HETATM    2  C13 UNL     1      14.039  38.244  -9.692  1.00  0.00     0.148 C
BRANCH   2   3
HETATM    3  C12 UNL     1      13.146  39.038  -8.908  1.00  0.00     0.016 A
HETATM    4  C11 UNL     1      12.874  40.357  -9.326  1.00  0.00     0.018 A
HETATM    5  C10 UNL     1      12.053  41.213  -8.653  1.00  0.00     0.033 A
HETATM    6  C9  UNL     1      11.431  40.830  -7.505  1.00  0.00     0.060 A
HETATM    7  N2  UNL     1      10.598  41.428  -6.620  1.00  0.00    -0.300 N
HETATM    8  C28 UNL     1      11.652  39.559  -7.044  1.00  0.00     0.017 A
HETATM    9  N1  UNL     1      10.284  40.617  -5.640  1.00  0.00    -0.304 N
ATOM     10  H2  UNL     1      10.258  42.386  -6.705  1.00  0.00     0.187 HD
HETATM   11  C8  UNL     1      10.930  39.427  -5.875  1.00  0.00     0.038 A
ATOM     12  H1  UNL     1       9.674  40.828  -4.850  1.00  0.00     0.186 HD
HETATM   13  C27 UNL     1      12.505  38.686  -7.752  1.00  0.00     0.031 A
BRANCH  11  14
HETATM   14  C7  UNL     1      10.823  38.208  -5.061  1.00  0.00     0.059 C
BRANCH  14  15
HETATM   15  C6  UNL     1      10.370  38.441  -3.665  1.00  0.00     0.006 C
BRANCH  15  16
HETATM   16  C5  UNL     1       9.338  37.536  -3.100  1.00  0.00     0.000 C
BRANCH  16  17
HETATM   17  C4  UNL     1       9.813  36.947  -1.779  1.00  0.00     0.000 C
BRANCH  17  18
HETATM   18  C3  UNL     1       8.680  36.462  -0.934  1.00  0.00    -0.000 C
BRANCH  18  19
HETATM   19  C2  UNL     1       8.559  37.139   0.389  1.00  0.00    -0.005 C
HETATM   20  C1  UNL     1       9.602  38.258   0.420  1.00  0.00     0.005 C
ENDBRANCH  18  19
ENDBRANCH  17  18
ENDBRANCH  16  17
ENDBRANCH  15  16
ENDBRANCH  14  15
ENDBRANCH  11  14
ENDBRANCH   2   3
BRANCH   2  21
HETATM   21  O1  UNL     1      14.805  37.449  -8.948  1.00  0.00    -0.346 OA
ATOM     22  H1  UNL     1      15.231  36.769  -9.458  1.00  0.00     0.219 HD
ENDBRANCH   2  21
ENDBRANCH   1   2
BRANCH   1  23
HETATM   23  C14 UNL     1      13.289  37.253 -11.760  1.00  0.00     0.127 C
BRANCH  23  24
HETATM   24  C15 UNL     1      13.553  35.818 -11.521  1.00  0.00     0.046 C
BRANCH  24  25
HETATM   25  C16 UNL     1      13.121  34.953 -12.685  1.00  0.00     0.165 C
BRANCH  25  26
HETATM   26  O2  UNL     1      12.896  33.640 -12.311  1.00  0.00    -0.401 OA
ATOM     27  H2  UNL     1      12.264  33.208 -12.873  1.00  0.00     0.209 HD
ENDBRANCH  25  26
ENDBRANCH  24  25
ENDBRANCH  23  24
ENDBRANCH   1  23
BRANCH   1  28
HETATM   28  C17 UNL     1      15.339  38.708 -11.881  1.00  0.00     0.164 C
BRANCH  28  29
HETATM   29  C18 UNL     1      14.706  39.278 -13.069  1.00  0.00    -0.024 A
HETATM   30  C19 UNL     1      13.857  40.393 -12.987  1.00  0.00     0.010 A
HETATM   31  C20 UNL     1      13.247  40.963 -14.080  1.00  0.00     0.014 A
HETATM   32  C21 UNL     1      13.451  40.448 -15.319  1.00  0.00     0.026 A
HETATM   33  C23 UNL     1      14.271  39.361 -15.438  1.00  0.00     0.057 A
HETATM   34  N6  UNL     1      14.461  38.858 -16.672  1.00  0.00    -0.351 N
HETATM   35  C26 UNL     1      14.908  38.756 -14.346  1.00  0.00     0.043 A
HETATM   36  C24 UNL     1      15.254  37.791 -16.839  1.00  0.00     0.182 A
ATOM     37  H6  UNL     1      14.004  39.287 -17.476  1.00  0.00     0.166 HD
HETATM   38  N7  UNL     1      15.877  37.190 -15.816  1.00  0.00    -0.338 N
HETATM   39  C25 UNL     1      15.713  37.664 -14.543  1.00  0.00     0.113 A
ATOM     40  H7  UNL     1      16.472  36.379 -15.986  1.00  0.00     0.168 HD
BRANCH  32  41
HETATM   41  C22 UNL     1      12.808  41.036 -16.526  1.00  0.00     0.413 C
BRANCH  41  42
HETATM   42  N4  UNL     1      11.381  41.237 -16.298  1.00  0.00    -0.046 N
ATOM     43  H43 UNL     1      10.839  40.405 -16.531  1.00  0.00     0.277 HD
ATOM     44  H42 UNL     1      11.158  41.290 -15.304  1.00  0.00     0.277 HD
ATOM     45  H41 UNL     1      11.050  42.058 -16.804  1.00  0.00     0.277 HD
ENDBRANCH  41  42
BRANCH  41  46
HETATM   46  N5  UNL     1      13.359  42.344 -16.832  1.00  0.00    -0.046 N
ATOM     47  H53 UNL     1      13.562  42.442 -17.827  1.00  0.00     0.277 HD
ATOM     48  H52 UNL     1      12.656  43.077 -16.743  1.00  0.00     0.277 HD
ATOM     49  H51 UNL     1      14.180  42.543 -16.261  1.00  0.00     0.277 HD
ENDBRANCH  41  46
ENDBRANCH  32  41
BRANCH  39  50
HETATM   50  N8  UNL     1      16.294  37.098 -13.557  1.00  0.00    -0.385 N
ATOM     51  H82 UNL     1      16.712  36.174 -13.662  1.00  0.00     0.157 HD
ATOM     52  H81 UNL     1      16.353  37.563 -12.651  1.00  0.00     0.157 HD
ENDBRANCH  39  50
ENDBRANCH  28  29
ENDBRANCH   1  28
TORSDOF 19
ENDMDL