MODEL 1
REMARK VINA RESULT: -8.523515765      0.000      0.000
REMARK  13 active torsions:
REMARK  status: ('A' for Active; 'I' for Inactive)
REMARK    1  A    between atoms: C5_5  and  O1_6
REMARK    2  A    between atoms: C5_5  and  O2_8
REMARK    3  A    between atoms: O2_8  and  C6_9
REMARK    4  A    between atoms: C6_9  and  C7_10
REMARK    5  A    between atoms: C8_12  and  O4_13
REMARK    6  A    between atoms: O4_13  and  C9_14
REMARK    7  A    between atoms: C9_14  and  C10_15
REMARK    8  A    between atoms: C11_17  and  C12_18
REMARK    9  A    between atoms: C12_18  and  O6_19
REMARK   10  A    between atoms: C13_21  and  O7_22
REMARK   11  A    between atoms: C14_24  and  O8_25
REMARK   12  A    between atoms: C15_27  and  O9_28
REMARK   13  A    between atoms: C21_35  and  O10_36
ROOT
HETATM    1  C1  UNL     1       1.499 -35.127  -8.958  1.00  0.00     0.017 C
HETATM    2  C2  UNL     1       0.883 -34.091  -9.041  1.00  0.00    -0.078 C
HETATM    3  C3  UNL     1       0.138 -32.871  -9.141  1.00  0.00     0.048 C
HETATM    4  C4  UNL     1       0.621 -31.627  -8.492  1.00  0.00     0.063 C
HETATM    5  C5  UNL     1      -0.994 -32.825  -9.811  1.00  0.00     0.193 C
ENDROOT
BRANCH   5   6
HETATM    6  O1  UNL     1      -1.751 -31.668  -9.935  1.00  0.00    -0.340 OA
ATOM      7  H1  UNL     1      -1.365 -30.807 -10.040  1.00  0.00     0.220 HD
ENDBRANCH   5   6
BRANCH   5   8
HETATM    8  O2  UNL     1      -1.519 -33.962 -10.453  1.00  0.00    -0.327 OA
BRANCH   8   9
HETATM    9  C6  UNL     1      -2.255 -33.804 -11.676  1.00  0.00     0.210 C
BRANCH   9  10
HETATM   10  C7  UNL     1      -1.714 -34.788 -12.640  1.00  0.00     0.156 C
HETATM   11  O3  UNL     1      -2.465 -35.909 -12.826  1.00  0.00    -0.353 OA
HETATM   12  C8  UNL     1      -1.877 -36.555 -13.987  1.00  0.00     0.268 C
HETATM   13  C16 UNL     1      -1.093 -35.559 -14.675  1.00  0.00     0.078 C
HETATM   14  C17 UNL     1      -1.014 -35.393 -16.105  1.00  0.00    -0.080 C
HETATM   15  C22 UNL     1      -1.717 -34.256 -14.100  1.00  0.00     0.058 C
HETATM   16  C18 UNL     1      -0.136 -36.017 -16.889  1.00  0.00     0.015 C
HETATM   17  C19 UNL     1      -1.917 -34.437 -16.799  1.00  0.00     0.036 C
HETATM   18  C20 UNL     1      -3.218 -34.362 -16.062  1.00  0.00     0.036 C
HETATM   19  C21 UNL     1      -3.112 -34.169 -14.597  1.00  0.00     0.126 C
BRANCH  12  20
HETATM   20  O4  UNL     1      -2.860 -37.284 -14.593  1.00  0.00    -0.358 OA
BRANCH  20  21
HETATM   21  C9  UNL     1      -3.810 -37.680 -13.671  1.00  0.00     0.205 C
BRANCH  21  22
HETATM   22  C10 UNL     1      -5.192 -37.861 -14.158  1.00  0.00     0.177 C
HETATM   23  O5  UNL     1      -5.211 -38.609 -15.380  1.00  0.00    -0.371 OA
HETATM   24  C11 UNL     1      -6.446 -38.370 -15.936  1.00  0.00     0.177 C
HETATM   25  C13 UNL     1      -7.619 -38.461 -15.043  1.00  0.00     0.180 C
HETATM   26  C14 UNL     1      -7.345 -38.958 -13.653  1.00  0.00     0.180 C
HETATM   27  C15 UNL     1      -5.930 -38.860 -13.236  1.00  0.00     0.180 C
BRANCH  24  28
HETATM   28  C12 UNL     1      -6.592 -39.296 -17.151  1.00  0.00     0.198 C
BRANCH  28  29
HETATM   29  O6  UNL     1      -6.277 -38.584 -18.331  1.00  0.00    -0.398 OA
ATOM     30  H6  UNL     1      -7.008 -38.631 -18.936  1.00  0.00     0.209 HD
ENDBRANCH  28  29
ENDBRANCH  24  28
BRANCH  25  31
HETATM   31  O7  UNL     1      -8.285 -37.214 -14.975  1.00  0.00    -0.390 OA
ATOM     32  H7  UNL     1      -7.687 -36.535 -14.684  1.00  0.00     0.210 HD
ENDBRANCH  25  31
BRANCH  26  33
HETATM   33  O8  UNL     1      -8.141 -38.248 -12.766  1.00  0.00    -0.390 OA
ATOM     34  H8  UNL     1      -7.778 -37.375 -12.666  1.00  0.00     0.210 HD
ENDBRANCH  26  33
BRANCH  27  35
HETATM   35  O9  UNL     1      -5.653 -38.552 -11.944  1.00  0.00    -0.390 OA
ATOM     36  H9  UNL     1      -6.377 -38.835 -11.398  1.00  0.00     0.210 HD
ENDBRANCH  27  35
ENDBRANCH  21  22
ENDBRANCH  20  21
ENDBRANCH  12  20
BRANCH  19  37
HETATM   37  O10 UNL     1      -3.716 -32.948 -14.248  1.00  0.00    -0.395 OA
ATOM     38  H10 UNL     1      -4.566 -32.888 -14.669  1.00  0.00     0.210 HD
ENDBRANCH  19  37
ENDBRANCH   9  10
ENDBRANCH   8   9
ENDBRANCH   5   8
TORSDOF 13
ENDMDL