MODEL 1
REMARK VINA RESULT: -7.179486436      0.000      0.000
REMARK  13 active torsions:
REMARK  status: ('A' for Active; 'I' for Inactive)
REMARK    1  A    between atoms: N1_1  and  N2_4
REMARK    2  A    between atoms: N3_6  and  C1_8
REMARK    3  A    between atoms: C2_9  and  O1_10
REMARK    4  A    between atoms: O1_10  and  C3_11
REMARK    5  A    between atoms: C3_11  and  C4_12
REMARK    6  A    between atoms: C5_14  and  O3_15
REMARK    7  A    between atoms: O3_15  and  C6_16
REMARK    8  A    between atoms: C12_22  and  O4_23
REMARK    9  A    between atoms: C13_25  and  O5_26
REMARK   10  A    between atoms: C14_28  and  O6_29
REMARK   11  A    between atoms: C16_32  and  C17_33
REMARK   12  A    between atoms: C18_36  and  O9_37
REMARK   13  A    between atoms: C19_39  and  O10_40
ROOT
HETATM    1  O1  UNL     1      -3.461 -35.817 -13.373  1.00  0.00    -0.381 OA
ENDROOT
BRANCH   1   2
HETATM    2  C2  UNL     1      -2.331 -35.655 -12.601  1.00  0.00     0.149 C
HETATM    3  C1  UNL     1      -2.583 -34.877 -11.353  1.00  0.00     0.161 C
HETATM    4  C19 UNL     1      -2.307 -35.621 -10.071  1.00  0.00     0.174 C
HETATM    5  C18 UNL     1      -0.898 -36.129 -10.100  1.00  0.00     0.163 C
HETATM    6  C16 UNL     1      -0.758 -37.099 -11.243  1.00  0.00     0.120 C
HETATM    7  C15 UNL     1      -1.888 -37.062 -12.210  1.00  0.00     0.052 C
BRANCH   3   8
HETATM    8  N3  UNL     1      -1.664 -33.722 -11.311  1.00  0.00    -0.313 N
HETATM    9  N2  UNL     1      -1.360 -33.115 -12.323  1.00  0.00    -0.253 N
ATOM     10  H2  UNL     1      -0.573 -33.673 -12.655  1.00  0.00     0.207 HD
ATOM     11  H3  UNL     1      -1.276 -33.426 -10.415  1.00  0.00     0.182 HD
BRANCH   9  12
HETATM   12  N1  UNL     1      -1.414 -32.235 -13.204  1.00  0.00    -0.331 N
ATOM     13  H12 UNL     1      -1.872 -32.787 -13.929  1.00  0.00     0.178 HD
ATOM     14  H11 UNL     1      -1.284 -31.322 -13.638  1.00  0.00     0.178 HD
ENDBRANCH   9  12
ENDBRANCH   3   8
BRANCH   4  15
HETATM   15  O10 UNL     1      -3.242 -36.565  -9.735  1.00  0.00    -0.391 OA
ATOM     16  H10 UNL     1      -3.138 -36.945  -8.871  1.00  0.00     0.210 HD
ENDBRANCH   4  15
BRANCH   5  17
HETATM   17  O9  UNL     1      -0.593 -36.735  -8.878  1.00  0.00    -0.392 OA
ATOM     18  H9  UNL     1      -0.055 -36.170  -8.337  1.00  0.00     0.210 HD
ENDBRANCH   5  17
BRANCH   6  19
HETATM   19  C17 UNL     1      -0.563 -38.482 -10.707  1.00  0.00     0.179 C
HETATM   20  O7  UNL     1      -1.575 -39.145 -10.384  1.00  0.00    -0.648 OA
HETATM   21  O8  UNL     1       0.672 -39.055 -10.552  1.00  0.00    -0.648 OA
ENDBRANCH   6  19
ENDBRANCH   1   2
BRANCH   1  22
HETATM   22  C3  UNL     1      -3.297 -35.844 -14.722  1.00  0.00     0.203 C
BRANCH  22  23
HETATM   23  C4  UNL     1      -2.438 -34.703 -15.208  1.00  0.00     0.179 C
HETATM   24  O2  UNL     1      -1.098 -34.914 -15.007  1.00  0.00    -0.348 OA
HETATM   25  C5  UNL     1      -0.484 -35.834 -15.809  1.00  0.00     0.292 C
HETATM   26  C12 UNL     1      -0.903 -35.766 -17.258  1.00  0.00     0.204 C
HETATM   27  C13 UNL     1      -1.507 -34.367 -17.441  1.00  0.00     0.183 C
HETATM   28  C14 UNL     1      -2.793 -34.407 -16.645  1.00  0.00     0.180 C
BRANCH  25  29
HETATM   29  O3  UNL     1      -0.591 -37.156 -15.386  1.00  0.00    -0.353 OA
BRANCH  29  30
HETATM   30  C6  UNL     1       0.601 -37.822 -15.497  1.00  0.00     0.124 C
HETATM   31  C7  UNL     1       0.769 -38.955 -14.523  1.00  0.00     0.032 C
HETATM   32  C8  UNL     1       1.930 -39.795 -14.992  1.00  0.00     0.002 C
HETATM   33  C9  UNL     1       3.178 -39.025 -15.228  1.00  0.00     0.000 C
HETATM   34  C10 UNL     1       3.003 -37.688 -15.847  1.00  0.00     0.002 C
HETATM   35  C11 UNL     1       1.811 -36.921 -15.340  1.00  0.00     0.032 C
ENDBRANCH  29  30
ENDBRANCH  25  29
BRANCH  26  36
HETATM   36  O4  UNL     1       0.172 -35.902 -18.132  1.00  0.00    -0.388 OA
ATOM     37  H4  UNL     1       0.082 -35.362 -18.907  1.00  0.00     0.210 HD
ENDBRANCH  26  36
BRANCH  27  38
HETATM   38  O5  UNL     1      -1.752 -34.121 -18.787  1.00  0.00    -0.390 OA
ATOM     39  H5  UNL     1      -2.132 -33.258 -18.900  1.00  0.00     0.210 HD
ENDBRANCH  27  38
BRANCH  28  40
HETATM   40  O6  UNL     1      -3.572 -35.423 -17.201  1.00  0.00    -0.390 OA
ATOM     41  H6  UNL     1      -3.091 -35.911 -17.860  1.00  0.00     0.210 HD
ENDBRANCH  28  40
ENDBRANCH  22  23
ENDBRANCH   1  22
TORSDOF 13
ENDMDL