MODEL 2
REMARK VINA RESULT: -6.536705252      1.336      1.818
REMARK  13 active torsions:
REMARK  status: ('A' for Active; 'I' for Inactive)
REMARK    1  A    between atoms: C4_4  and  O1_5
REMARK    2  A    between atoms: C5_7  and  O2_8
REMARK    3  A    between atoms: C6_10  and  O3_11
REMARK    4  A    between atoms: C7_13  and  C8_14
REMARK    5  A    between atoms: C8_14  and  S1_15
REMARK    6  A    between atoms: S1_15  and  C9_16
REMARK    7  A    between atoms: C9_16  and  C10_17
REMARK    8  A    between atoms: C10_17  and  C11_18
REMARK    9  A    between atoms: C11_18  and  S2_19
REMARK   10  A    between atoms: S2_19  and  C12_20
REMARK   11  A    between atoms: C15_24  and  O5_25
REMARK   12  A    between atoms: C16_27  and  O6_28
REMARK   13  A    between atoms: C17_30  and  O7_31
ROOT
HETATM    1  C1  UNL     1      -0.668 -35.832 -16.756  1.00  0.00     0.012 C
HETATM    2  C2  UNL     1      -1.146 -35.663 -15.662  1.00  0.00    -0.107 C
HETATM    3  C3  UNL     1      -1.756 -35.459 -14.324  1.00  0.00     0.127 C
HETATM    4  C4  UNL     1      -3.144 -34.914 -14.436  1.00  0.00     0.168 C
HETATM    5  C5  UNL     1      -3.169 -33.575 -13.757  1.00  0.00     0.185 C
HETATM    6  C6  UNL     1      -1.889 -33.472 -13.023  1.00  0.00     0.119 C
HETATM    7  C7  UNL     1      -1.923 -33.890 -11.570  1.00  0.00     0.058 C
HETATM    8  C18 UNL     1      -0.541 -34.431 -11.393  1.00  0.00     0.176 C
HETATM    9  O8  UNL     1      -0.156 -34.993 -12.600  1.00  0.00    -0.381 OA
HETATM   10  C19 UNL     1      -0.914 -34.435 -13.609  1.00  0.00     0.177 C
ENDROOT
BRANCH   4  11
HETATM   11  O1  UNL     1      -3.423 -34.726 -15.807  1.00  0.00    -0.392 OA
ATOM     12  H1  UNL     1      -4.350 -34.538 -15.890  1.00  0.00     0.210 HD
ENDBRANCH   4  11
BRANCH   5  13
HETATM   13  O2  UNL     1      -3.165 -32.555 -14.741  1.00  0.00    -0.390 OA
ATOM     14  H2  UNL     1      -2.699 -31.799 -14.404  1.00  0.00     0.210 HD
ENDBRANCH   5  13
BRANCH   6  15
HETATM   15  O3  UNL     1      -1.343 -32.188 -13.090  1.00  0.00    -0.384 OA
ATOM     16  H3  UNL     1      -0.648 -32.059 -12.456  1.00  0.00     0.210 HD
ENDBRANCH   6  15
BRANCH   7  17
HETATM   17  C8  UNL     1      -2.967 -34.877 -11.247  1.00  0.00     0.083 C
BRANCH  17  18
HETATM   18  S1  UNL     1      -2.474 -36.056 -10.023  1.00  0.00    -0.169 SA
BRANCH  18  19
HETATM   19  C9  UNL     1      -2.728 -37.770 -10.286  1.00  0.00     0.074 C
BRANCH  19  20
HETATM   20  C10 UNL     1      -3.610 -38.102 -11.455  1.00  0.00     0.020 C
BRANCH  20  21
HETATM   21  C11 UNL     1      -5.027 -38.390 -10.913  1.00  0.00     0.077 C
BRANCH  21  22
HETATM   22  S2  UNL     1      -5.947 -39.301 -12.185  1.00  0.00    -0.135 SA
BRANCH  22  23
HETATM   23  C12 UNL     1      -4.956 -39.207 -13.727  1.00  0.00     0.214 C
HETATM   24  O4  UNL     1      -4.600 -40.448 -14.165  1.00  0.00    -0.365 OA
HETATM   25  C13 UNL     1      -4.911 -40.754 -15.462  1.00  0.00     0.150 C
HETATM   26  C14 UNL     1      -4.636 -42.215 -15.723  1.00  0.00     0.042 C
HETATM   27  C15 UNL     1      -6.407 -40.475 -15.645  1.00  0.00     0.178 C
HETATM   28  C16 UNL     1      -6.546 -38.968 -15.666  1.00  0.00     0.181 C
HETATM   29  C17 UNL     1      -5.609 -38.298 -14.696  1.00  0.00     0.188 C
BRANCH  27  30
HETATM   30  O5  UNL     1      -7.150 -40.964 -14.595  1.00  0.00    -0.390 OA
ATOM     31  H5  UNL     1      -7.651 -40.280 -14.168  1.00  0.00     0.210 HD
ENDBRANCH  27  30
BRANCH  28  32
HETATM   32  O6  UNL     1      -6.166 -38.555 -16.950  1.00  0.00    -0.390 OA
ATOM     33  H6  UNL     1      -6.491 -39.216 -17.550  1.00  0.00     0.210 HD
ENDBRANCH  28  32
BRANCH  29  34
HETATM   34  O7  UNL     1      -4.667 -37.483 -15.340  1.00  0.00    -0.389 OA
ATOM     35  H7  UNL     1      -4.245 -37.944 -16.055  1.00  0.00     0.210 HD
ENDBRANCH  29  34
ENDBRANCH  22  23
ENDBRANCH  21  22
ENDBRANCH  20  21
ENDBRANCH  19  20
ENDBRANCH  18  19
ENDBRANCH  17  18
ENDBRANCH   7  17
TORSDOF 13
ENDMDL