MODEL 2
REMARK VINA RESULT: -6.095222171      3.014      6.200
REMARK  13 active torsions:
REMARK  status: ('A' for Active; 'I' for Inactive)
REMARK    1  A    between atoms: O1_2  and  C2_3
REMARK    2  A    between atoms: C2_3  and  C3_4
REMARK    3  A    between atoms: C9_11  and  C10_12
REMARK    4  A    between atoms: C12_14  and  O3_15
REMARK    5  A    between atoms: C13_17  and  O4_18
REMARK    6  A    between atoms: C15_21  and  C16_22
REMARK    7  A    between atoms: C16_22  and  O5_23
REMARK    8  A    between atoms: O5_23  and  C17_24
REMARK    9  A    between atoms: C18_26  and  C19_27
REMARK   10  A    between atoms: C19_27  and  O7_28
REMARK   11  A    between atoms: C20_30  and  O8_31
REMARK   12  A    between atoms: C21_33  and  O9_34
REMARK   13  A    between atoms: C22_36  and  O10_37
ROOT
HETATM    1  C10 UNL     1      -2.797 -35.989 -14.270  1.00  0.00     0.029 C
HETATM    2  C11 UNL     1      -1.649 -36.359 -15.122  1.00  0.00     0.042 C
HETATM    3  C12 UNL     1      -1.574 -35.769 -16.481  1.00  0.00     0.147 C
HETATM    4  C13 UNL     1      -2.229 -34.434 -16.650  1.00  0.00     0.147 C
HETATM    5  C14 UNL     1      -3.446 -34.260 -15.795  1.00  0.00     0.041 C
HETATM    6  C15 UNL     1      -3.062 -34.480 -14.347  1.00  0.00     0.019 C
ENDROOT
BRANCH   6   7
HETATM    7  C16 UNL     1      -1.888 -33.689 -13.933  1.00  0.00     0.176 C
BRANCH   7   8
HETATM    8  O5  UNL     1      -1.912 -33.295 -12.643  1.00  0.00    -0.358 OA
BRANCH   8   9
HETATM    9  C17 UNL     1      -1.670 -34.226 -11.658  1.00  0.00     0.291 C
HETATM   10  O6  UNL     1      -0.474 -34.871 -12.016  1.00  0.00    -0.348 OA
HETATM   11  C18 UNL     1      -0.127 -35.895 -11.182  1.00  0.00     0.179 C
HETATM   12  C20 UNL     1      -0.350 -35.584  -9.716  1.00  0.00     0.180 C
HETATM   13  C21 UNL     1      -0.478 -34.120  -9.444  1.00  0.00     0.183 C
HETATM   14  C22 UNL     1      -1.592 -33.579 -10.327  1.00  0.00     0.204 C
BRANCH  11  15
HETATM   15  C19 UNL     1      -0.678 -37.242 -11.521  1.00  0.00     0.198 C
BRANCH  15  16
HETATM   16  O7  UNL     1      -0.176 -38.307 -10.827  1.00  0.00    -0.398 OA
ATOM     17  H7  UNL     1      -0.627 -39.136 -10.928  1.00  0.00     0.209 HD
ENDBRANCH  15  16
ENDBRANCH  11  15
BRANCH  12  18
HETATM   18  O8  UNL     1      -1.461 -36.238  -9.186  1.00  0.00    -0.390 OA
ATOM     19  H8  UNL     1      -2.206 -36.239  -9.776  1.00  0.00     0.210 HD
ENDBRANCH  12  18
BRANCH  13  20
HETATM   20  O9  UNL     1       0.725 -33.454  -9.699  1.00  0.00    -0.390 OA
ATOM     21  H9  UNL     1       1.264 -33.942 -10.310  1.00  0.00     0.210 HD
ENDBRANCH  13  20
BRANCH  14  22
HETATM   22  O10 UNL     1      -1.298 -32.196 -10.434  1.00  0.00    -0.388 OA
ATOM     23  H10 UNL     1      -1.564 -31.720  -9.657  1.00  0.00     0.210 HD
ENDBRANCH  14  22
ENDBRANCH   8   9
ENDBRANCH   7   8
ENDBRANCH   6   7
BRANCH   1  24
HETATM   24  C9  UNL     1      -4.090 -36.695 -14.546  1.00  0.00     0.192 A
HETATM   25  C2  UNL     1      -4.599 -37.801 -13.749  1.00  0.00     0.194 A
HETATM   26  O2  UNL     1      -3.874 -38.043 -14.932  1.00  0.00    -0.341 OA
BRANCH  25  27
HETATM   27  O1  UNL     1      -3.994 -38.216 -12.568  1.00  0.00    -0.357 OA
HETATM   28  C1  UNL     1      -3.220 -39.348 -12.726  1.00  0.00     0.205 C
ENDBRANCH  25  27
BRANCH  25  29
HETATM   29  C3  UNL     1      -6.053 -38.164 -13.884  1.00  0.00     0.051 C
HETATM   30  C4  UNL     1      -6.295 -39.272 -14.860  1.00  0.00     0.010 C
HETATM   31  C5  UNL     1      -7.649 -39.955 -14.668  1.00  0.00     0.001 C
HETATM   32  C6  UNL     1      -7.790 -40.590 -13.314  1.00  0.00     0.000 C
HETATM   33  C7  UNL     1      -6.677 -40.086 -12.412  1.00  0.00     0.001 C
HETATM   34  C8  UNL     1      -6.666 -38.556 -12.555  1.00  0.00     0.010 C
ENDBRANCH  25  29
ENDBRANCH   1  24
BRANCH   4  35
HETATM   35  O4  UNL     1      -2.657 -34.343 -17.998  1.00  0.00    -0.393 OA
ATOM     36  H4  UNL     1      -3.475 -34.822 -18.067  1.00  0.00     0.210 HD
ENDBRANCH   4  35
BRANCH   3  37
HETATM   37  O3  UNL     1      -0.218 -35.625 -16.817  1.00  0.00    -0.393 OA
ATOM     38  H3  UNL     1      -0.093 -34.749 -17.162  1.00  0.00     0.210 HD
ENDBRANCH   3  37
TORSDOF 13
ENDMDL