MODEL 3
REMARK VINA RESULT: -6.706839188      2.400      6.706
REMARK  12 active torsions:
REMARK  status: ('A' for Active; 'I' for Inactive)
REMARK    1  A    between atoms: C2_2  and  N1_4
REMARK    2  A    between atoms: N1_4  and  C4_6
REMARK    3  A    between atoms: C4_6  and  C5_7
REMARK    4  A    between atoms: C6_9  and  O2_10
REMARK    5  A    between atoms: O2_10  and  C7_11
REMARK    6  A    between atoms: C10_14  and  N2_15
REMARK    7  A    between atoms: C11_19  and  O3_20
REMARK    8  A    between atoms: O3_20  and  C12_21
REMARK    9  A    between atoms: C13_22  and  N3_23
REMARK   10  A    between atoms: C19_33  and  O5_34
REMARK   11  A    between atoms: C21_37  and  O6_38
REMARK   12  A    between atoms: C22_40  and  O7_41
ROOT
HETATM    1  C7  UNL     1      -1.722 -37.505 -11.228  1.00  0.00     0.155 C
HETATM    2  C8  UNL     1      -0.317 -37.277 -10.700  1.00  0.00     0.037 C
HETATM    3  C9  UNL     1      -0.521 -36.258  -9.618  1.00  0.00     0.038 C
HETATM    4  C10 UNL     1      -1.961 -35.796  -9.689  1.00  0.00     0.215 C
HETATM    5  C11 UNL     1      -2.279 -36.123 -11.163  1.00  0.00     0.181 C
ENDROOT
BRANCH   1   6
HETATM    6  O2  UNL     1      -1.751 -38.102 -12.451  1.00  0.00    -0.353 OA
BRANCH   6   7
HETATM    7  C6  UNL     1      -3.063 -38.431 -12.831  1.00  0.00     0.263 C
HETATM    8  O1  UNL     1      -3.552 -39.244 -11.873  1.00  0.00    -0.348 OA
HETATM    9  C5  UNL     1      -4.679 -40.001 -12.146  1.00  0.00     0.193 C
HETATM   10  C22 UNL     1      -5.389 -39.595 -13.390  1.00  0.00     0.181 C
HETATM   11  C21 UNL     1      -4.550 -39.250 -14.563  1.00  0.00     0.154 C
HETATM   12  C20 UNL     1      -3.094 -39.072 -14.191  1.00  0.00     0.095 C
BRANCH   9  13
HETATM   13  C4  UNL     1      -4.252 -41.442 -12.113  1.00  0.00     0.090 C
BRANCH  13  14
HETATM   14  N1  UNL     1      -3.019 -41.775 -11.548  1.00  0.00    -0.396 N
ATOM     15  H1  UNL     1      -2.865 -41.596 -10.556  1.00  0.00     0.159 HD
BRANCH  14  16
HETATM   16  C2  UNL     1      -1.980 -42.350 -12.307  1.00  0.00     0.072 C
HETATM   17  C1  UNL     1      -2.218 -42.667 -13.741  1.00  0.00     0.031 C
HETATM   18  C3  UNL     1      -0.722 -41.462 -12.268  1.00  0.00     0.031 C
ENDBRANCH  14  16
ENDBRANCH  13  14
ENDBRANCH   9  13
BRANCH  10  19
HETATM   19  O7  UNL     1      -6.320 -38.580 -13.075  1.00  0.00    -0.390 OA
ATOM     20  H7  UNL     1      -6.901 -38.456 -13.816  1.00  0.00     0.210 HD
ENDBRANCH  10  19
BRANCH  11  21
HETATM   21  O6  UNL     1      -5.008 -37.999 -15.045  1.00  0.00    -0.393 OA
ATOM     22  H6  UNL     1      -4.780 -37.959 -15.966  1.00  0.00     0.210 HD
ENDBRANCH  11  21
ENDBRANCH   6   7
ENDBRANCH   1   6
BRANCH   5  23
HETATM   23  O3  UNL     1      -1.457 -35.244 -11.887  1.00  0.00    -0.371 OA
BRANCH  23  24
HETATM   24  C12 UNL     1      -1.968 -34.955 -13.152  1.00  0.00     0.181 C
HETATM   25  C13 UNL     1      -2.494 -33.509 -13.135  1.00  0.00     0.217 C
HETATM   26  C14 UNL     1      -3.495 -33.291 -14.259  1.00  0.00     0.070 C
HETATM   27  C15 UNL     1      -2.835 -33.712 -15.515  1.00  0.00     0.153 A
HETATM   28  O4  UNL     1      -3.437 -34.362 -16.557  1.00  0.00    -0.375 OA
HETATM   29  C16 UNL     1      -3.008 -35.227 -15.601  1.00  0.00     0.157 A
HETATM   30  C17 UNL     1      -1.645 -35.806 -15.490  1.00  0.00     0.044 C
HETATM   31  C18 UNL     1      -0.832 -35.443 -16.707  1.00  0.00     0.015 C
HETATM   32  C19 UNL     1      -0.987 -35.143 -14.269  1.00  0.00     0.155 C
BRANCH  25  33
HETATM   33  N3  UNL     1      -1.348 -32.627 -13.383  1.00  0.00    -0.072 N
ATOM     34  H33 UNL     1      -1.175 -31.973 -12.620  1.00  0.00     0.274 HD
ATOM     35  H32 UNL     1      -0.453 -33.115 -13.345  1.00  0.00     0.274 HD
ATOM     36  H31 UNL     1      -1.513 -32.163 -14.277  1.00  0.00     0.274 HD
ENDBRANCH  25  33
BRANCH  32  37
HETATM   37  O5  UNL     1       0.100 -35.892 -13.822  1.00  0.00    -0.392 OA
ATOM     38  H5  UNL     1      -0.156 -36.800 -13.718  1.00  0.00     0.210 HD
ENDBRANCH  32  37
ENDBRANCH  23  24
ENDBRANCH   5  23
BRANCH   4  39
HETATM   39  N2  UNL     1      -2.833 -36.589  -8.844  1.00  0.00    -0.072 N
ATOM     40  H23 UNL     1      -3.166 -37.419  -9.334  1.00  0.00     0.274 HD
ATOM     41  H22 UNL     1      -2.309 -37.044  -8.096  1.00  0.00     0.274 HD
ATOM     42  H21 UNL     1      -3.610 -36.043  -8.472  1.00  0.00     0.274 HD
ENDBRANCH   4  39
TORSDOF 12
ENDMDL