MODEL 1
REMARK VINA RESULT: -6.580274419      0.000      0.000
REMARK  12 active torsions:
REMARK  status: ('A' for Active; 'I' for Inactive)
REMARK    1  A    between atoms: N1_1  and  C1_5
REMARK    2  A    between atoms: C1_5  and  C2_6
REMARK    3  A    between atoms: C3_8  and  O2_9
REMARK    4  A    between atoms: O2_9  and  C4_10
REMARK    5  A    between atoms: C6_12  and  N2_13
REMARK    6  A    between atoms: N3_18  and  C8_19
REMARK    7  A    between atoms: C8_19  and  C9_20
REMARK    8  A    between atoms: C16_27  and  N4_28
REMARK    9  A    between atoms: C17_32  and  O3_33
REMARK   10  A    between atoms: O3_33  and  C18_34
REMARK   11  A    between atoms: C21_39  and  N6_40
REMARK   12  A    between atoms: C22_45  and  O5_46
ROOT
HETATM    1  C2  UNL     1      -5.379 -38.750 -10.189  1.00  0.00     0.181 C
HETATM    2  O1  UNL     1      -4.260 -37.991 -10.385  1.00  0.00    -0.349 OA
HETATM    3  C3  UNL     1      -3.299 -38.532 -11.195  1.00  0.00     0.294 C
HETATM    4  C16 UNL     1      -3.808 -38.907 -12.565  1.00  0.00     0.269 C
HETATM    5  C17 UNL     1      -5.318 -38.909 -12.618  1.00  0.00     0.193 C
HETATM    6  C22 UNL     1      -5.816 -39.579 -11.344  1.00  0.00     0.180 C
ENDROOT
BRANCH   3   7
HETATM    7  O2  UNL     1      -2.276 -37.570 -11.327  1.00  0.00    -0.349 OA
BRANCH   7   8
HETATM    8  C4  UNL     1      -2.751 -36.286 -11.388  1.00  0.00     0.165 C
HETATM    9  C5  UNL     1      -1.889 -35.294 -10.639  1.00  0.00     0.072 C
HETATM   10  C6  UNL     1      -2.134 -33.940 -11.314  1.00  0.00     0.204 C
HETATM   11  C7  UNL     1      -1.432 -34.012 -12.650  1.00  0.00     0.155 C
HETATM   12  N3  UNL     1      -1.924 -35.110 -13.386  1.00  0.00    -0.385 N
HETATM   13  C15 UNL     1      -2.953 -35.886 -12.827  1.00  0.00     0.090 C
BRANCH  10  14
HETATM   14  N2  UNL     1      -1.599 -32.887 -10.476  1.00  0.00    -0.073 N
ATOM     15  H23 UNL     1      -2.019 -31.980 -10.681  1.00  0.00     0.274 HD
ATOM     16  H22 UNL     1      -1.903 -32.971  -9.506  1.00  0.00     0.274 HD
ATOM     17  H21 UNL     1      -0.583 -32.872 -10.563  1.00  0.00     0.274 HD
ENDBRANCH  10  14
BRANCH  12  18
HETATM   18  C8  UNL     1      -1.042 -35.735 -14.306  1.00  0.00     0.160 C
BRANCH  18  19
HETATM   19  C9  UNL     1      -1.374 -35.251 -15.683  1.00  0.00    -0.040 A
HETATM   20  C10 UNL     1      -2.442 -34.437 -15.957  1.00  0.00     0.009 A
HETATM   21  C11 UNL     1      -2.672 -34.042 -17.256  1.00  0.00     0.001 A
HETATM   22  C12 UNL     1      -1.843 -34.454 -18.281  1.00  0.00     0.000 A
HETATM   23  C13 UNL     1      -0.767 -35.272 -18.019  1.00  0.00     0.001 A
HETATM   24  C14 UNL     1      -0.555 -35.656 -16.716  1.00  0.00     0.009 A
ENDBRANCH  18  19
ENDBRANCH  12  18
ENDBRANCH   7   8
ENDBRANCH   3   7
BRANCH   4  25
HETATM   25  N4  UNL     1      -3.346 -40.213 -12.967  1.00  0.00    -0.068 N
ATOM     26  H43 UNL     1      -3.333 -40.306 -13.982  1.00  0.00     0.275 HD
ATOM     27  H42 UNL     1      -2.350 -40.327 -12.784  1.00  0.00     0.275 HD
ATOM     28  H41 UNL     1      -3.892 -40.957 -12.532  1.00  0.00     0.275 HD
ENDBRANCH   4  25
BRANCH   1  29
HETATM   29  C1  UNL     1      -6.514 -37.806  -9.818  1.00  0.00     0.264 C
BRANCH  29  30
HETATM   30  N1  UNL     1      -6.799 -37.866  -8.397  1.00  0.00    -0.077 N
ATOM     31  H13 UNL     1      -6.793 -38.826  -8.052  1.00  0.00     0.274 HD
ATOM     32  H12 UNL     1      -6.026 -37.498  -7.843  1.00  0.00     0.274 HD
ATOM     33  H11 UNL     1      -7.676 -37.394  -8.178  1.00  0.00     0.274 HD
ENDBRANCH  29  30
ENDBRANCH   1  29
BRANCH   5  34
HETATM   34  O3  UNL     1      -5.817 -39.477 -13.761  1.00  0.00    -0.334 OA
BRANCH  34  35
HETATM   35  C18 UNL     1      -5.890 -38.567 -14.815  1.00  0.00     0.372 C
HETATM   36  N5  UNL     1      -5.640 -39.209 -16.081  1.00  0.00    -0.355 N
HETATM   37  C19 UNL     1      -6.614 -39.749 -16.698  1.00  0.00     0.064 C
ATOM     38  H5  UNL     1      -4.699 -39.230 -16.476  1.00  0.00     0.163 HD
HETATM   39  C20 UNL     1      -7.947 -39.672 -16.055  1.00  0.00     0.105 C
HETATM   40  C21 UNL     1      -8.083 -38.246 -15.544  1.00  0.00     0.327 C
HETATM   41  O4  UNL     1      -7.029 -37.809 -14.796  1.00  0.00    -0.310 OA
BRANCH  40  42
HETATM   42  N6  UNL     1      -9.368 -38.132 -14.902  1.00  0.00    -0.052 N
ATOM     43  H63 UNL     1     -10.147 -38.258 -15.548  1.00  0.00     0.277 HD
ATOM     44  H62 UNL     1      -9.574 -38.919 -14.286  1.00  0.00     0.277 HD
ATOM     45  H61 UNL     1      -9.395 -37.234 -14.419  1.00  0.00     0.277 HD
ENDBRANCH  40  42
ENDBRANCH  34  35
ENDBRANCH   5  34
BRANCH   6  46
HETATM   46  O5  UNL     1      -5.386 -40.902 -11.270  1.00  0.00    -0.390 OA
ATOM     47  H5  UNL     1      -6.096 -41.525 -11.167  1.00  0.00     0.210 HD
ENDBRANCH   6  46
TORSDOF 12
ENDMDL