MODEL 5
REMARK VINA RESULT: -6.207674063      3.448      6.114
REMARK  10 active torsions:
REMARK  status: ('A' for Active; 'I' for Inactive)
REMARK    1  A    between atoms: C2_3  and  C3_4
REMARK       I    between atoms: C3_4  and  N2_6
REMARK    2  A    between atoms: N2_6  and  C4_8
REMARK    3  A    between atoms: C4_8  and  C5_9
REMARK    4  A    between atoms: C6_11  and  O3_12
REMARK    5  A    between atoms: O3_12  and  C7_13
REMARK    6  A    between atoms: C12_18  and  N3_19
REMARK       I    between atoms: N3_19  and  C13_21
REMARK    7  A    between atoms: C13_21  and  C14_23
REMARK    8  A    between atoms: C17_30  and  O5_31
REMARK    9  A    between atoms: C18_33  and  O6_34
REMARK   10  A    between atoms: C19_36  and  O7_37
ROOT
HETATM    1  N1  UNL     1       2.505 -39.779 -14.358  1.00  0.00    -0.197 NA
HETATM    2  C1  UNL     1       2.564 -39.097 -15.294  1.00  0.00     0.068 C
HETATM    3  C2  UNL     1       2.626 -38.251 -16.490  1.00  0.00     0.226 C
ENDROOT
BRANCH   3   4
HETATM    4  C3  UNL     1       1.345 -37.461 -16.586  1.00  0.00     0.230 C
HETATM    5  O1  UNL     1       1.056 -36.836 -17.623  1.00  0.00    -0.273 OA
HETATM    6  N2  UNL     1       0.478 -37.442 -15.469  1.00  0.00    -0.358 N
ATOM      7  H2  UNL     1       0.750 -37.964 -14.635  1.00  0.00     0.162 HD
BRANCH   6   8
HETATM    8  C4  UNL     1      -0.750 -36.733 -15.448  1.00  0.00     0.157 C
BRANCH   8   9
HETATM    9  C5  UNL     1      -0.683 -35.245 -15.423  1.00  0.00     0.173 C
HETATM   10  O2  UNL     1      -0.994 -34.839 -14.155  1.00  0.00    -0.349 OA
HETATM   11  C6  UNL     1      -2.226 -34.343 -13.902  1.00  0.00     0.292 C
HETATM   12  C17 UNL     1      -3.333 -34.775 -14.827  1.00  0.00     0.204 C
HETATM   13  C18 UNL     1      -2.969 -34.640 -16.266  1.00  0.00     0.183 C
HETATM   14  C19 UNL     1      -1.494 -34.551 -16.479  1.00  0.00     0.180 C
BRANCH  11  15
HETATM   15  O3  UNL     1      -2.535 -34.591 -12.571  1.00  0.00    -0.351 OA
BRANCH  15  16
HETATM   16  C7  UNL     1      -1.499 -34.948 -11.773  1.00  0.00     0.147 C
HETATM   17  C8  UNL     1      -1.337 -34.089 -10.536  1.00  0.00     0.034 C
HETATM   18  C9  UNL     1      -0.015 -34.505  -9.912  1.00  0.00     0.003 C
HETATM   19  C10 UNL     1      -0.095 -35.925  -9.412  1.00  0.00     0.002 C
HETATM   20  C11 UNL     1      -0.564 -36.880 -10.483  1.00  0.00     0.028 C
HETATM   21  C12 UNL     1      -1.743 -36.352 -11.264  1.00  0.00     0.113 C
BRANCH  21  22
HETATM   22  N3  UNL     1      -2.049 -37.304 -12.291  1.00  0.00    -0.351 N
HETATM   23  C13 UNL     1      -3.235 -38.073 -12.326  1.00  0.00     0.259 C
HETATM   24  O4  UNL     1      -4.076 -37.926 -11.415  1.00  0.00    -0.270 OA
ATOM     25  H3  UNL     1      -1.370 -37.436 -13.040  1.00  0.00     0.163 HD
BRANCH  23  26
HETATM   26  C14 UNL     1      -3.467 -39.018 -13.404  1.00  0.00     0.338 C
HETATM   27  N4  UNL     1      -3.897 -38.448 -14.638  1.00  0.00    -0.053 N
HETATM   28  C15 UNL     1      -5.306 -38.213 -14.616  1.00  0.00     0.244 C
ATOM     29  H42 UNL     1      -3.374 -37.603 -14.868  1.00  0.00     0.279 HD
ATOM     30  H41 UNL     1      -3.620 -39.019 -15.436  1.00  0.00     0.279 HD
HETATM   31  C16 UNL     1      -5.992 -39.564 -14.350  1.00  0.00     0.104 C
HETATM   32  S1  UNL     1      -4.856 -40.165 -13.031  1.00  0.00    -0.125 SA
ENDBRANCH  23  26
ENDBRANCH  21  22
ENDBRANCH  15  16
ENDBRANCH  11  15
BRANCH  12  33
HETATM   33  O5  UNL     1      -4.426 -33.920 -14.543  1.00  0.00    -0.388 OA
ATOM     34  H5  UNL     1      -4.607 -33.456 -15.352  1.00  0.00     0.210 HD
ENDBRANCH  12  33
BRANCH  13  35
HETATM   35  O6  UNL     1      -3.550 -35.649 -17.058  1.00  0.00    -0.390 OA
ATOM     36  H6  UNL     1      -3.867 -35.314 -17.888  1.00  0.00     0.210 HD
ENDBRANCH  13  35
BRANCH  14  37
HETATM   37  O7  UNL     1      -1.202 -34.936 -17.758  1.00  0.00    -0.390 OA
ATOM     38  H7  UNL     1      -1.911 -35.386 -18.203  1.00  0.00     0.210 HD
ENDBRANCH  14  37
ENDBRANCH   8   9
ENDBRANCH   6   8
ENDBRANCH   3   4
TORSDOF 10
ENDMDL