MODEL 1
REMARK VINA RESULT: -6.035271696      0.000      0.000
REMARK  13 active torsions:
REMARK  status: ('A' for Active; 'I' for Inactive)
REMARK    1  A    between atoms: O1_2  and  C2_3
REMARK    2  A    between atoms: C3_5  and  C4_6
REMARK    3  A    between atoms: C4_6  and  O3_7
REMARK    4  A    between atoms: C5_9  and  O4_10
REMARK    5  A    between atoms: C6_12  and  O5_13
REMARK    6  A    between atoms: C7_15  and  O6_16
REMARK    7  A    between atoms: O6_16  and  C8_17
REMARK    8  A    between atoms: C9_18  and  O7_19
REMARK    9  A    between atoms: C10_21  and  O8_22
REMARK   10  A    between atoms: C11_24  and  O9_25
REMARK   11  A    between atoms: C12_27  and  C13_28
REMARK   12  A    between atoms: C13_28  and  O10_29
REMARK   13  A    between atoms: O10_29  and  C14_30
ROOT
HETATM    1  C8  UNL     1      -1.993 -37.854 -11.467  1.00  0.00     0.162 C
HETATM    2  C9  UNL     1      -3.390 -38.501 -11.092  1.00  0.00     0.178 C
HETATM    3  C10 UNL     1      -3.880 -37.534 -10.042  1.00  0.00     0.178 C
HETATM    4  C11 UNL     1      -2.679 -36.917  -9.410  1.00  0.00     0.158 C
HETATM    5  C12 UNL     1      -1.510 -37.632 -10.094  1.00  0.00     0.072 C
ENDROOT
BRANCH   1   6
HETATM    6  O6  UNL     1      -2.200 -36.745 -12.186  1.00  0.00    -0.370 OA
BRANCH   6   7
HETATM    7  C7  UNL     1      -2.286 -36.846 -13.547  1.00  0.00     0.208 C
HETATM    8  C2  UNL     1      -3.421 -35.975 -14.095  1.00  0.00     0.291 C
HETATM    9  O2  UNL     1      -2.973 -34.905 -14.790  1.00  0.00    -0.349 OA
HETATM   10  C3  UNL     1      -1.867 -34.238 -14.431  1.00  0.00     0.179 C
HETATM   11  C5  UNL     1      -0.666 -35.009 -14.014  1.00  0.00     0.180 C
HETATM   12  C6  UNL     1      -0.995 -36.478 -14.197  1.00  0.00     0.183 C
BRANCH   8  13
HETATM   13  O1  UNL     1      -4.123 -36.769 -15.002  1.00  0.00    -0.363 OA
HETATM   14  C1  UNL     1      -4.781 -37.813 -14.325  1.00  0.00     0.204 C
ENDBRANCH   8  13
BRANCH  10  15
HETATM   15  C4  UNL     1      -2.243 -33.286 -13.286  1.00  0.00     0.198 C
BRANCH  15  16
HETATM   16  O3  UNL     1      -1.366 -32.192 -13.241  1.00  0.00    -0.398 OA
ATOM     17  H3  UNL     1      -1.763 -31.460 -12.784  1.00  0.00     0.209 HD
ENDBRANCH  15  16
ENDBRANCH  10  15
BRANCH  11  18
HETATM   18  O4  UNL     1      -0.172 -34.721 -12.768  1.00  0.00    -0.390 OA
ATOM     19  H4  UNL     1       0.736 -34.441 -12.735  1.00  0.00     0.210 HD
ENDBRANCH  11  18
BRANCH  12  20
HETATM   20  O5  UNL     1       0.100 -37.230 -13.900  1.00  0.00    -0.390 OA
ATOM     21  H5  UNL     1       0.175 -37.942 -14.523  1.00  0.00     0.210 HD
ENDBRANCH  12  20
ENDBRANCH   6   7
ENDBRANCH   1   6
BRANCH   2  22
HETATM   22  O7  UNL     1      -3.095 -39.704 -10.465  1.00  0.00    -0.390 OA
ATOM     23  H7  UNL     1      -2.670 -40.242 -11.124  1.00  0.00     0.210 HD
ENDBRANCH   2  22
BRANCH   5  24
HETATM   24  C13 UNL     1      -0.236 -36.862  -9.923  1.00  0.00     0.178 C
BRANCH  24  25
HETATM   25  O10 UNL     1       0.142 -36.996  -8.593  1.00  0.00    -0.379 OA
BRANCH  25  26
HETATM   26  C14 UNL     1       1.479 -37.184  -8.418  1.00  0.00     0.065 C
HETATM   27  C15 UNL     1       2.044 -38.379  -9.163  1.00  0.00     0.043 C
HETATM   28  C16 UNL     1       3.266 -38.667  -8.277  1.00  0.00    -0.011 C
HETATM   29  C17 UNL     1       4.206 -37.499  -8.250  1.00  0.00     0.009 C
HETATM   30  C21 UNL     1       2.556 -38.742  -6.918  1.00  0.00     0.012 C
HETATM   31  C18 UNL     1       3.538 -36.207  -7.920  1.00  0.00    -0.011 C
HETATM   32  C19 UNL     1       2.816 -36.351  -6.589  1.00  0.00     0.012 C
HETATM   33  C22 UNL     1       2.332 -35.993  -8.845  1.00  0.00     0.043 C
HETATM   34  C20 UNL     1       1.785 -37.426  -6.961  1.00  0.00     0.021 C
ENDBRANCH  25  26
ENDBRANCH  24  25
ENDBRANCH   5  24
BRANCH   3  35
HETATM   35  O8  UNL     1      -4.729 -38.146  -9.126  1.00  0.00    -0.390 OA
ATOM     36  H8  UNL     1      -5.047 -37.536  -8.471  1.00  0.00     0.210 HD
ENDBRANCH   3  35
BRANCH   4  37
HETATM   37  O9  UNL     1      -2.590 -35.540  -9.562  1.00  0.00    -0.392 OA
ATOM     38  H9  UNL     1      -2.056 -35.104  -8.908  1.00  0.00     0.210 HD
ENDBRANCH   4  37
TORSDOF 13
ENDMDL