MODEL 3
REMARK VINA RESULT: -5.684602189      6.489     10.025
REMARK  12 active torsions:
REMARK  status: ('A' for Active; 'I' for Inactive)
REMARK    1  A    between atoms: C3_3  and  N1_4
REMARK    2  A    between atoms: N1_4  and  C4_7
REMARK    3  A    between atoms: C5_8  and  O1_9
REMARK    4  A    between atoms: C6_12  and  O3_13
REMARK    5  A    between atoms: O3_13  and  C7_14
REMARK    6  A    between atoms: C8_15  and  N2_16
REMARK    7  A    between atoms: C10_21  and  N3_22
REMARK    8  A    between atoms: C11_26  and  O4_27
REMARK    9  A    between atoms: O4_27  and  C12_28
REMARK   10  A    between atoms: C19_35  and  O5_36
REMARK   11  A    between atoms: C20_38  and  N4_39
REMARK   12  A    between atoms: C21_43  and  O6_44
ROOT
HETATM    1  C1  UNL     1      -2.037 -33.216 -12.386  1.00  0.00     0.013 C
HETATM    2  C2  UNL     1      -2.341 -33.306 -13.554  1.00  0.00    -0.090 C
HETATM    3  C3  UNL     1      -2.693 -33.433 -14.987  1.00  0.00     0.325 C
ENDROOT
BRANCH   3   4
HETATM    4  N1  UNL     1      -2.698 -34.807 -15.371  1.00  0.00    -0.054 N
ATOM      5  H12 UNL     1      -3.369 -35.337 -14.814  1.00  0.00     0.278 HD
ATOM      6  H11 UNL     1      -3.116 -34.925 -16.294  1.00  0.00     0.278 HD
BRANCH   4   7
HETATM    7  C4  UNL     1      -1.370 -35.427 -15.317  1.00  0.00     0.272 C
HETATM    8  C5  UNL     1      -0.859 -35.506 -16.709  1.00  0.00     0.293 C
HETATM    9  O2  UNL     1       0.237 -36.346 -16.872  1.00  0.00    -0.327 OA
HETATM   10  C6  UNL     1       0.604 -36.931 -15.639  1.00  0.00     0.296 C
HETATM   11  C20 UNL     1      -0.557 -37.731 -15.150  1.00  0.00     0.269 C
HETATM   12  C21 UNL     1      -1.542 -36.698 -14.576  1.00  0.00     0.191 C
BRANCH   8  13
HETATM   13  O1  UNL     1      -1.877 -35.735 -17.627  1.00  0.00    -0.369 OA
ATOM     14  H1  UNL     1      -1.542 -36.023 -18.467  1.00  0.00     0.212 HD
ENDBRANCH   8  13
BRANCH  10  15
HETATM   15  O3  UNL     1       1.825 -37.515 -15.678  1.00  0.00    -0.349 OA
BRANCH  15  16
HETATM   16  C7  UNL     1       2.000 -38.435 -16.715  1.00  0.00     0.186 C
HETATM   17  C8  UNL     1       2.427 -39.699 -16.002  1.00  0.00     0.217 C
HETATM   18  C9  UNL     1       3.181 -40.651 -16.871  1.00  0.00     0.071 C
HETATM   19  C10 UNL     1       3.094 -40.352 -18.324  1.00  0.00     0.217 C
HETATM   20  C11 UNL     1       3.619 -38.971 -18.573  1.00  0.00     0.183 C
HETATM   21  C19 UNL     1       2.984 -37.933 -17.693  1.00  0.00     0.180 C
BRANCH  17  22
HETATM   22  N2  UNL     1       3.193 -39.367 -14.817  1.00  0.00    -0.072 N
ATOM     23  H23 UNL     1       4.187 -39.268 -15.021  1.00  0.00     0.274 HD
ATOM     24  H22 UNL     1       3.010 -38.416 -14.498  1.00  0.00     0.274 HD
ATOM     25  H21 UNL     1       3.021 -40.056 -14.084  1.00  0.00     0.274 HD
ENDBRANCH  17  22
BRANCH  19  26
HETATM   26  N3  UNL     1       1.749 -40.543 -18.783  1.00  0.00    -0.072 N
ATOM     27  H33 UNL     1       1.185 -41.061 -18.108  1.00  0.00     0.274 HD
ATOM     28  H32 UNL     1       1.218 -39.672 -18.784  1.00  0.00     0.274 HD
ATOM     29  H31 UNL     1       1.754 -40.989 -19.700  1.00  0.00     0.274 HD
ENDBRANCH  19  26
BRANCH  20  30
HETATM   30  O4  UNL     1       5.015 -38.952 -18.498  1.00  0.00    -0.376 OA
BRANCH  30  31
HETATM   31  C12 UNL     1       5.612 -39.727 -19.496  1.00  0.00     0.122 C
HETATM   32  C13 UNL     1       5.598 -38.956 -20.793  1.00  0.00     0.032 C
HETATM   33  C14 UNL     1       6.342 -37.660 -20.720  1.00  0.00     0.002 C
HETATM   34  C15 UNL     1       7.803 -37.968 -20.419  1.00  0.00     0.000 C
HETATM   35  C16 UNL     1       8.065 -37.977 -18.940  1.00  0.00     0.000 C
HETATM   36  C17 UNL     1       7.778 -39.285 -18.286  1.00  0.00     0.002 C
HETATM   37  C18 UNL     1       6.958 -40.238 -19.113  1.00  0.00     0.032 C
ENDBRANCH  30  31
ENDBRANCH  20  30
BRANCH  21  38
HETATM   38  O5  UNL     1       2.425 -36.990 -18.587  1.00  0.00    -0.390 OA
ATOM     39  H5  UNL     1       1.871 -37.397 -19.243  1.00  0.00     0.210 HD
ENDBRANCH  21  38
ENDBRANCH  15  16
ENDBRANCH  10  15
BRANCH  11  40
HETATM   40  N4  UNL     1      -0.286 -38.701 -14.145  1.00  0.00    -0.068 N
ATOM     41  H43 UNL     1       0.548 -39.231 -14.398  1.00  0.00     0.275 HD
ATOM     42  H42 UNL     1       0.039 -38.235 -13.299  1.00  0.00     0.275 HD
ATOM     43  H41 UNL     1      -1.043 -39.344 -13.913  1.00  0.00     0.275 HD
ENDBRANCH  11  40
BRANCH  12  44
HETATM   44  O6  UNL     1      -1.303 -36.656 -13.222  1.00  0.00    -0.386 OA
HETATM   45  C22 UNL     1      -2.430 -36.855 -12.442  1.00  0.00     0.202 C
ENDBRANCH  12  44
ENDBRANCH   4   7
ENDBRANCH   3   4
TORSDOF 12
ENDMDL