MODEL 3
REMARK VINA RESULT: -7.009450845      1.595      1.833
REMARK  6 active torsions:
REMARK  status: ('A' for Active; 'I' for Inactive)
REMARK    1  A    between atoms: C4_5  and  C5_6
REMARK    2  A    between atoms: C5_6  and  N1_7
REMARK    3  A    between atoms: N1_7  and  C6_8
REMARK    4  A    between atoms: N1_7  and  C12_16
REMARK    5  A    between atoms: C6_8  and  C7_9
REMARK    6  A    between atoms: C15_19  and  O2_20
ROOT
HETATM    1  N1  UNL     1      -4.363   2.014  15.255  1.00  0.00    -0.360 N
ENDROOT
BRANCH   1   2
HETATM    2  C5  UNL     1      -3.223   2.766  15.594  1.00  0.00     0.127 C
BRANCH   2   3
HETATM    3  C4  UNL     1      -2.974   3.929  14.664  1.00  0.00     0.089 A
HETATM    4  S1  UNL     1      -3.973   5.218  14.161  1.00  0.00    -0.081 SA
HETATM    5  C3  UNL     1      -2.875   6.018  13.128  1.00  0.00     0.076 A
HETATM    6  C2  UNL     1      -1.769   5.212  13.239  1.00  0.00     0.012 A
HETATM    7  C1  UNL     1      -0.510   5.558  12.460  1.00  0.00     0.068 C
HETATM    8  N3  UNL     1      -1.842   4.182  14.009  1.00  0.00    -0.353 N
ATOM      9  H3  UNL     1      -1.039   3.563  14.115  1.00  0.00     0.166 HD
ENDBRANCH   2   3
ENDBRANCH   1   2
BRANCH   1  10
HETATM   10  C6  UNL     1      -4.251   0.768  14.681  1.00  0.00     0.097 C
BRANCH  10  11
HETATM   11  C7  UNL     1      -4.253   0.633  13.198  1.00  0.00     0.188 C
HETATM   12  C8  UNL     1      -4.964   1.677  12.407  1.00  0.00     0.309 C
HETATM   13  N2  UNL     1      -4.297   1.731  11.087  1.00  0.00     0.089 N
HETATM   14  C9  UNL     1      -3.045   2.414  11.136  1.00  0.00     0.310 C
HETATM   15  C10 UNL     1      -4.248   0.423  10.511  1.00  0.00     0.298 C
HETATM   16  C11 UNL     1      -4.079  -0.709  11.424  1.00  0.00     0.199 C
HETATM   17  O1  UNL     1      -4.620  -0.585  12.688  1.00  0.00    -0.377 OA
ENDBRANCH  10  11
ENDBRANCH   1  10
BRANCH   1  18
HETATM   18  C12 UNL     1      -5.356   2.269  16.245  1.00  0.00     0.091 C
HETATM   19  C13 UNL     1      -6.727   1.917  15.690  1.00  0.00     0.028 C
HETATM   20  C14 UNL     1      -7.474   1.411  16.880  1.00  0.00     0.034 C
HETATM   21  C15 UNL     1      -6.371   0.654  17.632  1.00  0.00     0.120 C
HETATM   22  C16 UNL     1      -5.253   1.721  17.594  1.00  0.00     0.057 C
BRANCH  21  23
HETATM   23  O2  UNL     1      -6.006  -0.479  16.959  1.00  0.00    -0.396 OA
ATOM     24  H2  UNL     1      -5.098  -0.435  16.684  1.00  0.00     0.210 HD
ENDBRANCH  21  23
ENDBRANCH   1  18
TORSDOF 6
ENDMDL