MODEL 4
REMARK VINA RESULT: -6.823061497      2.184      2.911
REMARK  7 active torsions:
REMARK  status: ('A' for Active; 'I' for Inactive)
REMARK    1  A    between atoms: C3_3  and  O1_4
REMARK    2  A    between atoms: N1_6  and  C4_7
REMARK    3  A    between atoms: C4_7  and  C5_8
REMARK    4  A    between atoms: C5_8  and  N2_9
REMARK    5  A    between atoms: C10_15  and  S1_16
REMARK    6  A    between atoms: S1_16  and  C11_17
REMARK    7  A    between atoms: N3_22  and  O3_23
ROOT
HETATM    1  C1  UNL     1      -3.442  -1.524  11.314  1.00  0.00     0.076 C
HETATM    2  C2  UNL     1      -3.478  -0.080  11.734  1.00  0.00     0.090 A
HETATM    3  C3  UNL     1      -2.935   0.951  11.012  1.00  0.00     0.169 A
HETATM    4  N1  UNL     1      -3.131   2.146  11.655  1.00  0.00    -0.303 N
HETATM    5  C10 UNL     1      -3.800   1.814  12.770  1.00  0.00     0.176 A
HETATM    6  N3  UNL     1      -4.009   0.458  12.815  1.00  0.00    -0.202 N
ENDROOT
BRANCH   4   7
HETATM    7  C4  UNL     1      -2.614   3.380  11.175  1.00  0.00     0.163 C
BRANCH   7   8
HETATM    8  C5  UNL     1      -1.212   3.664  11.527  1.00  0.00     0.293 C
BRANCH   8   9
HETATM    9  N2  UNL     1      -0.293   3.500  10.414  1.00  0.00     0.094 N
HETATM   10  C6  UNL     1      -0.785   4.078   9.184  1.00  0.00     0.298 C
HETATM   11  C7  UNL     1       0.252   3.711   8.113  1.00  0.00     0.198 C
HETATM   12  O2  UNL     1       1.514   4.200   8.421  1.00  0.00    -0.388 OA
HETATM   13  C8  UNL     1       1.963   3.694   9.643  1.00  0.00     0.198 C
HETATM   14  C9  UNL     1       0.978   4.162  10.703  1.00  0.00     0.298 C
ENDBRANCH   8   9
ENDBRANCH   7   8
ENDBRANCH   4   7
BRANCH   3  15
HETATM   15  O1  UNL     1      -2.280   0.798   9.804  1.00  0.00    -0.344 OA
ATOM     16  H1  UNL     1      -1.546   1.330   9.520  1.00  0.00     0.219 HD
ENDBRANCH   3  15
BRANCH   5  17
HETATM   17  S1  UNL     1      -4.389   2.872  14.044  1.00  0.00    -0.086 SA
BRANCH  17  18
HETATM   18  C11 UNL     1      -5.340   2.152  15.339  1.00  0.00     0.055 C
HETATM   19  C12 UNL     1      -4.641   1.701  16.568  1.00  0.00     0.015 C
HETATM   20  C13 UNL     1      -5.823   1.278  17.453  1.00  0.00     0.001 C
HETATM   21  C14 UNL     1      -7.017   2.066  16.949  1.00  0.00     0.001 C
HETATM   22  C15 UNL     1      -6.434   3.038  15.912  1.00  0.00     0.015 C
ENDBRANCH  17  18
ENDBRANCH   5  17
BRANCH   6  23
HETATM   23  O3  UNL     1      -4.653  -0.260  13.791  1.00  0.00    -0.281 OA
ATOM     24  H3  UNL     1      -5.239   0.124  14.433  1.00  0.00     0.245 HD
ENDBRANCH   6  23
TORSDOF 7
ENDMDL