MODEL 2
REMARK VINA RESULT: -7.576377968      0.883      1.453
REMARK  5 active torsions:
REMARK  status: ('A' for Active; 'I' for Inactive)
REMARK    1  A    between atoms: C2_2  and  O1_3
REMARK    2  A    between atoms: O1_3  and  C3_4
REMARK    3  A    between atoms: C6_7  and  C7_8
REMARK       I    between atoms: C7_8  and  N1_10
REMARK    4  A    between atoms: N1_10  and  C8_12
REMARK    5  A    between atoms: N3_20  and  C14_21
ROOT
HETATM    1  C8  UNL     1      -2.471   4.812  11.632  1.00  0.00     0.126 C
HETATM    2  C9  UNL     1      -3.318   5.981  11.616  1.00  0.00     0.091 C
HETATM    3  N2  UNL     1      -3.973   6.929  11.610  1.00  0.00    -0.195 NA
HETATM    4  C10 UNL     1      -2.010   4.366  10.253  1.00  0.00     0.073 C
HETATM    5  C11 UNL     1      -0.696   5.005   9.920  1.00  0.00     0.171 C
HETATM    6  O3  UNL     1      -0.706   6.307  10.378  1.00  0.00    -0.391 OA
HETATM    7  C12 UNL     1      -0.563   6.344  11.751  1.00  0.00     0.171 C
HETATM    8  C13 UNL     1      -1.169   5.123  12.400  1.00  0.00     0.073 C
ENDROOT
BRANCH   1   9
HETATM    9  N1  UNL     1      -3.123   3.667  12.248  1.00  0.00    -0.338 N
HETATM   10  C7  UNL     1      -4.324   3.132  11.708  1.00  0.00     0.239 C
HETATM   11  O2  UNL     1      -4.871   3.621  10.708  1.00  0.00    -0.272 OA
ATOM     12  H1  UNL     1      -2.713   3.242  13.079  1.00  0.00     0.164 HD
BRANCH  10  13
HETATM   13  C6  UNL     1      -4.916   1.946  12.382  1.00  0.00     0.178 C
HETATM   14  C5  UNL     1      -5.326   2.474  13.777  1.00  0.00     0.036 C
HETATM   15  C4  UNL     1      -4.322   1.948  14.796  1.00  0.00     0.064 C
HETATM   16  C3  UNL     1      -4.347   0.425  14.769  1.00  0.00     0.281 C
HETATM   17  O4  UNL     1      -4.550  -0.015  13.454  1.00  0.00    -0.270 OA
HETATM   18  N3  UNL     1      -3.962   0.900  12.651  1.00  0.00    -0.177 NA
BRANCH  16  19
HETATM   19  O1  UNL     1      -5.306  -0.042  15.645  1.00  0.00    -0.360 OA
BRANCH  19  20
HETATM   20  C2  UNL     1      -5.364   0.794  16.750  1.00  0.00     0.166 C
HETATM   21  C1  UNL     1      -6.798   0.807  17.259  1.00  0.00     0.033 C
ENDBRANCH  19  20
ENDBRANCH  16  19
BRANCH  18  22
HETATM   22  C14 UNL     1      -3.534   0.215  11.454  1.00  0.00     0.079 C
HETATM   23  C15 UNL     1      -2.042   0.472  11.314  1.00  0.00     0.028 C
HETATM   24  C16 UNL     1      -3.742  -1.265  11.470  1.00  0.00     0.028 C
ENDBRANCH  18  22
ENDBRANCH  10  13
ENDBRANCH   1   9
TORSDOF 5
ENDMDL