MODEL 2
REMARK VINA RESULT: -7.213823611      1.385      4.692
REMARK  7 active torsions:
REMARK  status: ('A' for Active; 'I' for Inactive)
REMARK       I    between atoms: N2_5  and  C4_6
REMARK    1  A    between atoms: C4_6  and  C5_8
REMARK    2  A    between atoms: C5_8  and  O2_9
REMARK    3  A    between atoms: O2_9  and  C6_10
REMARK    4  A    between atoms: C6_10  and  C7_12
REMARK    5  A    between atoms: C7_12  and  C8_13
REMARK    6  A    between atoms: C8_13  and  C9_14
REMARK    7  A    between atoms: N3_20  and  O4_22
ROOT
HETATM    1  C6  UNL     1      -2.844   5.169  12.003  1.00  0.00     0.308 C
HETATM    2  O3  UNL     1      -2.514   6.290  11.565  1.00  0.00    -0.258 OA
ENDROOT
BRANCH   1   3
HETATM    3  O2  UNL     1      -3.943   5.115  12.838  1.00  0.00    -0.307 OA
BRANCH   3   4
HETATM    4  C5  UNL     1      -3.807   5.138  14.267  1.00  0.00     0.281 C
BRANCH   4   5
HETATM    5  C4  UNL     1      -3.320   3.856  14.783  1.00  0.00     0.244 C
HETATM    6  N2  UNL     1      -4.272   2.824  15.000  1.00  0.00    -0.347 N
HETATM    7  C3  UNL     1      -5.685   2.993  14.732  1.00  0.00     0.156 C
HETATM    8  C15 UNL     1      -3.868   1.512  15.515  1.00  0.00     0.156 C
HETATM    9  C2  UNL     1      -6.504   2.859  16.005  1.00  0.00     0.291 C
HETATM   10  N1  UNL     1      -5.784   1.972  16.922  1.00  0.00     0.087 N
HETATM   11  C1  UNL     1      -6.760   1.421  17.825  1.00  0.00     0.310 C
HETATM   12  C16 UNL     1      -5.118   0.934  16.180  1.00  0.00     0.291 C
HETATM   13  O1  UNL     1      -2.110   3.615  15.045  1.00  0.00    -0.271 OA
ENDBRANCH   4   5
ENDBRANCH   3   4
ENDBRANCH   1   3
BRANCH   1  14
HETATM   14  C7  UNL     1      -2.069   4.000  11.620  1.00  0.00     0.107 C
HETATM   15  N3  UNL     1      -0.901   3.839  12.116  1.00  0.00    -0.267 N
ATOM     16  H3  UNL     1      -0.350   3.021  11.853  1.00  0.00     0.194 HD
BRANCH  14  17
HETATM   17  C8  UNL     1      -2.604   2.993  10.657  1.00  0.00     0.070 C
BRANCH  17  18
HETATM   18  C9  UNL     1      -3.024   1.745  11.392  1.00  0.00    -0.009 C
HETATM   19  C10 UNL     1      -2.423   0.507  10.744  1.00  0.00     0.005 C
HETATM   20  C11 UNL     1      -2.803  -0.729  11.512  1.00  0.00     0.000 C
HETATM   21  C12 UNL     1      -4.290  -0.895  11.604  1.00  0.00     0.000 C
HETATM   22  C13 UNL     1      -4.970   0.244  10.878  1.00  0.00     0.000 C
HETATM   23  C14 UNL     1      -4.515   1.584  11.451  1.00  0.00     0.005 C
ENDBRANCH  17  18
ENDBRANCH  14  17
BRANCH  15  24
HETATM   24  O4  UNL     1      -0.384   4.746  12.991  1.00  0.00    -0.290 OA
ATOM     25  H4  UNL     1       0.194   5.438  12.690  1.00  0.00     0.244 HD
ENDBRANCH  15  24
ENDBRANCH   1  14
TORSDOF 7
ENDMDL