MODEL 4
REMARK VINA RESULT: -6.890487895      1.568      2.444
REMARK  7 active torsions:
REMARK  status: ('A' for Active; 'I' for Inactive)
REMARK       I    between atoms: C2_2  and  N1_4
REMARK    1  A    between atoms: N1_4  and  C3_6
REMARK    2  A    between atoms: C3_6  and  C5_8
REMARK    3  A    between atoms: C5_8  and  O3_10
REMARK    4  A    between atoms: O3_10  and  C6_11
REMARK    5  A    between atoms: C9_14  and  C10_15
REMARK    6  A    between atoms: C10_15  and  O4_17
REMARK    7  A    between atoms: O4_17  and  C12_18
ROOT
HETATM    1  C6  UNL     1      -3.707   3.192  12.638  1.00  0.00     0.172 C
HETATM    2  C7  UNL     1      -3.991   4.024  13.898  1.00  0.00     0.046 C
HETATM    3  C8  UNL     1      -3.043   3.679  14.978  1.00  0.00     0.015 C
HETATM    4  C9  UNL     1      -5.416   3.754  14.132  1.00  0.00     0.158 C
HETATM    5  O6  UNL     1      -5.815   2.675  13.349  1.00  0.00    -0.370 OA
HETATM    6  C14 UNL     1      -4.714   2.092  12.795  1.00  0.00     0.081 C
HETATM    7  C15 UNL     1      -5.085   1.613  11.388  1.00  0.00     0.048 C
HETATM    8  C16 UNL     1      -4.193   0.898  13.533  1.00  0.00     0.048 C
ENDROOT
BRANCH   1   9
HETATM    9  O3  UNL     1      -2.382   2.757  12.583  1.00  0.00    -0.311 OA
BRANCH   9  10
HETATM   10  C5  UNL     1      -1.583   2.956  11.493  1.00  0.00     0.281 C
HETATM   11  O2  UNL     1      -1.571   2.084  10.581  1.00  0.00    -0.263 OA
BRANCH  10  12
HETATM   12  C3  UNL     1      -0.716   4.172  11.336  1.00  0.00     0.180 C
HETATM   13  C4  UNL     1       0.712   3.706  11.058  1.00  0.00     0.043 C
BRANCH  12  14
HETATM   14  N1  UNL     1      -0.741   4.998  12.498  1.00  0.00    -0.348 N
HETATM   15  C2  UNL     1      -1.477   6.204  12.496  1.00  0.00     0.214 C
HETATM   16  C1  UNL     1      -1.522   7.076  13.676  1.00  0.00     0.117 C
HETATM   17  O1  UNL     1      -2.126   6.570  11.468  1.00  0.00    -0.274 OA
ATOM     18  H1  UNL     1      -0.226   4.718  13.333  1.00  0.00     0.163 HD
ENDBRANCH  12  14
ENDBRANCH  10  12
ENDBRANCH   9  10
ENDBRANCH   1   9
BRANCH   4  19
HETATM   19  C10 UNL     1      -5.840   3.492  15.536  1.00  0.00     0.157 C
HETATM   20  C11 UNL     1      -6.739   4.564  16.106  1.00  0.00     0.043 C
BRANCH  19  21
HETATM   21  O4  UNL     1      -6.594   2.287  15.542  1.00  0.00    -0.314 OA
BRANCH  21  22
HETATM   22  C12 UNL     1      -6.615   1.408  16.603  1.00  0.00     0.255 C
HETATM   23  C13 UNL     1      -5.688   1.524  17.753  1.00  0.00     0.126 C
HETATM   24  O5  UNL     1      -7.445   0.459  16.617  1.00  0.00    -0.266 OA
ENDBRANCH  21  22
ENDBRANCH  19  21
ENDBRANCH   4  19
TORSDOF 7
ENDMDL