MODEL 3
REMARK VINA RESULT: -6.761837804      4.592      5.853
REMARK  7 active torsions:
REMARK  status: ('A' for Active; 'I' for Inactive)
REMARK    1  A    between atoms: O1_2  and  C2_3
REMARK    2  A    between atoms: C2_3  and  C3_5
REMARK    3  A    between atoms: C3_5  and  O3_6
REMARK    4  A    between atoms: O3_6  and  C4_7
REMARK    5  A    between atoms: N1_15  and  C12_16
REMARK    6  A    between atoms: C15_19  and  O4_20
REMARK    7  A    between atoms: C16_22  and  O5_23
ROOT
HETATM    1  C4  UNL     1      -3.651   1.421  12.725  1.00  0.00     0.122 C
HETATM    2  C5  UNL     1      -3.391   0.590  11.471  1.00  0.00     0.033 C
HETATM    3  C6  UNL     1      -1.954   0.811  11.085  1.00  0.00     0.014 C
HETATM    4  C7  UNL     1      -1.704   2.285  10.935  1.00  0.00    -0.012 C
HETATM    5  C8  UNL     1      -2.977   3.101  10.988  1.00  0.00     0.014 C
HETATM    6  C9  UNL     1      -3.715   2.864  12.276  1.00  0.00     0.033 C
HETATM    7  C10 UNL     1      -0.763   2.834  11.959  1.00  0.00     0.041 C
HETATM    8  C11 UNL     1      -0.095   3.977  11.205  1.00  0.00     0.274 C
HETATM    9  N1  UNL     1       0.083   3.456   9.894  1.00  0.00     0.096 N
HETATM   10  C18 UNL     1      -0.990   2.515   9.641  1.00  0.00     0.282 C
ENDROOT
BRANCH   9  11
HETATM   11  C12 UNL     1       0.084   4.418   8.846  1.00  0.00     0.254 C
HETATM   12  C13 UNL     1      -0.735   3.834   7.686  1.00  0.00     0.041 C
HETATM   13  C14 UNL     1      -0.380   4.801   6.577  1.00  0.00     0.036 C
HETATM   14  C15 UNL     1       0.994   5.317   6.882  1.00  0.00     0.149 C
HETATM   15  C16 UNL     1       1.420   4.613   8.179  1.00  0.00     0.182 C
BRANCH  14  16
HETATM   16  O4  UNL     1       0.874   6.704   7.120  1.00  0.00    -0.393 OA
ATOM     17  H4  UNL     1       1.739   7.081   7.013  1.00  0.00     0.210 HD
ENDBRANCH  14  16
BRANCH  15  18
HETATM   18  O5  UNL     1       2.029   3.437   7.801  1.00  0.00    -0.386 OA
HETATM   19  C17 UNL     1       3.117   3.698   6.993  1.00  0.00     0.202 C
ENDBRANCH  15  18
ENDBRANCH   9  11
BRANCH   1  20
HETATM   20  O3  UNL     1      -4.773   1.017  13.405  1.00  0.00    -0.376 OA
BRANCH  20  21
HETATM   21  C3  UNL     1      -4.879   1.697  14.619  1.00  0.00     0.279 C
BRANCH  21  22
HETATM   22  C2  UNL     1      -4.860   0.757  15.765  1.00  0.00     0.282 C
HETATM   23  O2  UNL     1      -3.769   0.511  16.326  1.00  0.00    -0.263 OA
BRANCH  22  24
HETATM   24  O1  UNL     1      -5.994   0.127  16.259  1.00  0.00    -0.325 OA
HETATM   25  C1  UNL     1      -6.968   0.892  16.972  1.00  0.00     0.213 C
ENDBRANCH  22  24
ENDBRANCH  21  22
ENDBRANCH  20  21
ENDBRANCH   1  20
TORSDOF 7
ENDMDL