MODEL 5
REMARK VINA RESULT: -7.056554847      3.153      7.061
REMARK  5 active torsions:
REMARK  status: ('A' for Active; 'I' for Inactive)
REMARK    1  A    between atoms: C1_2  and  C2_3
REMARK       I    between atoms: C1_2  and  N4_20
REMARK    2  A    between atoms: C2_3  and  S1_4
REMARK    3  A    between atoms: S1_4  and  C3_5
REMARK    4  A    between atoms: N3_11  and  C5_13
REMARK    5  A    between atoms: C5_13  and  C6_14
ROOT
HETATM    1  C3  UNL     1      -2.899   3.183  11.001  1.00  0.00     0.130 A
HETATM    2  N1  UNL     1      -2.196   2.663  11.991  1.00  0.00    -0.286 N
ATOM      3  H1  UNL     1      -1.184   2.784  12.010  1.00  0.00     0.188 HD
HETATM    4  N2  UNL     1      -2.770   2.013  12.919  1.00  0.00    -0.279 N
ATOM      5  H2  UNL     1      -2.225   1.613  13.683  1.00  0.00     0.189 HD
HETATM    6  C4  UNL     1      -4.094   1.862  12.882  1.00  0.00     0.161 A
HETATM    7  N3  UNL     1      -4.909   1.247  13.701  1.00  0.00    -0.367 N
ATOM      8  H3  UNL     1      -5.905   1.250  13.481  1.00  0.00     0.161 HD
HETATM    9  S2  UNL     1      -4.482   2.710  11.427  1.00  0.00    -0.027 SA
ENDROOT
BRANCH   1  10
HETATM   10  S1  UNL     1      -2.278   4.130   9.594  1.00  0.00    -0.094 SA
BRANCH  10  11
HETATM   11  C2  UNL     1      -2.144   5.865  10.173  1.00  0.00     0.184 C
BRANCH  11  12
HETATM   12  C1  UNL     1      -1.795   5.802  11.596  1.00  0.00     0.229 C
HETATM   13  O1  UNL     1      -0.647   5.377  11.937  1.00  0.00    -0.273 OA
HETATM   14  N4  UNL     1      -2.690   6.195  12.597  1.00  0.00    -0.351 N
HETATM   15  C10 UNL     1      -3.998   6.700  12.279  1.00  0.00     0.125 C
HETATM   16  C14 UNL     1      -2.346   6.111  14.003  1.00  0.00     0.125 C
HETATM   17  C11 UNL     1      -5.056   5.801  12.887  1.00  0.00     0.020 C
HETATM   18  C12 UNL     1      -4.777   5.512  14.342  1.00  0.00     0.003 C
HETATM   19  C13 UNL     1      -3.355   5.211  14.655  1.00  0.00     0.020 C
ENDBRANCH  11  12
ENDBRANCH  10  11
ENDBRANCH   1  10
BRANCH   7  20
HETATM   20  C5  UNL     1      -4.486   0.577  14.874  1.00  0.00     0.153 C
BRANCH  20  21
HETATM   21  C6  UNL     1      -4.666   1.529  16.061  1.00  0.00     0.139 C
HETATM   22  C7  UNL     1      -5.983   2.242  15.800  1.00  0.00     0.035 C
HETATM   23  C8  UNL     1      -6.904   1.468  16.754  1.00  0.00     0.029 C
HETATM   24  C9  UNL     1      -5.908   1.223  17.892  1.00  0.00     0.168 C
HETATM   25  O2  UNL     1      -4.808   0.752  17.181  1.00  0.00    -0.384 OA
ENDBRANCH  20  21
ENDBRANCH   7  20
TORSDOF 5
ENDMDL