MODEL 3
REMARK VINA RESULT: -7.226699118      1.027      1.135
REMARK  7 active torsions:
REMARK  status: ('A' for Active; 'I' for Inactive)
REMARK    1  A    between atoms: C2_2  and  C3_3
REMARK    2  A    between atoms: C3_3  and  C4_4
REMARK    3  A    between atoms: C4_4  and  C5_5
REMARK    4  A    between atoms: C5_5  and  O2_7
REMARK    5  A    between atoms: O2_7  and  C6_8
REMARK    6  A    between atoms: C11_14  and  O4_15
REMARK    7  A    between atoms: C16_20  and  O5_21
ROOT
HETATM    1  C6  UNL     1      -4.721   3.408  14.484  1.00  0.00     0.164 C
HETATM    2  C7  UNL     1      -5.204   4.746  14.933  1.00  0.00     0.036 C
HETATM    3  C8  UNL     1      -4.167   5.811  14.826  1.00  0.00     0.015 C
HETATM    4  C9  UNL     1      -3.312   5.738  13.606  1.00  0.00     0.079 C
HETATM    5  C10 UNL     1      -2.080   4.895  13.972  1.00  0.00     0.270 C
HETATM    6  O3  UNL     1      -1.174   5.109  12.911  1.00  0.00    -0.330 OA
HETATM    7  C11 UNL     1      -1.551   4.396  11.782  1.00  0.00     0.273 C
HETATM    8  C13 UNL     1      -2.952   4.781  11.400  1.00  0.00     0.036 C
HETATM    9  C14 UNL     1      -2.890   6.224  10.888  1.00  0.00     0.023 C
HETATM   10  C15 UNL     1      -3.502   3.949  10.280  1.00  0.00     0.023 C
HETATM   11  C16 UNL     1      -3.890   4.767  12.565  1.00  0.00     0.106 C
HETATM   12  C17 UNL     1      -3.714   3.485  13.349  1.00  0.00     0.190 C
HETATM   13  O6  UNL     1      -2.463   3.583  13.915  1.00  0.00    -0.350 OA
ENDROOT
BRANCH   1  14
HETATM   14  O2  UNL     1      -4.062   2.782  15.592  1.00  0.00    -0.313 OA
BRANCH  14  15
HETATM   15  C5  UNL     1      -4.330   1.493  15.986  1.00  0.00     0.259 C
HETATM   16  O1  UNL     1      -3.356   0.725  16.204  1.00  0.00    -0.265 OA
BRANCH  15  17
HETATM   17  C4  UNL     1      -5.701   0.957  16.168  1.00  0.00     0.111 C
BRANCH  17  18
HETATM   18  C3  UNL     1      -6.007   0.699  17.631  1.00  0.00     0.009 C
BRANCH  18  19
HETATM   19  C2  UNL     1      -6.403   2.012  18.269  1.00  0.00    -0.004 C
HETATM   20  C1  UNL     1      -7.158   2.903  17.334  1.00  0.00     0.005 C
ENDBRANCH  18  19
ENDBRANCH  17  18
ENDBRANCH  15  17
ENDBRANCH  14  15
ENDBRANCH   1  14
BRANCH  11  21
HETATM   21  O5  UNL     1      -5.168   5.051  12.215  1.00  0.00    -0.386 OA
ATOM     22  H5  UNL     1      -5.363   4.853  11.306  1.00  0.00     0.210 HD
ENDBRANCH  11  21
BRANCH   7  23
HETATM   23  O4  UNL     1      -1.352   3.045  11.880  1.00  0.00    -0.365 OA
HETATM   24  C12 UNL     1      -0.308   2.594  11.066  1.00  0.00     0.204 C
ENDBRANCH   7  23
TORSDOF 7
ENDMDL