MODEL 3
REMARK VINA RESULT: -6.499952495      2.059      3.789
REMARK  6 active torsions:
REMARK  status: ('A' for Active; 'I' for Inactive)
REMARK    1  A    between atoms: C2_2  and  C3_3
REMARK    2  A    between atoms: C3_3  and  O1_4
REMARK    3  A    between atoms: O1_4  and  C4_5
REMARK    4  A    between atoms: C9_12  and  C10_13
REMARK    5  A    between atoms: C10_13  and  O4_15
REMARK    6  A    between atoms: C15_21  and  O6_22
ROOT
HETATM    1  C4  UNL     1      -4.708   5.052  11.589  1.00  0.00     0.279 C
HETATM    2  O2  UNL     1      -3.921   6.077  12.120  1.00  0.00    -0.289 OA
HETATM    3  C5  UNL     1      -2.866   5.741  12.943  1.00  0.00     0.268 C
HETATM    4  O3  UNL     1      -1.928   6.550  13.112  1.00  0.00    -0.265 OA
HETATM    5  C6  UNL     1      -2.852   4.450  13.608  1.00  0.00     0.121 C
HETATM    6  C7  UNL     1      -3.709   4.520  14.879  1.00  0.00     0.018 C
HETATM    7  C8  UNL     1      -3.997   3.045  15.132  1.00  0.00     0.011 C
HETATM    8  C9  UNL     1      -4.298   2.552  13.732  1.00  0.00     0.050 C
HETATM    9  C12 UNL     1      -3.410   3.302  12.837  1.00  0.00     0.091 C
HETATM   10  O5  UNL     1      -2.305   2.532  12.425  1.00  0.00    -0.371 OA
HETATM   11  C13 UNL     1      -1.700   3.233  11.415  1.00  0.00     0.148 C
HETATM   12  C14 UNL     1      -0.781   2.366  10.596  1.00  0.00     0.042 C
HETATM   13  C15 UNL     1      -2.870   3.686  10.568  1.00  0.00     0.161 C
HETATM   14  C17 UNL     1      -4.012   3.718  11.521  1.00  0.00     0.109 C
ENDROOT
BRANCH   1  15
HETATM   15  O1  UNL     1      -5.227   5.337  10.345  1.00  0.00    -0.357 OA
BRANCH  15  16
HETATM   16  C3  UNL     1      -5.443   6.682  10.185  1.00  0.00     0.197 C
BRANCH  16  17
HETATM   17  C2  UNL     1      -6.840   7.093  10.383  1.00  0.00    -0.011 C
HETATM   18  C1  UNL     1      -7.253   7.686  11.488  1.00  0.00     0.009 C
ENDBRANCH  16  17
ENDBRANCH  15  16
ENDBRANCH   1  15
BRANCH  13  19
HETATM   19  O6  UNL     1      -2.621   4.875   9.930  1.00  0.00    -0.387 OA
HETATM   20  C16 UNL     1      -2.396   4.685   8.572  1.00  0.00     0.202 C
ENDBRANCH  13  19
BRANCH   8  21
HETATM   21  C10 UNL     1      -4.176   1.045  13.694  1.00  0.00     0.121 C
HETATM   22  C11 UNL     1      -4.598   0.460  15.005  1.00  0.00     0.040 C
BRANCH  21  23
HETATM   23  O4  UNL     1      -4.778   0.481  12.605  1.00  0.00    -0.395 OA
ATOM     24  H4  UNL     1      -5.532  -0.053  12.827  1.00  0.00     0.210 HD
ENDBRANCH  21  23
ENDBRANCH   8  21
TORSDOF 6
ENDMDL