MODEL 5
REMARK VINA RESULT: -7.049246611      2.970      6.171
REMARK  6 active torsions:
REMARK  status: ('A' for Active; 'I' for Inactive)
REMARK    1  A    between atoms: C2_2  and  C3_3
REMARK    2  A    between atoms: C2_2  and  C12_18
REMARK    3  A    between atoms: C3_3  and  C4_4
REMARK    4  A    between atoms: C4_4  and  C5_5
REMARK    5  A    between atoms: C5_5  and  N1_6
REMARK    6  A    between atoms: C12_18  and  O5_21
ROOT
HETATM    1  N1  UNL     1      -3.518   3.864  13.906  1.00  0.00     0.090 N
HETATM    2  C6  UNL     1      -4.618   4.566  13.326  1.00  0.00     0.298 C
HETATM    3  C7  UNL     1      -5.677   5.030  14.268  1.00  0.00     0.201 C
HETATM    4  O1  UNL     1      -5.665   4.507  15.525  1.00  0.00    -0.357 OA
HETATM    5  C8  UNL     1      -6.571   3.433  15.657  1.00  0.00     0.299 C
HETATM    6  O2  UNL     1      -7.008   3.207  16.945  1.00  0.00    -0.241 OA
HETATM    7  S1  UNL     1      -6.561   1.614  17.184  1.00  0.00     0.276 S
HETATM    8  O3  UNL     1      -7.678   0.619  17.077  1.00  0.00    -0.198 OA
HETATM    9  O4  UNL     1      -5.593   1.382  18.282  1.00  0.00    -0.198 OA
HETATM   10  C9  UNL     1      -5.840   2.118  15.664  1.00  0.00     0.194 C
HETATM   11  C10 UNL     1      -4.352   2.447  15.759  1.00  0.00     0.057 C
HETATM   12  C11 UNL     1      -3.855   2.533  14.328  1.00  0.00     0.274 C
ENDROOT
BRANCH   1  13
HETATM   13  C5  UNL     1      -2.442   3.755  12.955  1.00  0.00     0.272 C
BRANCH  13  14
HETATM   14  C4  UNL     1      -2.780   4.067  11.541  1.00  0.00     0.031 C
BRANCH  14  15
HETATM   15  C3  UNL     1      -2.790   2.885  10.635  1.00  0.00     0.009 C
BRANCH  15  16
HETATM   16  C2  UNL     1      -2.728   1.602  11.371  1.00  0.00     0.015 C
HETATM   17  C1  UNL     1      -1.493   0.811  11.048  1.00  0.00     0.013 C
BRANCH  16  18
HETATM   18  C12 UNL     1      -3.926   0.705  11.101  1.00  0.00     0.054 C
HETATM   19  C13 UNL     1      -3.963  -0.370  12.154  1.00  0.00     0.045 C
HETATM   20  C14 UNL     1      -5.218   1.448  11.021  1.00  0.00     0.045 C
BRANCH  18  21
HETATM   21  O5  UNL     1      -3.748   0.070   9.859  1.00  0.00    -0.390 OA
ATOM     22  H5  UNL     1      -4.413  -0.601   9.759  1.00  0.00     0.210 HD
ENDBRANCH  18  21
ENDBRANCH  16  18
ENDBRANCH  15  16
ENDBRANCH  14  15
ENDBRANCH  13  14
ENDBRANCH   1  13
TORSDOF 6
ENDMDL