MODEL 5
REMARK VINA RESULT: -6.784016249      4.213      5.542
REMARK  7 active torsions:
REMARK  status: ('A' for Active; 'I' for Inactive)
REMARK    1  A    between atoms: C2_2  and  C3_3
REMARK    2  A    between atoms: C3_3  and  O1_4
REMARK    3  A    between atoms: C3_3  and  C5_6
REMARK       I    between atoms: C5_6  and  N1_8
REMARK    4  A    between atoms: N1_8  and  C6_10
REMARK    5  A    between atoms: C11_16  and  C12_17
REMARK    6  A    between atoms: C12_17  and  O4_19
REMARK    7  A    between atoms: O4_19  and  C13_20
ROOT
HETATM    1  C13 UNL     1      -5.594   2.321  16.690  1.00  0.00     0.234 C
HETATM    2  C14 UNL     1      -6.901   3.056  16.884  1.00  0.00     0.056 C
HETATM    3  C15 UNL     1      -5.820   0.891  16.921  1.00  0.00     0.091 C
HETATM    4  N2  UNL     1      -5.999  -0.253  17.102  1.00  0.00    -0.195 NA
ENDROOT
BRANCH   1   5
HETATM    5  O4  UNL     1      -5.109   2.495  15.359  1.00  0.00    -0.301 OA
BRANCH   5   6
HETATM    6  C12 UNL     1      -3.873   3.104  15.136  1.00  0.00     0.266 C
HETATM    7  O3  UNL     1      -2.963   2.831  15.958  1.00  0.00    -0.265 OA
BRANCH   6   8
HETATM    8  C11 UNL     1      -3.666   4.024  13.981  1.00  0.00     0.110 C
HETATM    9  C8  UNL     1      -4.461   5.263  14.158  1.00  0.00     0.014 C
HETATM   10  S1  UNL     1      -3.596   6.379  12.984  1.00  0.00    -0.151 SA
HETATM   11  C9  UNL     1      -5.886   5.030  13.733  1.00  0.00     0.027 C
HETATM   12  C10 UNL     1      -4.400   5.880  15.508  1.00  0.00     0.027 C
HETATM   13  C7  UNL     1      -1.977   5.534  13.048  1.00  0.00     0.078 A
HETATM   14  C6  UNL     1      -1.781   4.272  12.312  1.00  0.00     0.104 A
HETATM   15  C16 UNL     1      -2.241   4.313  13.783  1.00  0.00     0.040 A
BRANCH  14  16
HETATM   16  N1  UNL     1      -0.463   3.809  12.032  1.00  0.00    -0.353 N
HETATM   17  C5  UNL     1       0.248   4.257  10.884  1.00  0.00     0.247 C
HETATM   18  O2  UNL     1      -0.294   5.077  10.096  1.00  0.00    -0.271 OA
ATOM     19  H1  UNL     1      -0.020   3.145  12.668  1.00  0.00     0.163 HD
BRANCH  17  20
HETATM   20  C3  UNL     1       1.621   3.796  10.565  1.00  0.00     0.212 C
BRANCH  20  21
HETATM   21  C2  UNL     1       2.535   5.027  10.557  1.00  0.00     0.037 C
HETATM   22  C1  UNL     1       3.052   5.334  11.944  1.00  0.00     0.008 C
ENDBRANCH  20  21
BRANCH  20  23
HETATM   23  O1  UNL     1       1.678   3.258   9.294  1.00  0.00    -0.381 OA
HETATM   24  C4  UNL     1       2.965   3.311   8.774  1.00  0.00     0.202 C
ENDBRANCH  20  23
ENDBRANCH  17  20
ENDBRANCH  14  16
ENDBRANCH   6   8
ENDBRANCH   5   6
ENDBRANCH   1   5
TORSDOF 7
ENDMDL