MODEL 3
REMARK VINA RESULT: -6.483742890      1.193      1.375
REMARK  7 active torsions:
REMARK  status: ('A' for Active; 'I' for Inactive)
REMARK       I    between atoms: C2_2  and  N1_4
REMARK    1  A    between atoms: N1_4  and  C3_6
REMARK    2  A    between atoms: C6_9  and  O2_10
REMARK    3  A    between atoms: O2_10  and  C7_11
REMARK    4  A    between atoms: C9_14  and  O4_15
REMARK    5  A    between atoms: O4_15  and  C10_16
REMARK    6  A    between atoms: C12_19  and  S1_20
REMARK    7  A    between atoms: S1_20  and  C13_21
ROOT
HETATM    1  C3  UNL     1      -3.939   5.915  13.141  1.00  0.00     0.100 C
HETATM    2  C4  UNL     1      -3.922   5.839  14.657  1.00  0.00     0.029 C
HETATM    3  C5  UNL     1      -4.973   4.787  15.007  1.00  0.00     0.037 C
HETATM    4  C6  UNL     1      -4.605   3.441  14.454  1.00  0.00     0.162 C
HETATM    5  C9  UNL     1      -4.055   3.440  13.082  1.00  0.00     0.177 C
HETATM    6  C12 UNL     1      -3.279   4.635  12.661  1.00  0.00     0.102 C
ENDROOT
BRANCH   1   7
HETATM    7  N1  UNL     1      -3.313   7.093  12.640  1.00  0.00    -0.356 N
HETATM    8  C2  UNL     1      -3.772   7.754  11.474  1.00  0.00     0.213 C
HETATM    9  C1  UNL     1      -3.106   8.992  10.958  1.00  0.00     0.117 C
HETATM   10  O1  UNL     1      -4.766   7.278  10.867  1.00  0.00    -0.274 OA
ATOM     11  H1  UNL     1      -2.507   7.472  13.136  1.00  0.00     0.162 HD
ENDBRANCH   1   7
BRANCH   6  12
HETATM   12  S1  UNL     1      -1.541   4.591  13.145  1.00  0.00    -0.155 SA
BRANCH  12  13
HETATM   13  C13 UNL     1      -0.530   4.849  11.681  1.00  0.00     0.039 C
HETATM   14  C14 UNL     1       0.344   3.620  11.438  1.00  0.00     0.021 C
HETATM   15  C15 UNL     1      -1.396   5.031  10.454  1.00  0.00     0.021 C
ENDBRANCH  12  13
ENDBRANCH   6  12
BRANCH   5  16
HETATM   16  O4  UNL     1      -5.093   3.251  12.105  1.00  0.00    -0.312 OA
BRANCH  16  17
HETATM   17  C10 UNL     1      -4.904   2.419  11.034  1.00  0.00     0.255 C
HETATM   18  C11 UNL     1      -5.143   0.961  11.183  1.00  0.00     0.126 C
HETATM   19  O5  UNL     1      -4.524   2.941   9.941  1.00  0.00    -0.266 OA
ENDBRANCH  16  17
ENDBRANCH   5  16
BRANCH   4  20
HETATM   20  O2  UNL     1      -3.738   2.841  15.429  1.00  0.00    -0.314 OA
BRANCH  20  21
HETATM   21  C7  UNL     1      -4.144   1.816  16.242  1.00  0.00     0.255 C
HETATM   22  C8  UNL     1      -5.364   1.796  17.076  1.00  0.00     0.126 C
HETATM   23  O3  UNL     1      -3.401   0.789  16.281  1.00  0.00    -0.266 OA
ENDBRANCH  20  21
ENDBRANCH   4  20
TORSDOF 7
ENDMDL