MODEL 4
REMARK VINA RESULT: -6.725547133      0.816      1.035
REMARK  6 active torsions:
REMARK  status: ('A' for Active; 'I' for Inactive)
REMARK    1  A    between atoms: C5_5  and  C6_6
REMARK    2  A    between atoms: C6_6  and  N1_7
REMARK    3  A    between atoms: C9_12  and  C10_13
REMARK    4  A    between atoms: C10_13  and  N3_14
REMARK    5  A    between atoms: C14_19  and  C15_20
REMARK    6  A    between atoms: C15_20  and  O2_21
ROOT
HETATM    1  N1  UNL     1      -3.865   4.855  13.273  1.00  0.00    -0.384 N
HETATM    2  C7  UNL     1      -4.497   6.097  13.048  1.00  0.00     0.181 C
HETATM    3  C8  UNL     1      -4.887   6.126  11.586  1.00  0.00     0.059 A
HETATM    4  N2  UNL     1      -5.826   6.800  10.903  1.00  0.00    -0.339 N
ATOM      5  H2  UNL     1      -6.479   7.468  11.313  1.00  0.00     0.167 HD
HETATM    6  C9  UNL     1      -5.782   6.468   9.604  1.00  0.00     0.152 A
HETATM    7  O1  UNL     1      -4.807   5.588   9.513  1.00  0.00    -0.298 OA
HETATM    8  C13 UNL     1      -4.242   5.348  10.651  1.00  0.00     0.087 A
HETATM    9  C14 UNL     1      -3.120   4.442  11.003  1.00  0.00     0.086 C
HETATM   10  C16 UNL     1      -2.715   4.613  12.437  1.00  0.00     0.136 C
ENDROOT
BRANCH   1  11
HETATM   11  C6  UNL     1      -3.871   4.246  14.516  1.00  0.00     0.090 C
BRANCH  11  12
HETATM   12  C5  UNL     1      -4.479   2.916  14.721  1.00  0.00     0.159 C
HETATM   13  C4  UNL     1      -3.979   2.128  15.889  1.00  0.00     0.038 C
HETATM   14  C3  UNL     1      -5.068   1.223  16.458  1.00  0.00     0.009 C
HETATM   15  C2  UNL     1      -6.257   2.067  16.889  1.00  0.00     0.005 C
HETATM   16  C1  UNL     1      -7.442   1.147  17.016  1.00  0.00     0.012 C
HETATM   17  C17 UNL     1      -6.475   3.199  15.904  1.00  0.00     0.172 C
HETATM   18  O3  UNL     1      -5.882   2.959  14.690  1.00  0.00    -0.380 OA
ENDBRANCH  11  12
ENDBRANCH   1  11
BRANCH   9  19
HETATM   19  C15 UNL     1      -1.978   4.575  10.042  1.00  0.00     0.177 C
BRANCH  19  20
HETATM   20  O2  UNL     1      -2.355   4.180   8.751  1.00  0.00    -0.400 OA
ATOM     21  H2  UNL     1      -2.101   4.830   8.107  1.00  0.00     0.209 HD
ENDBRANCH  19  20
ENDBRANCH   9  19
BRANCH   6  22
HETATM   22  C10 UNL     1      -6.655   6.996   8.526  1.00  0.00     0.355 C
BRANCH  22  23
HETATM   23  N3  UNL     1      -7.657   7.885   9.025  1.00  0.00     0.087 N
HETATM   24  C11 UNL     1      -7.203   9.251   8.714  1.00  0.00     0.309 C
HETATM   25  C12 UNL     1      -8.937   7.750   8.375  1.00  0.00     0.309 C
ENDBRANCH  22  23
ENDBRANCH   6  22
TORSDOF 6
ENDMDL