MODEL 5
REMARK VINA RESULT: -5.348677062      3.406      4.431
REMARK  9 active torsions:
REMARK  status: ('A' for Active; 'I' for Inactive)
REMARK    1  A    between atoms: C2_2  and  C3_3
REMARK    2  A    between atoms: C3_3  and  S1_4
REMARK    3  A    between atoms: S1_4  and  C4_5
REMARK    4  A    between atoms: C4_5  and  N1_7
REMARK    5  A    between atoms: N1_7  and  C5_9
REMARK    6  A    between atoms: C5_9  and  N2_11
REMARK    7  A    between atoms: N3_14  and  C8_15
REMARK    8  A    between atoms: C8_15  and  C9_16
REMARK    9  A    between atoms: C9_16  and  O1_17
ROOT
HETATM    1  N2  UNL     1      -3.800   3.591  11.431  1.00  0.00    -0.348 N
HETATM    2  C6  UNL     1      -2.857   3.690  12.538  1.00  0.00     0.145 C
HETATM    3  C7  UNL     1      -3.544   3.583  13.864  1.00  0.00     0.145 C
HETATM    4  N3  UNL     1      -4.504   2.465  13.841  1.00  0.00    -0.347 N
HETATM    5  C11 UNL     1      -4.632   1.725  12.656  1.00  0.00     0.237 C
HETATM    6  O2  UNL     1      -4.717   0.477  12.766  1.00  0.00    -0.272 OA
HETATM    7  C12 UNL     1      -4.662   2.429  11.341  1.00  0.00     0.228 C
ENDROOT
BRANCH   1   8
HETATM    8  C5  UNL     1      -3.909   4.593  10.435  1.00  0.00     0.175 C
HETATM    9  S3  UNL     1      -2.671   4.670   9.344  1.00  0.00    -0.041 SA
BRANCH   8  10
HETATM   10  N1  UNL     1      -5.010   5.460  10.394  1.00  0.00    -0.319 N
ATOM     11  H1  UNL     1      -5.813   5.169   9.837  1.00  0.00     0.169 HD
BRANCH  10  12
HETATM   12  C4  UNL     1      -5.100   6.694  11.053  1.00  0.00     0.140 C
HETATM   13  S2  UNL     1      -3.802   7.349  11.829  1.00  0.00    -0.052 SA
BRANCH  12  14
HETATM   14  S1  UNL     1      -6.600   7.642  11.105  1.00  0.00    -0.100 SA
BRANCH  14  15
HETATM   15  C3  UNL     1      -6.969   8.248   9.446  1.00  0.00     0.081 C
BRANCH  15  16
HETATM   16  C2  UNL     1      -7.823   7.210   8.748  1.00  0.00     0.006 C
HETATM   17  C1  UNL     1      -8.981   7.987   8.120  1.00  0.00     0.006 C
ENDBRANCH  15  16
ENDBRANCH  14  15
ENDBRANCH  12  14
ENDBRANCH  10  12
ENDBRANCH   8  10
ENDBRANCH   1   8
BRANCH   4  18
HETATM   18  C8  UNL     1      -5.255   2.226  15.063  1.00  0.00     0.152 C
BRANCH  18  19
HETATM   19  C9  UNL     1      -4.293   1.713  16.101  1.00  0.00     0.186 C
BRANCH  19  20
HETATM   20  O1  UNL     1      -4.653   0.553  16.728  1.00  0.00    -0.394 OA
HETATM   21  C10 UNL     1      -5.860   0.592  17.371  1.00  0.00     0.201 C
ENDBRANCH  19  20
ENDBRANCH  18  19
ENDBRANCH   4  18
TORSDOF 9
ENDMDL