MODEL 5
REMARK VINA RESULT: -6.874262213      1.207      1.401
REMARK  8 active torsions:
REMARK  status: ('A' for Active; 'I' for Inactive)
REMARK    1  A    between atoms: C2_2  and  O1_4
REMARK    2  A    between atoms: O1_4  and  C4_5
REMARK    3  A    between atoms: C4_5  and  C5_6
REMARK    4  A    between atoms: C5_6  and  O3_8
REMARK    5  A    between atoms: O3_8  and  C6_9
REMARK    6  A    between atoms: C9_12  and  C10_13
REMARK    7  A    between atoms: C13_17  and  C14_18
REMARK    8  A    between atoms: C14_18  and  O5_21
ROOT
HETATM    1  C6  UNL     1      -4.700   3.152  14.053  1.00  0.00     0.270 C
HETATM    2  C7  UNL     1      -3.216   3.481  13.767  1.00  0.00     0.071 C
HETATM    3  C8  UNL     1      -3.331   4.904  13.427  1.00  0.00     0.051 C
HETATM    4  C9  UNL     1      -2.442   5.540  12.465  1.00  0.00     0.132 C
HETATM    5  O4  UNL     1      -2.917   5.273  11.182  1.00  0.00    -0.374 OA
HETATM    6  C13 UNL     1      -4.277   5.055  11.283  1.00  0.00     0.185 C
HETATM    7  C17 UNL     1      -4.680   4.964  12.716  1.00  0.00     0.163 C
HETATM    8  O6  UNL     1      -5.371   3.828  13.038  1.00  0.00    -0.352 OA
ENDROOT
BRANCH   1   9
HETATM    9  O3  UNL     1      -4.944   1.770  13.873  1.00  0.00    -0.288 OA
BRANCH   9  10
HETATM   10  C5  UNL     1      -4.602   0.818  14.818  1.00  0.00     0.285 C
HETATM   11  O2  UNL     1      -4.684  -0.378  14.452  1.00  0.00    -0.263 OA
BRANCH  10  12
HETATM   12  C4  UNL     1      -4.160   1.160  16.187  1.00  0.00     0.279 C
BRANCH  12  13
HETATM   13  O1  UNL     1      -5.035   0.869  17.188  1.00  0.00    -0.377 OA
BRANCH  13  14
HETATM   14  C2  UNL     1      -6.115   1.691  17.343  1.00  0.00     0.114 C
HETATM   15  C1  UNL     1      -7.428   0.980  17.003  1.00  0.00     0.039 C
HETATM   16  C3  UNL     1      -6.220   2.118  18.782  1.00  0.00     0.039 C
ENDBRANCH  13  14
ENDBRANCH  12  13
ENDBRANCH  10  12
ENDBRANCH   9  10
ENDBRANCH   1   9
BRANCH   4  17
HETATM   17  C10 UNL     1      -0.986   5.342  12.527  1.00  0.00     0.007 C
HETATM   18  C11 UNL     1      -0.449   4.443  11.439  1.00  0.00     0.012 C
HETATM   19  C12 UNL     1      -0.283   6.695  12.311  1.00  0.00     0.012 C
ENDBRANCH   4  17
BRANCH   6  20
HETATM   20  C14 UNL     1      -4.996   6.149  10.532  1.00  0.00     0.079 C
HETATM   21  C15 UNL     1      -5.431   7.287  11.403  1.00  0.00     0.048 C
HETATM   22  C16 UNL     1      -4.107   6.692   9.433  1.00  0.00     0.048 C
BRANCH  20  23
HETATM   23  O5  UNL     1      -6.142   5.579   9.959  1.00  0.00    -0.388 OA
ATOM     24  H5  UNL     1      -6.700   6.293   9.672  1.00  0.00     0.210 HD
ENDBRANCH  20  23
ENDBRANCH   6  20
TORSDOF 8
ENDMDL