MODEL 3
REMARK VINA RESULT: -7.434378016      1.204      1.331
REMARK  6 active torsions:
REMARK  status: ('A' for Active; 'I' for Inactive)
REMARK    1  A    between atoms: C4_4  and  C6_6
REMARK    2  A    between atoms: C6_6  and  O2_8
REMARK    3  A    between atoms: O2_8  and  C7_9
REMARK    4  A    between atoms: C8_11  and  C9_12
REMARK    5  A    between atoms: C9_12  and  C10_13
REMARK    6  A    between atoms: C11_15  and  C12_16
ROOT
HETATM    1  C7  UNL     1      -4.098   5.533  12.588  1.00  0.00     0.303 C
HETATM    2  O3  UNL     1      -5.139   5.374  13.434  1.00  0.00    -0.350 OA
HETATM    3  C8  UNL     1      -4.879   5.196  14.751  1.00  0.00     0.151 C
HETATM    4  C13 UNL     1      -3.467   4.685  14.910  1.00  0.00     0.201 C
HETATM    5  O7  UNL     1      -2.642   5.749  14.509  1.00  0.00    -0.373 OA
HETATM    6  C14 UNL     1      -2.795   5.942  13.170  1.00  0.00     0.103 C
HETATM    7  C15 UNL     1      -2.575   7.426  12.891  1.00  0.00     0.051 C
HETATM    8  C16 UNL     1      -1.638   5.222  12.459  1.00  0.00     0.051 C
ENDROOT
BRANCH   1   9
HETATM    9  O2  UNL     1      -4.474   6.441  11.566  1.00  0.00    -0.283 OA
BRANCH   9  10
HETATM   10  C6  UNL     1      -5.360   6.135  10.548  1.00  0.00     0.291 C
HETATM   11  O1  UNL     1      -5.201   5.034   9.976  1.00  0.00    -0.260 OA
BRANCH  10  12
HETATM   12  C4  UNL     1      -6.401   7.093  10.210  1.00  0.00     0.015 C
HETATM   13  C2  UNL     1      -6.659   7.529   9.009  1.00  0.00    -0.076 C
HETATM   14  C1  UNL     1      -7.736   8.499   8.785  1.00  0.00     0.044 C
HETATM   15  C3  UNL     1      -5.860   7.042   7.874  1.00  0.00     0.044 C
HETATM   16  C5  UNL     1      -7.255   7.628  11.336  1.00  0.00     0.055 C
ENDBRANCH  10  12
ENDBRANCH   9  10
ENDBRANCH   1   9
BRANCH   3  17
HETATM   17  C9  UNL     1      -5.891   4.300  15.387  1.00  0.00     0.069 C
BRANCH  17  18
HETATM   18  C10 UNL     1      -5.279   3.017  15.912  1.00  0.00     0.165 A
HETATM   19  O4  UNL     1      -6.400   2.099  16.248  1.00  0.00    -0.364 OA
HETATM   20  C11 UNL     1      -5.488   1.726  15.264  1.00  0.00     0.251 A
BRANCH  20  21
HETATM   21  C12 UNL     1      -4.528   0.646  15.621  1.00  0.00     0.205 C
HETATM   22  O5  UNL     1      -3.500   0.902  16.292  1.00  0.00    -0.646 OA
HETATM   23  O6  UNL     1      -4.747  -0.663  15.219  1.00  0.00    -0.646 OA
ENDBRANCH  20  21
ENDBRANCH  17  18
ENDBRANCH   3  17
TORSDOF 6
ENDMDL