MODEL 3
REMARK VINA RESULT: -6.760309289      2.453      3.659
REMARK  8 active torsions:
REMARK  status: ('A' for Active; 'I' for Inactive)
REMARK    1  A    between atoms: C2_2  and  C5_5
REMARK    2  A    between atoms: C5_5  and  C8_8
REMARK    3  A    between atoms: C8_8  and  C9_10
REMARK    4  A    between atoms: C9_10  and  O2_11
REMARK    5  A    between atoms: O2_11  and  C10_12
REMARK    6  A    between atoms: C10_12  and  C11_14
REMARK    7  A    between atoms: C11_14  and  N1_15
REMARK       I    between atoms: N1_15  and  C12_17
REMARK    8  A    between atoms: C12_17  and  C13_19
ROOT
HETATM    1  C10 UNL     1      -2.350   4.405  12.820  1.00  0.00     0.277 C
HETATM    2  O3  UNL     1      -1.793   3.316  12.556  1.00  0.00    -0.263 OA
ENDROOT
BRANCH   1   3
HETATM    3  O2  UNL     1      -2.694   5.349  11.861  1.00  0.00    -0.313 OA
BRANCH   3   4
HETATM    4  C9  UNL     1      -3.870   6.097  12.114  1.00  0.00     0.258 C
BRANCH   4   5
HETATM    5  C8  UNL     1      -4.784   6.085  10.949  1.00  0.00     0.159 C
HETATM    6  O1  UNL     1      -5.332   5.048  10.580  1.00  0.00    -0.295 OA
BRANCH   5   7
HETATM    7  C5  UNL     1      -4.998   7.394  10.254  1.00  0.00     0.022 C
HETATM    8  C6  UNL     1      -4.830   7.082   8.770  1.00  0.00     0.024 C
HETATM    9  C7  UNL     1      -3.957   8.339  10.748  1.00  0.00     0.024 C
BRANCH   7  10
HETATM   10  C2  UNL     1      -6.407   7.907  10.428  1.00  0.00    -0.037 C
HETATM   11  C1  UNL     1      -7.023   7.359  11.703  1.00  0.00     0.015 C
HETATM   12  C3  UNL     1      -6.347   9.415  10.454  1.00  0.00     0.015 C
HETATM   13  C4  UNL     1      -7.274   7.475   9.291  1.00  0.00     0.015 C
ENDBRANCH   7  10
ENDBRANCH   5   7
ENDBRANCH   4   5
ENDBRANCH   3   4
ENDBRANCH   1   3
BRANCH   1  14
HETATM   14  C11 UNL     1      -2.631   4.653  14.282  1.00  0.00     0.234 C
BRANCH  14  15
HETATM   15  N1  UNL     1      -3.140   3.467  14.903  1.00  0.00    -0.346 N
HETATM   16  C12 UNL     1      -4.551   3.409  15.160  1.00  0.00     0.277 C
HETATM   17  O4  UNL     1      -5.234   4.410  14.824  1.00  0.00    -0.265 OA
ATOM     18  H1  UNL     1      -2.523   2.693  15.154  1.00  0.00     0.163 HD
BRANCH  16  19
HETATM   19  C13 UNL     1      -5.226   2.288  15.771  1.00  0.00     0.158 C
HETATM   20  C14 UNL     1      -4.609   1.116  15.815  1.00  0.00     0.177 C
HETATM   21  O5  UNL     1      -5.230   0.001  16.402  1.00  0.00    -0.358 OA
HETATM   22  C15 UNL     1      -6.149   0.236  17.492  1.00  0.00     0.201 C
HETATM   23  C16 UNL     1      -7.072   1.345  17.087  1.00  0.00     0.202 C
HETATM   24  O6  UNL     1      -6.493   2.356  16.319  1.00  0.00    -0.342 OA
ENDBRANCH  16  19
ENDBRANCH  14  15
ENDBRANCH   1  14
TORSDOF 8
ENDMDL