MODEL 5
REMARK VINA RESULT: -6.369734622      2.841      7.020
REMARK  6 active torsions:
REMARK  status: ('A' for Active; 'I' for Inactive)
REMARK    1  A    between atoms: C4_6  and  N2_7
REMARK    2  A    between atoms: C8_11  and  C9_12
REMARK    3  A    between atoms: C8_11  and  C10_15
REMARK    4  A    between atoms: C9_12  and  O1_13
REMARK    5  A    between atoms: C10_15  and  C11_16
REMARK    6  A    between atoms: C11_16  and  N3_17
ROOT
HETATM    1  N2  UNL     1      -1.875   4.364  12.277  1.00  0.00    -0.361 N
HETATM    2  C5  UNL     1      -2.875   3.922  11.349  1.00  0.00     0.125 C
HETATM    3  C6  UNL     1      -4.171   4.603  11.572  1.00  0.00     0.021 C
HETATM    4  C7  UNL     1      -4.193   5.713  12.563  1.00  0.00     0.015 C
HETATM    5  C8  UNL     1      -3.414   5.500  13.807  1.00  0.00    -0.001 C
HETATM    6  C16 UNL     1      -2.231   4.568  13.652  1.00  0.00     0.136 C
ENDROOT
BRANCH   5   7
HETATM    7  C9  UNL     1      -2.791   6.859  14.173  1.00  0.00     0.175 C
BRANCH   7   8
HETATM    8  O1  UNL     1      -2.659   7.657  13.049  1.00  0.00    -0.400 OA
ATOM      9  H1  UNL     1      -1.848   8.151  13.080  1.00  0.00     0.209 HD
ENDBRANCH   7   8
ENDBRANCH   5   7
BRANCH   5  10
HETATM   10  C10 UNL     1      -4.223   4.963  14.951  1.00  0.00     0.043 C
BRANCH  10  11
HETATM   11  C11 UNL     1      -3.930   3.578  15.385  1.00  0.00     0.273 C
BRANCH  11  12
HETATM   12  N3  UNL     1      -4.962   2.661  14.965  1.00  0.00     0.092 N
HETATM   13  C12 UNL     1      -4.500   1.528  14.245  1.00  0.00     0.298 C
HETATM   14  C13 UNL     1      -4.494   0.258  15.074  1.00  0.00     0.198 C
HETATM   15  O2  UNL     1      -4.364   0.510  16.437  1.00  0.00    -0.388 OA
HETATM   16  C14 UNL     1      -5.397   1.264  16.955  1.00  0.00     0.198 C
HETATM   17  C15 UNL     1      -5.902   2.307  15.979  1.00  0.00     0.298 C
ENDBRANCH  11  12
ENDBRANCH  10  11
ENDBRANCH   5  10
BRANCH   1  18
HETATM   18  C4  UNL     1      -0.505   4.591  11.850  1.00  0.00     0.146 A
HETATM   19  N1  UNL     1       0.410   3.744  11.418  1.00  0.00    -0.346 N
HETATM   20  C3  UNL     1       1.588   4.164  11.089  1.00  0.00     0.104 A
ATOM     21  H1  UNL     1       0.187   2.752  11.342  1.00  0.00     0.167 HD
HETATM   22  C2  UNL     1       1.837   5.512  11.208  1.00  0.00    -0.003 A
HETATM   23  C1  UNL     1       3.111   6.244  10.895  1.00  0.00     0.058 C
HETATM   24  S1  UNL     1       0.343   6.093  11.793  1.00  0.00    -0.058 SA
ENDBRANCH   1  18
TORSDOF 6
ENDMDL