MODEL 2
REMARK VINA RESULT: -6.786736999      1.989      3.144
REMARK  7 active torsions:
REMARK  status: ('A' for Active; 'I' for Inactive)
REMARK    1  A    between atoms: C2_2  and  C4_4
REMARK    2  A    between atoms: C10_12  and  O3_13
REMARK    3  A    between atoms: C10_12  and  C11_15
REMARK    4  A    between atoms: C11_15  and  O5_17
REMARK    5  A    between atoms: O5_17  and  C12_18
REMARK    6  A    between atoms: C12_18  and  C13_19
REMARK    7  A    between atoms: C13_19  and  C14_21
ROOT
HETATM    1  C4  UNL     1      -3.565   6.155  11.069  1.00  0.00     0.069 C
HETATM    2  C5  UNL     1      -3.829   7.578  11.517  1.00  0.00     0.092 C
HETATM    3  C6  UNL     1      -4.974   8.068  10.678  1.00  0.00     0.161 C
HETATM    4  O1  UNL     1      -4.901   9.204  10.241  1.00  0.00    -0.295 OA
HETATM    5  C7  UNL     1      -6.116   7.162  10.428  1.00  0.00     0.118 C
HETATM    6  C8  UNL     1      -7.206   7.376  11.467  1.00  0.00     0.054 C
HETATM    7  C9  UNL     1      -6.730   7.592   9.091  1.00  0.00     0.054 C
HETATM    8  O2  UNL     1      -5.769   5.846  10.295  1.00  0.00    -0.328 OA
HETATM    9  C10 UNL     1      -4.854   5.391  11.236  1.00  0.00     0.258 C
ENDROOT
BRANCH   9  10
HETATM   10  O3  UNL     1      -5.321   5.548  12.537  1.00  0.00    -0.357 OA
ATOM     11  H3  UNL     1      -6.268   5.469  12.545  1.00  0.00     0.213 HD
ENDBRANCH   9  10
BRANCH   9  12
HETATM   12  C11 UNL     1      -4.667   3.945  10.983  1.00  0.00     0.323 C
HETATM   13  O4  UNL     1      -4.260   3.509   9.877  1.00  0.00    -0.259 OA
BRANCH  12  14
HETATM   14  O5  UNL     1      -4.943   3.038  11.983  1.00  0.00    -0.310 OA
BRANCH  14  15
HETATM   15  C12 UNL     1      -3.975   2.284  12.651  1.00  0.00     0.258 C
BRANCH  15  16
HETATM   16  C13 UNL     1      -4.442   1.688  13.931  1.00  0.00     0.158 C
HETATM   17  O6  UNL     1      -4.725   0.535  14.105  1.00  0.00    -0.295 OA
BRANCH  16  18
HETATM   18  C14 UNL     1      -4.574   2.610  15.118  1.00  0.00     0.012 C
HETATM   19  C15 UNL     1      -5.974   3.176  15.217  1.00  0.00     0.022 C
HETATM   20  C16 UNL     1      -3.583   3.740  15.032  1.00  0.00     0.022 C
HETATM   21  C17 UNL     1      -4.339   1.740  16.341  1.00  0.00     0.022 C
ENDBRANCH  16  18
ENDBRANCH  15  16
ENDBRANCH  14  15
ENDBRANCH  12  14
ENDBRANCH   9  12
BRANCH   1  22
HETATM   22  C2  UNL     1      -2.402   5.541  11.787  1.00  0.00    -0.012 C
HETATM   23  C1  UNL     1      -1.884   6.362  12.926  1.00  0.00     0.010 C
HETATM   24  C3  UNL     1      -1.271   5.412  10.772  1.00  0.00     0.010 C
ENDBRANCH   1  22
TORSDOF 7
ENDMDL