MODEL 4
REMARK VINA RESULT: -6.614177523      2.361      3.394
REMARK  5 active torsions:
REMARK  status: ('A' for Active; 'I' for Inactive)
REMARK    1  A    between atoms: C3_7  and  S1_8
REMARK    2  A    between atoms: S1_8  and  C4_9
REMARK    3  A    between atoms: C4_9  and  C5_10
REMARK    4  A    between atoms: C5_10  and  N3_12
REMARK    5  A    between atoms: N4_15  and  C9_16
ROOT
HETATM    1  C5  UNL     1      -3.865   5.955  12.327  1.00  0.00     0.229 C
HETATM    2  C6  UNL     1      -4.199   6.835  11.167  1.00  0.00     0.043 C
ENDROOT
BRANCH   1   3
HETATM    3  C4  UNL     1      -3.257   6.674  13.481  1.00  0.00     0.117 C
BRANCH   3   4
HETATM    4  S1  UNL     1      -1.609   6.171  13.927  1.00  0.00    -0.090 SA
BRANCH   4   5
HETATM    5  C3  UNL     1      -0.802   5.027  12.887  1.00  0.00     0.160 A
HETATM    6  N2  UNL     1      -1.034   3.703  12.838  1.00  0.00    -0.278 N
HETATM    7  N1  UNL     1      -0.282   3.144  11.932  1.00  0.00    -0.287 N
ATOM      8  H2  UNL     1      -1.704   3.207  13.426  1.00  0.00     0.189 HD
HETATM    9  C2  UNL     1       0.467   4.099  11.361  1.00  0.00     0.093 A
ATOM     10  H1  UNL     1      -0.266   2.151  11.697  1.00  0.00     0.188 HD
HETATM   11  C1  UNL     1       1.448   3.822  10.276  1.00  0.00     0.090 C
HETATM   12  N5  UNL     1       0.152   5.263  11.944  1.00  0.00    -0.325 N
ATOM     13  H5  UNL     1       0.558   6.171  11.720  1.00  0.00     0.169 HD
ENDBRANCH   4   5
ENDBRANCH   3   4
ENDBRANCH   1   3
BRANCH   1  14
HETATM   14  N3  UNL     1      -4.947   5.085  12.719  1.00  0.00     0.096 N
HETATM   15  C7  UNL     1      -4.619   3.703  12.771  1.00  0.00     0.292 C
HETATM   16  C8  UNL     1      -4.253   3.332  14.205  1.00  0.00     0.147 C
HETATM   17  N4  UNL     1      -5.405   3.475  15.026  1.00  0.00    -0.405 N
HETATM   18  C14 UNL     1      -6.315   4.501  14.661  1.00  0.00     0.147 C
HETATM   19  C15 UNL     1      -5.580   5.596  13.890  1.00  0.00     0.292 C
BRANCH  17  20
HETATM   20  C9  UNL     1      -5.898   2.316  15.643  1.00  0.00     0.083 C
HETATM   21  C10 UNL     1      -4.773   1.466  16.170  1.00  0.00     0.051 C
HETATM   22  C11 UNL     1      -5.295   0.229  16.890  1.00  0.00     0.169 C
HETATM   23  O1  UNL     1      -6.676   0.173  16.630  1.00  0.00    -0.391 OA
HETATM   24  C12 UNL     1      -7.317   1.234  17.298  1.00  0.00     0.169 C
HETATM   25  C13 UNL     1      -6.917   2.578  16.732  1.00  0.00     0.051 C
ENDBRANCH  17  20
ENDBRANCH   1  14
TORSDOF 5
ENDMDL