MODEL 1
REMARK VINA RESULT: -7.292512154      0.000      0.000
REMARK  9 active torsions:
REMARK  status: ('A' for Active; 'I' for Inactive)
REMARK    1  A    between atoms: C2_2  and  N1_3
REMARK       I    between atoms: N1_3  and  C3_5
REMARK    2  A    between atoms: C3_5  and  C4_7
REMARK    3  A    between atoms: C4_7  and  O2_10
REMARK    4  A    between atoms: O2_10  and  C7_11
REMARK       I    between atoms: C7_11  and  N2_13
REMARK    5  A    between atoms: C10_16  and  C11_17
REMARK    6  A    between atoms: C11_17  and  N3_18
REMARK    7  A    between atoms: C14_21  and  N4_22
REMARK    8  A    between atoms: N4_22  and  C15_25
REMARK    9  A    between atoms: C15_25  and  C16_26
ROOT
HETATM    1  C7  UNL     1      -5.641   7.935  10.570  1.00  0.00     0.364 C
HETATM    2  O3  UNL     1      -4.595   8.540  10.233  1.00  0.00    -0.238 OA
HETATM    3  N2  UNL     1      -5.554   6.869  11.532  1.00  0.00    -0.327 N
HETATM    4  C8  UNL     1      -6.684   6.102  11.998  1.00  0.00     0.129 C
HETATM    5  C9  UNL     1      -6.084   4.798  12.401  1.00  0.00     0.031 C
HETATM    6  C10 UNL     1      -4.682   5.126  12.870  1.00  0.00     0.043 C
HETATM    7  C18 UNL     1      -4.360   6.404  12.170  1.00  0.00     0.138 C
ENDROOT
BRANCH   6   8
HETATM    8  C11 UNL     1      -3.794   4.005  12.438  1.00  0.00     0.064 C
BRANCH   8   9
HETATM    9  N3  UNL     1      -3.465   3.061  13.426  1.00  0.00    -0.391 N
HETATM   10  C12 UNL     1      -3.678   1.697  13.093  1.00  0.00     0.124 C
HETATM   11  C13 UNL     1      -4.262   1.048  14.351  1.00  0.00     0.054 C
HETATM   12  C14 UNL     1      -3.635   1.942  15.421  1.00  0.00     0.205 C
HETATM   13  C17 UNL     1      -3.801   3.319  14.767  1.00  0.00     0.154 C
BRANCH  12  14
HETATM   14  N4  UNL     1      -4.330   1.870  16.674  1.00  0.00    -0.061 N
ATOM     15  H42 UNL     1      -3.740   1.534  17.437  1.00  0.00     0.278 HD
ATOM     16  H41 UNL     1      -4.541   2.788  17.064  1.00  0.00     0.278 HD
BRANCH  14  17
HETATM   17  C15 UNL     1      -5.515   1.053  16.476  1.00  0.00     0.349 C
BRANCH  17  18
HETATM   18  C16 UNL     1      -6.735   1.710  17.132  1.00  0.00     0.411 C
HETATM   19  F1  UNL     1      -6.495   2.052  18.433  1.00  0.00    -0.169 F
HETATM   20  F2  UNL     1      -7.792   0.861  16.967  1.00  0.00    -0.169 F
HETATM   21  F3  UNL     1      -6.956   2.889  16.435  1.00  0.00    -0.169 F
ENDBRANCH  17  18
ENDBRANCH  14  17
ENDBRANCH  12  14
ENDBRANCH   8   9
ENDBRANCH   6   8
BRANCH   1  22
HETATM   22  O2  UNL     1      -6.838   8.306  10.014  1.00  0.00    -0.283 OA
BRANCH  22  23
HETATM   23  C4  UNL     1      -7.190   8.030   8.698  1.00  0.00     0.145 C
HETATM   24  C5  UNL     1      -6.948   9.244   7.789  1.00  0.00     0.057 C
HETATM   25  C6  UNL     1      -8.688   7.774   8.661  1.00  0.00     0.057 C
BRANCH  23  26
HETATM   26  C3  UNL     1      -6.476   6.906   8.070  1.00  0.00     0.252 C
HETATM   27  N1  UNL     1      -5.288   7.153   7.322  1.00  0.00    -0.359 N
ATOM     28  H1  UNL     1      -4.952   8.112   7.235  1.00  0.00     0.162 HD
HETATM   29  O1  UNL     1      -6.876   5.712   8.165  1.00  0.00    -0.270 OA
BRANCH  27  30
HETATM   30  C2  UNL     1      -4.544   6.095   6.686  1.00  0.00     0.118 C
HETATM   31  C1  UNL     1      -3.376   5.598   7.492  1.00  0.00     0.026 C
ENDBRANCH  27  30
ENDBRANCH  23  26
ENDBRANCH  22  23
ENDBRANCH   1  22
TORSDOF 9
ENDMDL