MODEL 5
REMARK VINA RESULT: -6.833339565      1.554      1.953
REMARK  9 active torsions:
REMARK  status: ('A' for Active; 'I' for Inactive)
REMARK       I    between atoms: C2_2  and  N1_4
REMARK    1  A    between atoms: C3_5  and  C4_6
REMARK    2  A    between atoms: C4_6  and  N3_12
REMARK    3  A    between atoms: N2_7  and  C5_9
REMARK    4  A    between atoms: N3_12  and  C8_14
REMARK    5  A    between atoms: C8_14  and  C11_17
REMARK    6  A    between atoms: C15_25  and  O3_26
REMARK    7  A    between atoms: O3_26  and  C16_27
REMARK    8  A    between atoms: C16_27  and  C17_28
REMARK    9  A    between atoms: C17_28  and  O4_29
ROOT
HETATM    1  C1  UNL     1      -1.439   4.474  13.551  1.00  0.00     0.117 C
HETATM    2  C2  UNL     1      -2.750   3.920  13.971  1.00  0.00     0.218 C
HETATM    3  O1  UNL     1      -3.012   4.092  15.208  1.00  0.00    -0.274 OA
HETATM    4  N1  UNL     1      -3.636   3.261  13.093  1.00  0.00    -0.309 N
HETATM    5  C3  UNL     1      -3.339   3.119  11.655  1.00  0.00     0.295 C
HETATM    6  O2  UNL     1      -4.157   2.066  11.200  1.00  0.00    -0.352 OA
HETATM    7  C12 UNL     1      -4.766   1.484  12.262  1.00  0.00     0.150 C
HETATM    8  C13 UNL     1      -3.787   0.549  12.921  1.00  0.00     0.037 C
HETATM    9  C14 UNL     1      -3.783   0.859  14.405  1.00  0.00     0.036 C
HETATM   10  C15 UNL     1      -4.991   1.750  14.553  1.00  0.00     0.147 C
HETATM   11  C18 UNL     1      -4.887   2.609  13.305  1.00  0.00     0.148 C
ENDROOT
BRANCH   5  12
HETATM   12  C4  UNL     1      -3.766   4.280  10.863  1.00  0.00     0.124 C
HETATM   13  N2  UNL     1      -2.987   4.933  10.120  1.00  0.00    -0.372 N
ATOM     14  H2  UNL     1      -3.438   5.712   9.639  1.00  0.00     0.161 HD
BRANCH  13  15
HETATM   15  C5  UNL     1      -1.615   4.802   9.821  1.00  0.00     0.074 C
HETATM   16  C6  UNL     1      -0.824   6.007  10.346  1.00  0.00     0.031 C
HETATM   17  C7  UNL     1      -1.361   4.797   8.306  1.00  0.00     0.031 C
ENDBRANCH  13  15
BRANCH  12  18
HETATM   18  N3  UNL     1      -5.133   4.656  10.898  1.00  0.00    -0.359 N
ATOM     19  H3  UNL     1      -5.798   4.061  10.404  1.00  0.00     0.162 HD
BRANCH  18  20
HETATM   20  C8  UNL     1      -5.651   5.808  11.576  1.00  0.00     0.122 C
HETATM   21  C9  UNL     1      -6.429   6.640  10.545  1.00  0.00     0.047 C
HETATM   22  C10 UNL     1      -4.499   6.701  12.011  1.00  0.00     0.047 C
BRANCH  20  23
HETATM   23  C11 UNL     1      -6.543   5.515  12.748  1.00  0.00     0.411 C
HETATM   24  F1  UNL     1      -7.185   4.313  12.648  1.00  0.00    -0.168 F
HETATM   25  F2  UNL     1      -5.875   5.707  13.939  1.00  0.00    -0.168 F
HETATM   26  F3  UNL     1      -7.561   6.486  12.683  1.00  0.00    -0.168 F
ENDBRANCH  20  23
ENDBRANCH  18  20
ENDBRANCH  12  18
ENDBRANCH   5  12
BRANCH  10  27
HETATM   27  O3  UNL     1      -5.153   2.388  15.711  1.00  0.00    -0.382 OA
BRANCH  27  28
HETATM   28  C16 UNL     1      -4.971   1.720  16.880  1.00  0.00     0.194 C
BRANCH  28  29
HETATM   29  C17 UNL     1      -6.048   0.789  17.329  1.00  0.00     0.190 C
BRANCH  29  30
HETATM   30  O4  UNL     1      -5.751  -0.547  17.344  1.00  0.00    -0.399 OA
ATOM     31  H4  UNL     1      -6.481  -1.152  17.390  1.00  0.00     0.209 HD
ENDBRANCH  29  30
ENDBRANCH  28  29
ENDBRANCH  27  28
ENDBRANCH  10  27
TORSDOF 9
ENDMDL