MODEL 3
REMARK VINA RESULT: -7.493960389      0.587      1.050
REMARK  11 active torsions:
REMARK  status: ('A' for Active; 'I' for Inactive)
REMARK    1  A    between atoms: O1_1  and  C1_3
REMARK    2  A    between atoms: N1_5  and  C3_6
REMARK    3  A    between atoms: C3_6  and  C4_7
REMARK    4  A    between atoms: C4_7  and  C5_8
REMARK    5  A    between atoms: C5_8  and  C6_9
REMARK    6  A    between atoms: C6_9  and  C7_10
REMARK    7  A    between atoms: C8_11  and  C9_12
REMARK    8  A    between atoms: C11_16  and  N3_17
REMARK    9  A    between atoms: N3_17  and  C12_19
REMARK   10  A    between atoms: C12_19  and  C13_20
REMARK   11  A    between atoms: C18_28  and  C19_29
ROOT
HETATM    1  C9  UNL     1      -5.622   5.820  10.609  1.00  0.00     0.065 A
HETATM    2  C10 UNL     1      -5.092   4.605  10.967  1.00  0.00     0.129 A
HETATM    3  N2  UNL     1      -5.462   3.985  12.099  1.00  0.00    -0.201 N
ATOM      4  H2  UNL     1      -5.042   3.082  12.322  1.00  0.00     0.183 HD
HETATM    5  C11 UNL     1      -6.363   4.503  12.948  1.00  0.00     0.678 A
HETATM    6  N4  UNL     1      -6.893   5.713  12.592  1.00  0.00    -0.185 N
ATOM      7  H4  UNL     1      -7.581   6.137  13.214  1.00  0.00     0.184 HD
HETATM    8  C18 UNL     1      -6.564   6.370  11.484  1.00  0.00     0.152 A
ENDROOT
BRANCH   1   9
HETATM    9  C8  UNL     1      -5.255   6.536   9.420  1.00  0.00    -0.063 C
HETATM   10  C7  UNL     1      -4.961   7.159   8.446  1.00  0.00    -0.101 C
BRANCH  10  11
HETATM   11  C6  UNL     1      -4.615   7.949   7.276  1.00  0.00     0.094 C
BRANCH  11  12
HETATM   12  C5  UNL     1      -5.843   8.591   6.721  1.00  0.00     0.014 C
BRANCH  12  13
HETATM   13  C4  UNL     1      -6.543   9.526   7.680  1.00  0.00     0.031 C
BRANCH  13  14
HETATM   14  C3  UNL     1      -7.599  10.290   6.872  1.00  0.00     0.272 C
BRANCH  14  15
HETATM   15  N1  UNL     1      -8.656   9.393   6.480  1.00  0.00     0.093 N
HETATM   16  C2  UNL     1      -9.390   8.867   7.590  1.00  0.00     0.305 C
HETATM   17  C1  UNL     1     -10.470   9.914   7.291  1.00  0.00     0.174 C
HETATM   18  C20 UNL     1      -9.829   9.949   5.899  1.00  0.00     0.305 C
BRANCH  17  19
HETATM   19  O1  UNL     1     -11.764   9.436   7.271  1.00  0.00    -0.392 OA
ATOM     20  H1  UNL     1     -12.125   9.208   8.120  1.00  0.00     0.210 HD
ENDBRANCH  17  19
ENDBRANCH  14  15
ENDBRANCH  13  14
ENDBRANCH  12  13
ENDBRANCH  11  12
ENDBRANCH  10  11
ENDBRANCH   1   9
BRANCH   8  21
HETATM   21  C19 UNL     1      -7.155   7.685  11.108  1.00  0.00     0.434 C
HETATM   22  F1  UNL     1      -8.049   8.013  12.132  1.00  0.00    -0.165 F
HETATM   23  F2  UNL     1      -6.189   8.671  11.059  1.00  0.00    -0.165 F
HETATM   24  F3  UNL     1      -7.865   7.564   9.955  1.00  0.00    -0.165 F
ENDBRANCH   8  21
BRANCH   5  25
HETATM   25  N3  UNL     1      -6.755   3.963  14.040  1.00  0.00    -0.226 N
ATOM     26  H3  UNL     1      -7.654   3.482  14.064  1.00  0.00     0.177 HD
BRANCH  25  27
HETATM   27  C12 UNL     1      -5.955   4.018  15.237  1.00  0.00     0.142 C
BRANCH  27  28
HETATM   28  C13 UNL     1      -5.532   2.591  15.528  1.00  0.00     0.008 C
HETATM   29  C14 UNL     1      -6.156   2.224  16.862  1.00  0.00     0.032 C
HETATM   30  C15 UNL     1      -5.882   0.726  17.052  1.00  0.00     0.168 C
HETATM   31  O2  UNL     1      -4.502   0.612  17.180  1.00  0.00    -0.391 OA
HETATM   32  C16 UNL     1      -3.818   0.956  16.037  1.00  0.00     0.168 C
HETATM   33  C17 UNL     1      -4.056   2.387  15.592  1.00  0.00     0.032 C
ENDBRANCH  27  28
ENDBRANCH  25  27
ENDBRANCH   5  25
TORSDOF 11
ENDMDL