MODEL 2
REMARK VINA RESULT: -7.736664894      1.558      1.811
REMARK  8 active torsions:
REMARK  status: ('A' for Active; 'I' for Inactive)
REMARK    1  A    between atoms: O1_2  and  C2_3
REMARK    2  A    between atoms: C5_6  and  C6_7
REMARK    3  A    between atoms: C6_7  and  N1_8
REMARK    4  A    between atoms: C9_11  and  O2_12
REMARK    5  A    between atoms: C9_11  and  C10_14
REMARK    6  A    between atoms: C10_14  and  N2_15
REMARK       I    between atoms: N2_15  and  C11_17
REMARK    7  A    between atoms: C11_17  and  C12_19
REMARK    8  A    between atoms: C12_19  and  C13_20
ROOT
HETATM    1  N1  UNL     1      -4.559   4.734  10.863  1.00  0.00    -0.370 N
HETATM    2  C7  UNL     1      -3.191   4.646  10.871  1.00  0.00     0.066 C
HETATM    3  C8  UNL     1      -2.829   3.180  11.078  1.00  0.00     0.090 C
HETATM    4  C9  UNL     1      -4.118   2.495  11.177  1.00  0.00     0.110 C
HETATM    5  C17 UNL     1      -5.099   3.661  11.606  1.00  0.00     0.170 C
ENDROOT
BRANCH   4   6
HETATM    6  O2  UNL     1      -4.707   2.069   9.988  1.00  0.00    -0.382 OA
ATOM      7  H2  UNL     1      -5.655   2.007   9.971  1.00  0.00     0.211 HD
ENDBRANCH   4   6
BRANCH   4   8
HETATM    8  C10 UNL     1      -4.179   1.449  12.226  1.00  0.00     0.103 C
BRANCH   8   9
HETATM    9  N2  UNL     1      -4.878   1.776  13.406  1.00  0.00    -0.335 N
HETATM   10  C11 UNL     1      -4.500   1.840  14.743  1.00  0.00     0.265 C
HETATM   11  O3  UNL     1      -3.364   1.604  15.169  1.00  0.00    -0.269 OA
ATOM     12  H2  UNL     1      -5.858   2.012  13.247  1.00  0.00     0.168 HD
BRANCH  10  13
HETATM   13  C12 UNL     1      -5.509   2.224  15.809  1.00  0.00     0.239 C
HETATM   14  C14 UNL     1      -4.924   2.123  17.187  1.00  0.00     0.060 C
HETATM   15  C15 UNL     1      -6.127   1.704  18.003  1.00  0.00     0.030 C
HETATM   16  C16 UNL     1      -6.968   0.998  16.975  1.00  0.00     0.170 C
HETATM   17  O4  UNL     1      -6.574   1.381  15.724  1.00  0.00    -0.362 OA
BRANCH  13  18
HETATM   18  C13 UNL     1      -5.952   3.636  15.534  1.00  0.00     0.427 C
HETATM   19  F1  UNL     1      -6.564   4.207  16.642  1.00  0.00    -0.167 F
HETATM   20  F2  UNL     1      -6.824   3.711  14.469  1.00  0.00    -0.167 F
HETATM   21  F3  UNL     1      -4.856   4.456  15.255  1.00  0.00    -0.167 F
ENDBRANCH  13  18
ENDBRANCH  10  13
ENDBRANCH   8   9
ENDBRANCH   4   8
BRANCH   1  22
HETATM   22  C6  UNL     1      -5.323   5.184   9.789  1.00  0.00     0.068 C
BRANCH  22  23
HETATM   23  C5  UNL     1      -5.815   6.587   9.801  1.00  0.00     0.024 C
HETATM   24  C4  UNL     1      -4.994   7.590   9.064  1.00  0.00     0.012 C
HETATM   25  C3  UNL     1      -5.799   8.896   8.993  1.00  0.00     0.032 C
HETATM   26  C2  UNL     1      -6.016   9.324  10.429  1.00  0.00     0.120 C
HETATM   27  C19 UNL     1      -6.958   8.312  11.044  1.00  0.00     0.032 C
HETATM   28  C18 UNL     1      -6.109   7.048  11.238  1.00  0.00     0.012 C
BRANCH  26  29
HETATM   29  O1  UNL     1      -6.436  10.615  10.561  1.00  0.00    -0.391 OA
HETATM   30  C1  UNL     1      -6.562  11.185   9.297  1.00  0.00     0.202 C
ENDBRANCH  26  29
ENDBRANCH  22  23
ENDBRANCH   1  22
TORSDOF 8
ENDMDL