MODEL 3
REMARK VINA RESULT: -7.899179634      3.405      6.429
REMARK  8 active torsions:
REMARK  status: ('A' for Active; 'I' for Inactive)
REMARK    1  A    between atoms: O1_2  and  C2_3
REMARK    2  A    between atoms: C2_3  and  C3_5
REMARK    3  A    between atoms: C3_5  and  N1_6
REMARK    4  A    between atoms: C3_5  and  C11_16
REMARK       I    between atoms: N1_6  and  C4_8
REMARK    5  A    between atoms: C4_8  and  C5_10
REMARK       I    between atoms: C11_16  and  N2_18
REMARK    6  A    between atoms: N2_18  and  C12_20
REMARK    7  A    between atoms: C12_20  and  C13_21
REMARK    8  A    between atoms: C16_24  and  C17_25
ROOT
HETATM    1  C3  UNL     1      -1.641   4.001  11.090  1.00  0.00     0.277 C
ENDROOT
BRANCH   1   2
HETATM    2  C2  UNL     1      -1.332   4.222   9.661  1.00  0.00     0.290 C
HETATM    3  O2  UNL     1      -1.742   5.265   9.098  1.00  0.00    -0.262 OA
BRANCH   2   4
HETATM    4  O1  UNL     1      -0.601   3.316   8.919  1.00  0.00    -0.324 OA
HETATM    5  C1  UNL     1       0.081   3.733   7.759  1.00  0.00     0.213 C
ENDBRANCH   2   4
ENDBRANCH   1   2
BRANCH   1   6
HETATM    6  N1  UNL     1      -2.154   5.227  11.702  1.00  0.00    -0.339 N
HETATM    7  C4  UNL     1      -1.916   5.568  13.041  1.00  0.00     0.222 C
HETATM    8  O3  UNL     1      -1.228   4.814  13.812  1.00  0.00    -0.273 OA
ATOM      9  H1  UNL     1      -2.709   5.862  11.128  1.00  0.00     0.163 HD
BRANCH   7  10
HETATM   10  C5  UNL     1      -2.467   6.829  13.592  1.00  0.00     0.078 C
HETATM   11  C6  UNL     1      -2.099   8.026  12.757  1.00  0.00     0.014 C
HETATM   12  C7  UNL     1      -0.792   8.657  13.171  1.00  0.00     0.001 C
HETATM   13  C8  UNL     1      -0.737   8.926  14.657  1.00  0.00     0.000 C
HETATM   14  C9  UNL     1      -1.999   8.454  15.352  1.00  0.00     0.001 C
HETATM   15  C10 UNL     1      -2.126   6.967  15.037  1.00  0.00     0.014 C
ENDBRANCH   7  10
ENDBRANCH   1   6
BRANCH   1  16
HETATM   16  C11 UNL     1      -2.638   2.927  11.308  1.00  0.00     0.250 C
HETATM   17  O4  UNL     1      -3.492   2.672  10.421  1.00  0.00    -0.271 OA
HETATM   18  N2  UNL     1      -2.634   2.187  12.509  1.00  0.00    -0.356 N
ATOM     19  H2  UNL     1      -1.949   2.382  13.238  1.00  0.00     0.162 HD
BRANCH  18  20
HETATM   20  C12 UNL     1      -3.624   1.144  12.685  1.00  0.00     0.154 C
BRANCH  20  21
HETATM   21  C13 UNL     1      -4.594   1.515  13.808  1.00  0.00     0.139 C
HETATM   22  C14 UNL     1      -4.104   2.793  14.418  1.00  0.00     0.034 C
HETATM   23  C15 UNL     1      -4.592   3.020  15.819  1.00  0.00     0.018 C
HETATM   24  C16 UNL     1      -4.586   1.793  16.673  1.00  0.00     0.117 C
HETATM   25  C18 UNL     1      -4.028   0.639  15.868  1.00  0.00     0.181 C
HETATM   26  O5  UNL     1      -4.766   0.492  14.699  1.00  0.00    -0.384 OA
BRANCH  24  27
HETATM   27  C17 UNL     1      -6.007   1.524  17.124  1.00  0.00     0.393 C
HETATM   28  F1  UNL     1      -6.232   0.180  17.296  1.00  0.00    -0.171 F
HETATM   29  F2  UNL     1      -6.887   2.071  16.211  1.00  0.00    -0.171 F
HETATM   30  F3  UNL     1      -6.190   2.199  18.318  1.00  0.00    -0.171 F
ENDBRANCH  24  27
ENDBRANCH  20  21
ENDBRANCH  18  20
ENDBRANCH   1  16
TORSDOF 8
ENDMDL