MODEL 4
REMARK VINA RESULT: -8.136143957      0.915      1.448
REMARK  8 active torsions:
REMARK  status: ('A' for Active; 'I' for Inactive)
REMARK    1  A    between atoms: C2_2  and  C3_3
REMARK    2  A    between atoms: C3_3  and  C5_5
REMARK    3  A    between atoms: C3_3  and  C6_8
REMARK    4  A    between atoms: C5_5  and  O1_6
REMARK    5  A    between atoms: C6_8  and  C7_9
REMARK    6  A    between atoms: C7_9  and  C8_10
REMARK       I    between atoms: N2_18  and  C15_19
REMARK    7  A    between atoms: C15_19  and  C16_21
REMARK    8  A    between atoms: C17_26  and  C18_27
ROOT
HETATM    1  C8  UNL     1      -1.542   4.330  12.609  1.00  0.00     0.043 C
HETATM    2  C9  UNL     1      -0.690   5.534  12.650  1.00  0.00     0.330 C
HETATM    3  N1  UNL     1      -1.602   6.630  13.090  1.00  0.00     0.100 N
HETATM    4  C10 UNL     1      -1.006   7.909  13.080  1.00  0.00     0.273 C
HETATM    5  C11 UNL     1      -1.756   8.691  14.124  1.00  0.00     0.032 C
HETATM    6  C12 UNL     1      -2.114   7.647  15.158  1.00  0.00     0.039 C
HETATM    7  C13 UNL     1      -1.794   6.345  14.483  1.00  0.00     0.241 C
HETATM    8  C14 UNL     1      -2.887   5.308  14.572  1.00  0.00     0.168 C
HETATM    9  N2  UNL     1      -2.572   4.242  13.642  1.00  0.00    -0.311 N
HETATM   10  C15 UNL     1      -3.273   3.022  13.800  1.00  0.00     0.293 C
HETATM   11  O2  UNL     1      -2.954   2.036  13.091  1.00  0.00    -0.264 OA
ENDROOT
BRANCH   1  12
HETATM   12  C7  UNL     1      -1.935   3.878  11.279  1.00  0.00     0.024 C
BRANCH  12  13
HETATM   13  C6  UNL     1      -2.675   4.662  10.318  1.00  0.00    -0.009 C
BRANCH  13  14
HETATM   14  C3  UNL     1      -4.101   4.951  10.251  1.00  0.00     0.012 C
HETATM   15  C4  UNL     1      -4.627   5.368   8.882  1.00  0.00     0.026 C
BRANCH  14  16
HETATM   16  C2  UNL     1      -4.700   5.701  11.363  1.00  0.00    -0.022 C
HETATM   17  C1  UNL     1      -4.617   6.998  11.452  1.00  0.00     0.008 C
ENDBRANCH  14  16
BRANCH  14  18
HETATM   18  C5  UNL     1      -4.767   3.516  10.426  1.00  0.00     0.181 C
BRANCH  18  19
HETATM   19  O1  UNL     1      -5.736   3.734  11.424  1.00  0.00    -0.400 OA
ATOM     20  H1  UNL     1      -6.340   4.339  11.009  1.00  0.00     0.209 HD
ENDBRANCH  18  19
ENDBRANCH  14  18
ENDBRANCH  13  14
ENDBRANCH  12  13
ENDBRANCH   1  12
BRANCH  10  21
HETATM   21  C16 UNL     1      -4.344   2.833  14.725  1.00  0.00     0.191 A
HETATM   22  N3  UNL     1      -5.612   3.329  14.559  1.00  0.00    -0.279 N
HETATM   23  N4  UNL     1      -6.376   2.986  15.570  1.00  0.00    -0.280 N
ATOM     24  H3  UNL     1      -5.919   3.886  13.761  1.00  0.00     0.189 HD
HETATM   25  C17 UNL     1      -5.659   2.264  16.432  1.00  0.00     0.207 A
ATOM     26  H4  UNL     1      -7.360   3.233  15.679  1.00  0.00     0.188 HD
HETATM   27  N5  UNL     1      -4.442   2.178  15.920  1.00  0.00    -0.318 N
ATOM     28  H5  UNL     1      -3.670   1.682  16.364  1.00  0.00     0.169 HD
BRANCH  25  29
HETATM   29  C18 UNL     1      -6.185   1.683  17.712  1.00  0.00     0.450 C
HETATM   30  F1  UNL     1      -7.470   1.160  17.498  1.00  0.00    -0.163 F
HETATM   31  F2  UNL     1      -6.304   2.615  18.691  1.00  0.00    -0.163 F
HETATM   32  F3  UNL     1      -5.396   0.637  18.159  1.00  0.00    -0.163 F
ENDBRANCH  25  29
ENDBRANCH  10  21
TORSDOF 8
ENDMDL