MODEL 4
REMARK VINA RESULT: -7.482187050      3.650      5.311
REMARK  8 active torsions:
REMARK  status: ('A' for Active; 'I' for Inactive)
REMARK    1  A    between atoms: N1_7  and  C7_8
REMARK    2  A    between atoms: C7_8  and  C8_9
REMARK       I    between atoms: N4_20  and  C15_21
REMARK    3  A    between atoms: C15_21  and  C16_23
REMARK    4  A    between atoms: C16_23  and  O2_24
REMARK    5  A    between atoms: O2_24  and  C17_25
REMARK    6  A    between atoms: C17_25  and  C18_26
REMARK    7  A    between atoms: C18_26  and  C19_29
REMARK    8  A    between atoms: C19_29  and  O3_30
ROOT
HETATM    1  C1  UNL     1      -5.129   2.814  11.809  1.00  0.00     0.032 C
HETATM    2  C2  UNL     1      -4.112   3.285  12.792  1.00  0.00     0.084 C
HETATM    3  C3  UNL     1      -4.441   4.675  13.331  1.00  0.00     0.034 C
HETATM    4  C4  UNL     1      -3.129   5.276  13.803  1.00  0.00    -0.034 C
HETATM    5  C5  UNL     1      -2.314   5.613  12.617  1.00  0.00     0.040 C
HETATM    6  C6  UNL     1      -1.968   7.039  12.387  1.00  0.00     0.273 C
HETATM    7  N1  UNL     1      -1.647   7.804  13.545  1.00  0.00     0.095 N
HETATM    8  C11 UNL     1      -2.242   7.340  14.763  1.00  0.00     0.273 C
HETATM    9  C12 UNL     1      -3.496   6.539  14.532  1.00  0.00     0.040 C
HETATM   10  C13 UNL     1      -2.489   4.256  14.717  1.00  0.00     0.029 C
HETATM   11  C14 UNL     1      -3.442   3.155  15.136  1.00  0.00     0.127 C
HETATM   12  N4  UNL     1      -3.943   2.444  13.956  1.00  0.00    -0.346 N
HETATM   13  C15 UNL     1      -4.228   1.049  13.969  1.00  0.00     0.243 C
HETATM   14  O1  UNL     1      -4.639   0.562  12.896  1.00  0.00    -0.271 OA
ENDROOT
BRANCH   7  15
HETATM   15  C7  UNL     1      -0.232   7.981  13.636  1.00  0.00     0.348 C
BRANCH  15  16
HETATM   16  C8  UNL     1       0.211   9.324  13.972  1.00  0.00     0.109 A
HETATM   17  N2  UNL     1       0.234   9.872  15.191  1.00  0.00    -0.353 N
HETATM   18  C9  UNL     1       0.698  11.123  15.149  1.00  0.00     0.106 A
ATOM     19  H2  UNL     1      -0.064   9.396  16.042  1.00  0.00     0.166 HD
HETATM   20  C10 UNL     1       0.986  11.379  13.815  1.00  0.00     0.106 A
HETATM   21  N3  UNL     1       0.673  10.249  13.124  1.00  0.00    -0.353 N
ATOM     22  H3  UNL     1       0.775  10.128  12.116  1.00  0.00     0.166 HD
ENDBRANCH  15  16
ENDBRANCH   7  15
BRANCH  13  23
HETATM   23  C16 UNL     1      -4.059   0.208  15.156  1.00  0.00     0.270 C
BRANCH  23  24
HETATM   24  O2  UNL     1      -5.090   0.041  15.990  1.00  0.00    -0.376 OA
BRANCH  24  25
HETATM   25  C17 UNL     1      -5.239   0.835  17.078  1.00  0.00     0.249 C
BRANCH  25  26
HETATM   26  C18 UNL     1      -6.587   1.474  17.235  1.00  0.00     0.285 C
HETATM   27  F1  UNL     1      -7.638   0.642  17.011  1.00  0.00    -0.202 F
HETATM   28  F2  UNL     1      -6.703   2.037  18.511  1.00  0.00    -0.202 F
BRANCH  26  29
HETATM   29  C19 UNL     1      -6.717   2.651  16.274  1.00  0.00     0.245 C
BRANCH  29  30
HETATM   30  O3  UNL     1      -6.889   3.813  16.992  1.00  0.00    -0.395 OA
ATOM     31  H3  UNL     1      -6.734   4.560  16.427  1.00  0.00     0.209 HD
ENDBRANCH  29  30
ENDBRANCH  26  29
ENDBRANCH  25  26
ENDBRANCH  24  25
ENDBRANCH  23  24
ENDBRANCH  13  23
TORSDOF 8
ENDMDL