MODEL 5
REMARK VINA RESULT: -7.512666580      1.853      2.457
REMARK  8 active torsions:
REMARK  status: ('A' for Active; 'I' for Inactive)
REMARK    1  A    between atoms: C2_2  and  C3_3
REMARK    2  A    between atoms: C3_3  and  N1_4
REMARK    3  A    between atoms: N2_7  and  C6_8
REMARK    4  A    between atoms: N4_14  and  C10_16
REMARK    5  A    between atoms: C10_16  and  C11_17
REMARK    6  A    between atoms: C10_16  and  C12_20
REMARK    7  A    between atoms: C11_17  and  O1_18
REMARK    8  A    between atoms: C15_23  and  C16_24
ROOT
HETATM    1  C6  UNL     1      -0.814   4.442  10.207  1.00  0.00     0.120 A
HETATM    2  C7  UNL     1      -1.835   5.147   9.622  1.00  0.00     0.066 A
HETATM    3  C8  UNL     1      -3.164   4.866   9.933  1.00  0.00     0.110 A
HETATM    4  N3  UNL     1      -3.468   3.887  10.824  1.00  0.00    -0.202 N
ATOM      5  H3  UNL     1      -4.439   3.677  11.059  1.00  0.00     0.183 HD
HETATM    6  C9  UNL     1      -2.464   3.207  11.386  1.00  0.00     0.679 A
HETATM    7  N4  UNL     1      -2.682   2.273  12.237  1.00  0.00    -0.219 N
ATOM      8  H4  UNL     1      -1.845   1.820  12.605  1.00  0.00     0.178 HD
HETATM    9  N5  UNL     1      -1.150   3.487  11.077  1.00  0.00    -0.177 N
ATOM     10  H5  UNL     1      -0.410   2.947  11.527  1.00  0.00     0.185 HD
ENDROOT
BRANCH   7  11
HETATM   11  C10 UNL     1      -3.906   1.773  12.745  1.00  0.00     0.127 C
BRANCH  11  12
HETATM   12  C11 UNL     1      -3.974   0.278  12.464  1.00  0.00     0.190 C
BRANCH  12  13
HETATM   13  O1  UNL     1      -4.642   0.111  11.262  1.00  0.00    -0.399 OA
ATOM     14  H1  UNL     1      -4.077   0.442  10.574  1.00  0.00     0.209 HD
ENDBRANCH  12  13
ENDBRANCH  11  12
BRANCH  11  15
HETATM   15  C12 UNL     1      -4.068   2.034  14.235  1.00  0.00     0.011 C
HETATM   16  C13 UNL     1      -4.310   0.791  15.025  1.00  0.00     0.007 C
HETATM   17  C14 UNL     1      -4.364   1.176  16.489  1.00  0.00     0.014 C
HETATM   18  C15 UNL     1      -5.440   2.165  16.799  1.00  0.00     0.093 C
HETATM   19  C17 UNL     1      -6.046   2.795  15.575  1.00  0.00     0.014 C
HETATM   20  C18 UNL     1      -5.028   3.129  14.519  1.00  0.00     0.007 C
BRANCH  18  21
HETATM   21  C16 UNL     1      -6.568   1.417  17.508  1.00  0.00     0.391 C
HETATM   22  F1  UNL     1      -6.658   1.977  18.790  1.00  0.00    -0.171 F
HETATM   23  F2  UNL     1      -7.759   1.546  16.861  1.00  0.00    -0.171 F
HETATM   24  F3  UNL     1      -6.204   0.090  17.720  1.00  0.00    -0.171 F
ENDBRANCH  18  21
ENDBRANCH  11  15
ENDBRANCH   7  11
BRANCH   1  25
HETATM   25  N2  UNL     1       0.540   4.706   9.910  1.00  0.00    -0.363 N
HETATM   26  C5  UNL     1       0.998   6.076   9.673  1.00  0.00     0.154 C
HETATM   27  C4  UNL     1       1.942   6.040   8.482  1.00  0.00     0.292 C
HETATM   28  N1  UNL     1       3.094   5.262   8.796  1.00  0.00     0.095 N
HETATM   29  C20 UNL     1       2.902   4.331   9.870  1.00  0.00     0.292 C
HETATM   30  C19 UNL     1       1.546   3.665   9.825  1.00  0.00     0.154 C
BRANCH  28  31
HETATM   31  C3  UNL     1       4.297   6.001   9.000  1.00  0.00     0.299 C
BRANCH  31  32
HETATM   32  C2  UNL     1       4.640   6.268  10.400  1.00  0.00    -0.007 C
HETATM   33  C1  UNL     1       4.497   7.473  10.921  1.00  0.00     0.008 C
ENDBRANCH  31  32
ENDBRANCH  28  31
ENDBRANCH   1  25
TORSDOF 8
ENDMDL