MODEL 4
REMARK VINA RESULT: -7.548929445      3.425      4.586
REMARK  8 active torsions:
REMARK  status: ('A' for Active; 'I' for Inactive)
REMARK    1  A    between atoms: C1_2  and  C2_4
REMARK    2  A    between atoms: C2_4  and  C3_5
REMARK    3  A    between atoms: C3_5  and  N1_6
REMARK    4  A    between atoms: N2_9  and  C6_10
REMARK    5  A    between atoms: C8_14  and  C9_15
REMARK    6  A    between atoms: C12_20  and  N5_21
REMARK    7  A    between atoms: N5_21  and  C13_23
REMARK    8  A    between atoms: C13_23  and  C14_24
ROOT
HETATM    1  C6  UNL     1      -3.018   6.257  13.926  1.00  0.00     0.090 A
HETATM    2  C7  UNL     1      -2.220   7.072  14.717  1.00  0.00     0.122 A
HETATM    3  N3  UNL     1      -1.752   8.222  14.240  1.00  0.00    -0.353 N
ATOM      4  H3  UNL     1      -1.169   8.791  14.852  1.00  0.00     0.166 HD
HETATM    5  C8  UNL     1      -2.000   8.678  13.008  1.00  0.00     0.086 A
HETATM    6  N4  UNL     1      -2.772   7.918  12.203  1.00  0.00    -0.330 N
ATOM      7  H4  UNL     1      -2.979   8.240  11.257  1.00  0.00     0.168 HD
HETATM    8  C12 UNL     1      -3.276   6.742  12.628  1.00  0.00     0.135 A
ENDROOT
BRANCH   1   9
HETATM    9  N2  UNL     1      -3.527   5.037  14.386  1.00  0.00    -0.375 N
HETATM   10  C5  UNL     1      -4.891   5.064  14.938  1.00  0.00     0.143 C
HETATM   11  C4  UNL     1      -5.715   4.003  14.313  1.00  0.00     0.142 C
HETATM   12  N1  UNL     1      -5.663   2.692  14.911  1.00  0.00    -0.382 N
HETATM   13  C17 UNL     1      -4.439   2.004  14.745  1.00  0.00     0.033 A
HETATM   14  C16 UNL     1      -3.255   2.814  15.299  1.00  0.00     0.051 C
HETATM   15  C18 UNL     1      -4.157   1.549  13.302  1.00  0.00     0.033 A
HETATM   16  C19 UNL     1      -4.261   0.588  14.429  1.00  0.00     0.033 A
HETATM   17  C15 UNL     1      -2.747   3.828  14.305  1.00  0.00     0.125 C
BRANCH  12  18
HETATM   18  C3  UNL     1      -6.295   2.734  16.155  1.00  0.00     0.069 C
BRANCH  18  19
HETATM   19  C2  UNL     1      -6.977   1.573  16.727  1.00  0.00     0.157 C
BRANCH  19  20
HETATM   20  C1  UNL     1      -6.036   0.758  17.582  1.00  0.00     0.177 C
HETATM   21  O1  UNL     1      -5.847  -0.469  17.379  1.00  0.00    -0.648 OA
HETATM   22  O2  UNL     1      -5.348   1.349  18.625  1.00  0.00    -0.648 OA
ENDBRANCH  19  20
ENDBRANCH  18  19
ENDBRANCH  12  18
ENDBRANCH   1   9
BRANCH   8  23
HETATM   23  N5  UNL     1      -4.019   5.991  11.900  1.00  0.00    -0.346 N
ATOM     24  H5  UNL     1      -4.073   5.019  12.202  1.00  0.00     0.166 HD
BRANCH  23  25
HETATM   25  C13 UNL     1      -4.770   6.299  10.750  1.00  0.00     0.178 C
BRANCH  25  26
HETATM   26  C14 UNL     1      -6.130   6.898  11.089  1.00  0.00     0.422 C
HETATM   27  F1  UNL     1      -7.058   6.544  10.128  1.00  0.00    -0.166 F
HETATM   28  F2  UNL     1      -6.600   6.359  12.285  1.00  0.00    -0.166 F
HETATM   29  F3  UNL     1      -5.985   8.270  11.182  1.00  0.00    -0.166 F
ENDBRANCH  25  26
ENDBRANCH  23  25
ENDBRANCH   8  23
BRANCH   5  30
HETATM   30  C9  UNL     1      -1.435   9.984  12.525  1.00  0.00     0.053 A
HETATM   31  C10 UNL     1      -0.475  10.735  13.395  1.00  0.00     0.013 A
HETATM   32  C11 UNL     1      -1.908  11.220  13.198  1.00  0.00     0.013 A
ENDBRANCH   5  30
TORSDOF 8
ENDMDL