MODEL 4
REMARK VINA RESULT: -7.790826218      1.428      4.956
REMARK  6 active torsions:
REMARK  status: ('A' for Active; 'I' for Inactive)
REMARK       I    between atoms: C1_2  and  N1_3
REMARK    1  A    between atoms: C1_2  and  C6_11
REMARK    2  A    between atoms: N1_3  and  C2_5
REMARK    3  A    between atoms: C8_13  and  O3_14
REMARK    4  A    between atoms: O3_14  and  C9_15
REMARK    5  A    between atoms: C9_15  and  C10_16
REMARK       I    between atoms: N2_20  and  C12_21
REMARK       I    between atoms: C12_21  and  N3_23
REMARK    6  A    between atoms: N3_23  and  C13_25
ROOT
HETATM    1  C6  UNL     1      -4.223   2.203  13.400  1.00  0.00     0.183 C
HETATM    2  C7  UNL     1      -4.871   1.646  14.636  1.00  0.00     0.068 C
HETATM    3  C8  UNL     1      -3.778   1.696  15.668  1.00  0.00     0.142 C
HETATM    4  C11 UNL     1      -3.211   3.083  15.354  1.00  0.00     0.160 C
HETATM    5  N2  UNL     1      -3.159   3.045  13.880  1.00  0.00    -0.318 N
HETATM    6  C12 UNL     1      -2.160   3.749  13.154  1.00  0.00     0.319 C
HETATM    7  O4  UNL     1      -1.322   4.455  13.762  1.00  0.00    -0.247 OA
HETATM    8  N3  UNL     1      -2.062   3.691  11.739  1.00  0.00    -0.338 N
ATOM      9  H3  UNL     1      -2.726   3.126  11.211  1.00  0.00     0.164 HD
ENDROOT
BRANCH   1  10
HETATM   10  C1  UNL     1      -5.192   2.946  12.561  1.00  0.00     0.242 C
HETATM   11  O1  UNL     1      -5.756   2.391  11.601  1.00  0.00    -0.271 OA
HETATM   12  N1  UNL     1      -5.467   4.288  12.863  1.00  0.00    -0.332 N
ATOM     13  H1  UNL     1      -4.986   4.710  13.657  1.00  0.00     0.165 HD
BRANCH  12  14
HETATM   14  C2  UNL     1      -6.396   5.111  12.110  1.00  0.00     0.241 C
HETATM   15  O2  UNL     1      -7.171   5.892  12.984  1.00  0.00    -0.365 OA
HETATM   16  C3  UNL     1      -7.696   6.889  12.176  1.00  0.00     0.172 C
HETATM   17  C4  UNL     1      -6.611   7.305  11.215  1.00  0.00     0.051 C
HETATM   18  C5  UNL     1      -5.610   6.167  11.377  1.00  0.00     0.133 C
HETATM   19 CL1  UNL     1      -5.148   5.501   9.796  1.00  0.00    -0.120 Cl
ENDBRANCH  12  14
ENDBRANCH   1  10
BRANCH   3  20
HETATM   20  O3  UNL     1      -4.241   1.617  16.961  1.00  0.00    -0.379 OA
BRANCH  20  21
HETATM   21  C9  UNL     1      -5.510   1.044  16.946  1.00  0.00     0.239 C
BRANCH  21  22
HETATM   22  C10 UNL     1      -6.491   1.855  17.777  1.00  0.00     0.376 C
HETATM   23  F1  UNL     1      -5.921   2.170  18.994  1.00  0.00    -0.212 F
HETATM   24  F2  UNL     1      -6.888   3.009  17.112  1.00  0.00    -0.212 F
ENDBRANCH  21  22
ENDBRANCH  20  21
ENDBRANCH   3  20
BRANCH   8  25
HETATM   25  C13 UNL     1      -1.031   4.424  11.038  1.00  0.00     0.086 C
HETATM   26  C14 UNL     1       0.183   3.537  10.940  1.00  0.00     0.025 C
HETATM   27  C15 UNL     1       0.894   4.051   9.729  1.00  0.00     0.002 C
HETATM   28  C16 UNL     1      -0.240   4.321   8.763  1.00  0.00     0.002 C
HETATM   29  C17 UNL     1      -1.464   4.597   9.600  1.00  0.00     0.025 C
ENDBRANCH   8  25
TORSDOF 6
ENDMDL