MODEL 3
REMARK VINA RESULT: -7.004233347      3.268      5.974
REMARK  8 active torsions:
REMARK  status: ('A' for Active; 'I' for Inactive)
REMARK    1  A    between atoms: C2_2  and  C3_3
REMARK    2  A    between atoms: C3_3  and  O1_4
REMARK    3  A    between atoms: O1_4  and  C4_5
REMARK       I    between atoms: C4_5  and  N1_7
REMARK    4  A    between atoms: N1_7  and  N2_8
REMARK    5  A    between atoms: N1_7  and  C12_21
REMARK    6  A    between atoms: N2_8  and  C5_10
REMARK    7  A    between atoms: C5_10  and  N3_12
REMARK    8  A    between atoms: N3_12  and  C6_14
ROOT
HETATM    1  N2  UNL     1      -3.783   3.603  12.340  1.00  0.00    -0.262 N
ATOM      2  H2  UNL     1      -4.003   4.462  11.835  1.00  0.00     0.190 HD
ENDROOT
BRANCH   1   3
HETATM    3  N1  UNL     1      -3.250   2.644  11.533  1.00  0.00    -0.135 N
HETATM    4  C4  UNL     1      -4.254   1.733  10.923  1.00  0.00     0.389 C
HETATM    5  O2  UNL     1      -5.477   1.891  11.177  1.00  0.00    -0.236 OA
BRANCH   4   6
HETATM    6  O1  UNL     1      -3.904   0.706  10.079  1.00  0.00    -0.302 OA
BRANCH   6   7
HETATM    7  C3  UNL     1      -4.128  -0.652  10.267  1.00  0.00     0.180 C
BRANCH   7   8
HETATM    8  C2  UNL     1      -3.776  -1.192  11.630  1.00  0.00     0.022 C
HETATM    9  C1  UNL     1      -2.831  -2.377  11.340  1.00  0.00     0.007 C
ENDBRANCH   7   8
ENDBRANCH   6   7
ENDBRANCH   4   6
BRANCH   3  10
HETATM   10  C12 UNL     1      -1.920   2.296  11.158  1.00  0.00     0.509 C
HETATM   11  F1  UNL     1      -1.463   1.057  11.344  1.00  0.00    -0.149 F
HETATM   12  F2  UNL     1      -1.800   2.678   9.808  1.00  0.00    -0.149 F
HETATM   13  F3  UNL     1      -1.049   3.179  11.839  1.00  0.00    -0.149 F
ENDBRANCH   3  10
ENDBRANCH   1   3
BRANCH   1  14
HETATM   14  C5  UNL     1      -4.097   3.684  13.695  1.00  0.00     0.191 C
HETATM   15  S1  UNL     1      -3.193   4.493  14.748  1.00  0.00    -0.039 SA
BRANCH  14  16
HETATM   16  N3  UNL     1      -5.253   2.978  14.177  1.00  0.00    -0.331 N
ATOM     17  H3  UNL     1      -5.868   2.601  13.456  1.00  0.00     0.168 HD
BRANCH  16  18
HETATM   18  C6  UNL     1      -5.652   2.735  15.484  1.00  0.00     0.051 A
HETATM   19  C7  UNL     1      -6.435   3.537  16.254  1.00  0.00     0.031 A
HETATM   20  C8  UNL     1      -6.831   3.222  17.554  1.00  0.00     0.002 A
HETATM   21  C9  UNL     1      -6.405   2.013  18.093  1.00  0.00     0.002 A
HETATM   22  C10 UNL     1      -5.617   1.157  17.359  1.00  0.00     0.021 A
HETATM   23  C11 UNL     1      -5.260   1.544  16.068  1.00  0.00     0.037 A
HETATM   24 BR1  UNL     1      -4.158   0.311  15.086  1.00  0.00    -0.049 Br
ENDBRANCH  16  18
ENDBRANCH  14  16
ENDBRANCH   1  14
TORSDOF 8
ENDMDL