MODEL 1
REMARK VINA RESULT: -6.854626628      0.000      0.000
REMARK  5 active torsions:
REMARK  status: ('A' for Active; 'I' for Inactive)
REMARK    1  A    between atoms: C2_2  and  C12_23
REMARK    2  A    between atoms: N1_3  and  N2_5
REMARK       I    between atoms: N2_5  and  C3_7
REMARK    3  A    between atoms: C3_7  and  C4_9
REMARK    4  A    between atoms: C8_13  and  N3_14
REMARK       I    between atoms: N3_14  and  C9_16
REMARK    5  A    between atoms: C9_16  and  C10_18
ROOT
HETATM    1  C4  UNL     1      -2.522   3.015  12.234  1.00  0.00     0.035 A
HETATM    2  C5  UNL     1      -2.533   1.847  11.513  1.00  0.00     0.017 A
HETATM    3  C6  UNL     1      -3.435   0.837  11.841  1.00  0.00     0.003 A
HETATM    4  C7  UNL     1      -4.298   1.043  12.889  1.00  0.00     0.029 A
HETATM    5  C8  UNL     1      -4.318   2.217  13.647  1.00  0.00     0.035 A
HETATM    6  C11 UNL     1      -3.428   3.173  13.300  1.00  0.00     0.046 A
ENDROOT
BRANCH   1   7
HETATM    7  C3  UNL     1      -1.586   4.087  11.906  1.00  0.00     0.270 C
HETATM    8  N2  UNL     1      -0.677   4.625  12.828  1.00  0.00    -0.266 N
ATOM      9  H2  UNL     1      -0.648   4.266  13.782  1.00  0.00     0.190 HD
HETATM   10  O1  UNL     1      -1.599   4.557  10.718  1.00  0.00    -0.266 OA
BRANCH   8  11
HETATM   11  N1  UNL     1       0.184   5.646  12.443  1.00  0.00    -0.305 N
HETATM   12  C2  UNL     1      -0.002   6.872  12.760  1.00  0.00     0.018 C
HETATM   13  C1  UNL     1       0.962   7.894  12.309  1.00  0.00     0.066 C
ATOM     14  H1  UNL     1       1.003   5.407  11.883  1.00  0.00     0.186 HD
BRANCH  12  15
HETATM   15  C12 UNL     1      -1.176   7.246  13.568  1.00  0.00     0.124 C
HETATM   16  C13 UNL     1      -2.209   7.871  12.654  1.00  0.00     0.033 C
HETATM   17 CL4  UNL     1      -0.780   8.436  14.828  1.00  0.00    -0.119 Cl
ENDBRANCH  12  15
ENDBRANCH   8  11
ENDBRANCH   1   7
BRANCH   5  18
HETATM   18  N3  UNL     1      -5.238   2.322  14.698  1.00  0.00    -0.323 N
HETATM   19  C9  UNL     1      -5.105   1.939  16.031  1.00  0.00     0.277 C
HETATM   20  O2  UNL     1      -4.076   1.419  16.480  1.00  0.00    -0.268 OA
ATOM     21  H3  UNL     1      -6.135   2.740  14.452  1.00  0.00     0.169 HD
BRANCH  19  22
HETATM   22  C10 UNL     1      -6.216   2.130  17.034  1.00  0.00     0.269 C
HETATM   23 CL1  UNL     1      -7.517   0.940  16.748  1.00  0.00    -0.073 Cl
HETATM   24 CL2  UNL     1      -5.619   1.866  18.682  1.00  0.00    -0.073 Cl
HETATM   25 CL3  UNL     1      -6.865   3.780  16.948  1.00  0.00    -0.073 Cl
ENDBRANCH  19  22
ENDBRANCH   5  18
TORSDOF 5
ENDMDL