MODEL 4
REMARK VINA RESULT: -7.158471330      4.124      5.567
REMARK  6 active torsions:
REMARK  status: ('A' for Active; 'I' for Inactive)
REMARK    1  A    between atoms: N2_4  and  N3_5
REMARK    2  A    between atoms: N2_4  and  C12_25
REMARK    3  A    between atoms: N3_5  and  C1_7
REMARK    4  A    between atoms: C4_14  and  N6_15
REMARK    5  A    between atoms: N6_15  and  C5_17
REMARK    6  A    between atoms: C5_17  and  C6_18
ROOT
HETATM    1  C1  UNL     1      -4.081   2.037  14.782  1.00  0.00     0.166 A
HETATM    2  N4  UNL     1      -4.206   0.898  14.076  1.00  0.00    -0.347 N
ATOM      3  H4  UNL     1      -4.402   0.023  14.563  1.00  0.00     0.167 HD
HETATM    4  C2  UNL     1      -4.074   0.898  12.737  1.00  0.00     0.107 A
HETATM    5  C3  UNL     1      -3.811   2.103  12.125  1.00  0.00     0.107 A
HETATM    6  N5  UNL     1      -3.687   3.244  12.840  1.00  0.00    -0.348 N
ATOM      7  H5  UNL     1      -3.491   4.119  12.354  1.00  0.00     0.167 HD
HETATM    8  C4  UNL     1      -3.816   3.248  14.179  1.00  0.00     0.147 A
ENDROOT
BRANCH   1   9
HETATM    9  N3  UNL     1      -4.210   2.020  16.067  1.00  0.00    -0.258 N
ATOM     10  H3  UNL     1      -3.474   2.448  16.629  1.00  0.00     0.190 HD
BRANCH   9  11
HETATM   11  N2  UNL     1      -5.284   1.456  16.727  1.00  0.00    -0.137 N
HETATM   12  N1  UNL     1      -5.284   0.216  16.981  1.00  0.00    -0.321 N
ATOM     13  H12 UNL     1      -4.483  -0.343  16.688  1.00  0.00     0.178 HD
ATOM     14  H11 UNL     1      -6.077  -0.200  17.469  1.00  0.00     0.178 HD
BRANCH  11  15
HETATM   15  C12 UNL     1      -6.419   2.248  17.142  1.00  0.00     0.519 C
HETATM   16  F1  UNL     1      -6.469   3.454  16.432  1.00  0.00    -0.148 F
HETATM   17  F2  UNL     1      -7.595   1.573  16.964  1.00  0.00    -0.148 F
HETATM   18  F3  UNL     1      -6.320   2.591  18.488  1.00  0.00    -0.148 F
ENDBRANCH  11  15
ENDBRANCH   9  11
ENDBRANCH   1   9
BRANCH   8  19
HETATM   19  N6  UNL     1      -3.701   4.328  14.876  1.00  0.00    -0.369 N
ATOM     20  H6  UNL     1      -3.374   4.275  15.841  1.00  0.00     0.161 HD
BRANCH  19  21
HETATM   21  C5  UNL     1      -4.035   5.622  14.295  1.00  0.00     0.160 C
BRANCH  21  22
HETATM   22  C6  UNL     1      -2.876   6.539  14.315  1.00  0.00    -0.039 A
HETATM   23  C7  UNL     1      -2.762   7.505  15.284  1.00  0.00     0.009 A
HETATM   24  C8  UNL     1      -1.676   8.374  15.311  1.00  0.00     0.002 A
HETATM   25  C9  UNL     1      -0.697   8.264  14.347  1.00  0.00     0.019 A
HETATM   26  C10 UNL     1      -0.791   7.312  13.374  1.00  0.00     0.011 A
HETATM   27 BR1  UNL     1       0.591   7.212  12.073  1.00  0.00    -0.051 Br
HETATM   28  C11 UNL     1      -1.885   6.453  13.364  1.00  0.00     0.027 A
ENDBRANCH  21  22
ENDBRANCH  19  21
ENDBRANCH   8  19
TORSDOF 6
ENDMDL