MODEL 4
REMARK VINA RESULT: -6.702239084      1.071      1.602
REMARK  6 active torsions:
REMARK  status: ('A' for Active; 'I' for Inactive)
REMARK    1  A    between atoms: C1_2  and  O2_3
REMARK    2  A    between atoms: C1_2  and  C9_17
REMARK    3  A    between atoms: O2_3  and  C2_4
REMARK    4  A    between atoms: C2_4  and  C3_5
REMARK    5  A    between atoms: C6_11  and  O4_12
REMARK    6  A    between atoms: C7_14  and  C8_15
ROOT
HETATM    1  C3  UNL     1      -4.225   1.834  12.869  1.00  0.00    -0.017 A
HETATM    2  C4  UNL     1      -4.216   0.470  12.698  1.00  0.00     0.084 A
HETATM    3  C5  UNL     1      -3.495  -0.169  11.683  1.00  0.00     0.247 A
HETATM    4  O3  UNL     1      -3.545  -1.428  11.600  1.00  0.00    -0.268 OA
HETATM    5  N1  UNL     1      -2.788   0.591  10.849  1.00  0.00    -0.304 N
ATOM      6  H1  UNL     1      -2.254   0.152  10.100  1.00  0.00     0.171 HD
HETATM    7  C6  UNL     1      -2.769   1.929  10.981  1.00  0.00     0.150 A
HETATM    8  C7  UNL     1      -3.463   2.585  11.964  1.00  0.00     0.011 A
ENDROOT
BRANCH   1   9
HETATM    9  C2  UNL     1      -4.939   2.512  13.973  1.00  0.00     0.218 C
BRANCH   9  10
HETATM   10  O2  UNL     1      -4.353   2.435  15.215  1.00  0.00    -0.313 OA
BRANCH  10  11
HETATM   11  C1  UNL     1      -4.751   1.672  16.297  1.00  0.00     0.314 C
HETATM   12  O1  UNL     1      -4.028   0.710  16.637  1.00  0.00    -0.260 OA
BRANCH  11  13
HETATM   13  C9  UNL     1      -6.014   2.022  17.008  1.00  0.00     0.276 C
HETATM   14 CL1  UNL     1      -6.536   3.631  16.509  1.00  0.00    -0.073 Cl
HETATM   15 CL2  UNL     1      -7.300   0.859  16.673  1.00  0.00    -0.073 Cl
HETATM   16 CL3  UNL     1      -5.694   1.964  18.761  1.00  0.00    -0.073 Cl
ENDBRANCH  11  13
ENDBRANCH  10  11
ENDBRANCH   9  10
ENDBRANCH   1   9
BRANCH   8  17
HETATM   17  C8  UNL     1      -3.452   4.056  12.092  1.00  0.00     0.128 C
HETATM   18 BR1  UNL     1      -1.944   4.670  13.160  1.00  0.00    -0.091 Br
ENDBRANCH   8  17
BRANCH   7  19
HETATM   19  O4  UNL     1      -2.025   2.709  10.103  1.00  0.00    -0.346 OA
ATOM     20  H4  UNL     1      -2.259   2.750   9.183  1.00  0.00     0.219 HD
ENDBRANCH   7  19
TORSDOF 6
ENDMDL