MODEL 5
REMARK VINA RESULT: -6.937988514      4.560      6.806
REMARK  6 active torsions:
REMARK  status: ('A' for Active; 'I' for Inactive)
REMARK    1  A    between atoms: C6_6  and  N1_7
REMARK    2  A    between atoms: N1_7  and  C7_9
REMARK    3  A    between atoms: N3_12  and  C8_13
REMARK    4  A    between atoms: C8_13  and  C9_14
REMARK    5  A    between atoms: C9_14  and  O1_16
REMARK    6  A    between atoms: C9_14  and  C11_18
ROOT
HETATM    1  C7  UNL     1      -3.714   3.091  12.806  1.00  0.00     0.139 A
HETATM    2  N2  UNL     1      -3.791   4.319  12.296  1.00  0.00    -0.282 N
ATOM      3  H2  UNL     1      -3.598   5.168  12.828  1.00  0.00     0.189 HD
HETATM    4  N3  UNL     1      -4.144   4.311  11.024  1.00  0.00    -0.297 N
HETATM    5  C12 UNL     1      -4.304   3.019  10.697  1.00  0.00     0.133 A
HETATM    6  C13 UNL     1      -4.044   2.224  11.786  1.00  0.00     0.073 A
HETATM    7 BR1  UNL     1      -4.111   0.312  11.912  1.00  0.00    -0.045 Br
ENDROOT
BRANCH   1   8
HETATM    8  N1  UNL     1      -3.400   2.711  14.008  1.00  0.00    -0.340 N
ATOM      9  H1  UNL     1      -2.438   2.493  14.268  1.00  0.00     0.167 HD
BRANCH   8  10
HETATM   10  C6  UNL     1      -4.478   2.612  14.954  1.00  0.00     0.034 A
HETATM   11  C5  UNL     1      -5.356   3.684  15.044  1.00  0.00     0.029 A
HETATM   12  C4  UNL     1      -6.409   3.617  15.951  1.00  0.00     0.003 A
HETATM   13  C3  UNL     1      -6.539   2.486  16.726  1.00  0.00     0.007 A
HETATM   14  C2  UNL     1      -5.673   1.420  16.642  1.00  0.00    -0.060 A
HETATM   15  C1  UNL     1      -5.893   0.240  17.518  1.00  0.00     0.048 C
HETATM   16  C14 UNL     1      -4.626   1.488  15.740  1.00  0.00     0.036 A
ENDBRANCH   8  10
ENDBRANCH   1   8
BRANCH   4  17
HETATM   17  C8  UNL     1      -4.311   5.461  10.207  1.00  0.00     0.195 C
BRANCH  17  18
HETATM   18  C9  UNL     1      -5.038   6.607  10.814  1.00  0.00     0.169 C
HETATM   19  C10 UNL     1      -4.058   7.674  11.309  1.00  0.00     0.057 C
BRANCH  18  20
HETATM   20  O1  UNL     1      -5.724   6.184  11.968  1.00  0.00    -0.379 OA
ATOM     21  H1  UNL     1      -6.136   6.927  12.391  1.00  0.00     0.211 HD
ENDBRANCH  18  20
BRANCH  18  22
HETATM   22  C11 UNL     1      -6.032   7.295   9.941  1.00  0.00     0.419 C
HETATM   23  F1  UNL     1      -6.916   6.425   9.337  1.00  0.00    -0.168 F
HETATM   24  F2  UNL     1      -5.483   8.210   9.063  1.00  0.00    -0.168 F
HETATM   25  F3  UNL     1      -6.829   8.070  10.802  1.00  0.00    -0.168 F
ENDBRANCH  18  22
ENDBRANCH  17  18
ENDBRANCH   4  17
TORSDOF 6
ENDMDL