MODEL 3
REMARK VINA RESULT: -7.104212504      2.360      4.687
REMARK  4 active torsions:
REMARK  status: ('A' for Active; 'I' for Inactive)
REMARK    1  A    between atoms: C6_9  and  N1_10
REMARK    2  A    between atoms: C6_9  and  C9_17
REMARK       I    between atoms: N1_10  and  C7_12
REMARK    3  A    between atoms: C7_12  and  C8_14
REMARK    4  A    between atoms: C13_21  and  O3_22
ROOT
HETATM    1  C1  UNL     1      -1.627   6.528  14.365  1.00  0.00     0.043 C
HETATM    2  C2  UNL     1      -2.394   5.234  14.173  1.00  0.00     0.159 A
HETATM    3  O1  UNL     1      -1.490   4.289  13.464  1.00  0.00    -0.363 OA
HETATM    4  C3  UNL     1      -2.665   4.714  12.935  1.00  0.00     0.151 A
HETATM    5  C4  UNL     1      -2.772   5.516  11.689  1.00  0.00     0.152 C
HETATM    6 CL1  UNL     1      -1.520   5.023  10.522  1.00  0.00    -0.098 Cl
HETATM    7 CL2  UNL     1      -2.967   7.260  11.836  1.00  0.00    -0.098 Cl
HETATM    8  C5  UNL     1      -4.121   4.848  11.458  1.00  0.00     0.085 C
HETATM    9  C6  UNL     1      -3.796   3.821  12.510  1.00  0.00     0.100 C
ENDROOT
BRANCH   9  10
HETATM   10  N1  UNL     1      -4.773   3.558  13.515  1.00  0.00    -0.342 N
HETATM   11  C7  UNL     1      -4.701   2.661  14.597  1.00  0.00     0.251 C
HETATM   12  O2  UNL     1      -3.645   1.964  14.762  1.00  0.00    -0.271 OA
ATOM     13  H1  UNL     1      -5.639   4.090  13.439  1.00  0.00     0.163 HD
BRANCH  11  14
HETATM   14  C8  UNL     1      -5.771   2.443  15.598  1.00  0.00     0.269 C
HETATM   15 CL3  UNL     1      -6.434   4.010  16.181  1.00  0.00    -0.098 Cl
HETATM   16 CL4  UNL     1      -5.041   1.658  17.040  1.00  0.00    -0.098 Cl
ENDBRANCH  11  14
ENDBRANCH   9  10
BRANCH   9  17
HETATM   17  C9  UNL     1      -3.432   2.545  11.824  1.00  0.00    -0.024 A
HETATM   18  C10 UNL     1      -2.149   2.076  11.721  1.00  0.00     0.010 A
HETATM   19  C11 UNL     1      -1.852   0.900  11.071  1.00  0.00     0.003 A
HETATM   20  C12 UNL     1      -2.891   0.189  10.517  1.00  0.00     0.036 A
HETATM   21  C13 UNL     1      -4.194   0.621  10.597  1.00  0.00     0.066 A
HETATM   22  C14 UNL     1      -4.472   1.824  11.264  1.00  0.00     0.046 A
BRANCH  21  23
HETATM   23  O3  UNL     1      -5.194  -0.146  10.014  1.00  0.00    -0.361 OA
ATOM     24  H3  UNL     1      -6.095  -0.007  10.282  1.00  0.00     0.217 HD
ENDBRANCH  21  23
ENDBRANCH   9  17
TORSDOF 4
ENDMDL