MODEL 1
REMARK VINA RESULT: -5.695634657      0.000      0.000
REMARK  6 active torsions:
REMARK  status: ('A' for Active; 'I' for Inactive)
REMARK    1  A    between atoms: N1_4  and  C4_5
REMARK    2  A    between atoms: C4_5  and  C5_6
REMARK    3  A    between atoms: C9_10  and  C10_11
REMARK    4  A    between atoms: C10_11  and  N2_12
REMARK    5  A    between atoms: N2_12  and  C11_14
REMARK    6  A    between atoms: C11_14  and  C12_18
ROOT
HETATM    1  C1  UNL     1      -4.575  -0.038  10.595  1.00  0.00     0.042 C
HETATM    2  C2  UNL     1      -3.498   0.563  11.489  1.00  0.00     0.210 C
HETATM    3  C3  UNL     1      -3.951   0.920  12.822  1.00  0.00     0.305 C
HETATM    4  N1  UNL     1      -4.067   2.303  13.224  1.00  0.00     0.099 N
HETATM    5  C9  UNL     1      -3.713   3.233  12.228  1.00  0.00     0.266 C
HETATM    6  C13 UNL     1      -3.937   2.692  10.797  1.00  0.00     0.270 C
HETATM    7  N4  UNL     1      -2.912   1.636  10.710  1.00  0.00    -0.068 N
ATOM      8  H41 UNL     1      -2.642   1.378   9.761  1.00  0.00     0.277 HD
ATOM      9  H42 UNL     1      -1.978   1.919  11.007  1.00  0.00     0.277 HD
ENDROOT
BRANCH   5  10
HETATM   10  C10 UNL     1      -2.189   3.460  12.270  1.00  0.00     0.158 C
BRANCH  10  11
HETATM   11  N2  UNL     1      -1.857   4.207  13.425  1.00  0.00    -0.373 N
ATOM     12  H2  UNL     1      -1.995   3.805  14.352  1.00  0.00     0.161 HD
BRANCH  11  13
HETATM   13  C11 UNL     1      -1.324   5.536  13.284  1.00  0.00     0.143 C
HETATM   14  N3  UNL     1      -0.195   5.705  12.744  1.00  0.00    -0.284 N
HETATM   15 CL1  UNL     1       0.620   7.172  12.476  1.00  0.00     0.012 Cl
ATOM     16  H3  UNL     1       0.285   4.861  12.432  1.00  0.00     0.182 HD
BRANCH  13  17
HETATM   17  C12 UNL     1      -2.126   6.688  13.766  1.00  0.00     0.247 C
HETATM   18 CL2  UNL     1      -1.206   7.728  14.851  1.00  0.00    -0.075 Cl
HETATM   19 CL3  UNL     1      -2.659   7.645  12.344  1.00  0.00    -0.075 Cl
HETATM   20 CL4  UNL     1      -3.585   6.073  14.589  1.00  0.00    -0.075 Cl
ENDBRANCH  13  17
ENDBRANCH  11  13
ENDBRANCH  10  11
ENDBRANCH   5  10
BRANCH   4  21
HETATM   21  C4  UNL     1      -5.274   2.458  13.940  1.00  0.00     0.281 C
BRANCH  21  22
HETATM   22  C5  UNL     1      -5.341   2.505  15.397  1.00  0.00    -0.025 C
HETATM   23  C6  UNL     1      -5.866   1.376  16.185  1.00  0.00     0.016 C
HETATM   24  C7  UNL     1      -3.877   2.740  15.881  1.00  0.00     0.016 C
HETATM   25  C8  UNL     1      -6.062   3.773  15.895  1.00  0.00     0.016 C
ENDBRANCH  21  22
ENDBRANCH   4  21
TORSDOF 6
ENDMDL