MODEL 5
REMARK VINA RESULT: -7.497814631      3.147      4.081
REMARK  4 active torsions:
REMARK  status: ('A' for Active; 'I' for Inactive)
REMARK    1  A    between atoms: C1_2  and  C2_3
REMARK       I    between atoms: C1_2  and  N1_5
REMARK    2  A    between atoms: C6_13  and  N3_14
REMARK    3  A    between atoms: N3_14  and  C7_16
REMARK    4  A    between atoms: C7_16  and  C8_17
ROOT
HETATM    1  O1  UNL     1      -3.805   0.486  16.423  1.00  0.00    -0.271 OA
HETATM    2  C1  UNL     1      -4.456   1.532  16.092  1.00  0.00     0.249 C
HETATM    3  N1  UNL     1      -4.280   2.250  14.937  1.00  0.00    -0.159 N
ATOM      4  H1  UNL     1      -4.342   3.255  15.095  1.00  0.00     0.187 HD
HETATM    5  C3  UNL     1      -4.062   1.978  13.743  1.00  0.00     0.687 A
HETATM    6  N2  UNL     1      -3.951   0.654  13.339  1.00  0.00    -0.181 N
ATOM      7  H2  UNL     1      -3.939  -0.095  14.032  1.00  0.00     0.185 HD
HETATM    8  C4  UNL     1      -3.861   0.365  12.025  1.00  0.00     0.122 A
HETATM    9 CL2  UNL     1      -3.751  -1.340  11.533  1.00  0.00    -0.064 Cl
HETATM   10  C5  UNL     1      -3.851   1.291  11.038  1.00  0.00     0.091 A
HETATM   11  C6  UNL     1      -3.957   2.638  11.503  1.00  0.00     0.123 A
HETATM   12  N5  UNL     1      -4.045   2.887  12.771  1.00  0.00    -0.176 N
ATOM     13  H5  UNL     1      -4.106   3.866  13.049  1.00  0.00     0.186 HD
ENDROOT
BRANCH  11  14
HETATM   14  N3  UNL     1      -3.958   3.528  10.520  1.00  0.00    -0.350 N
ATOM     15  H3  UNL     1      -4.571   3.391   9.717  1.00  0.00     0.166 HD
BRANCH  14  16
HETATM   16  C7  UNL     1      -3.142   4.634  10.570  1.00  0.00     0.121 C
BRANCH  16  17
HETATM   17  C8  UNL     1      -1.954   4.560   9.672  1.00  0.00     0.069 A
HETATM   18  N4  UNL     1      -2.016   4.841   8.332  1.00  0.00    -0.362 N
HETATM   19  C9  UNL     1      -1.024   4.483   7.481  1.00  0.00     0.112 A
ATOM     20  H4  UNL     1      -2.831   5.334   7.966  1.00  0.00     0.165 HD
HETATM   21  C10 UNL     1       0.134   3.812   7.937  1.00  0.00     0.051 A
HETATM   22 CL3  UNL     1       1.389   3.441   6.803  1.00  0.00    -0.083 Cl
HETATM   23  C11 UNL     1       0.197   3.552   9.270  1.00  0.00     0.051 A
HETATM   24  C12 UNL     1      -0.825   3.911  10.107  1.00  0.00     0.063 A
HETATM   25 CL4  UNL     1      -0.607   3.609  11.830  1.00  0.00    -0.082 Cl
ENDBRANCH  16  17
ENDBRANCH  14  16
ENDBRANCH  11  14
BRANCH   2  26
HETATM   26  C2  UNL     1      -5.476   1.926  17.136  1.00  0.00     0.218 C
HETATM   27 CL1  UNL     1      -6.814   0.735  17.107  1.00  0.00    -0.121 Cl
ENDBRANCH   2  26
TORSDOF 4
ENDMDL