MODEL 1
REMARK VINA RESULT: -7.250068806      0.000      0.000
REMARK  6 active torsions:
REMARK  status: ('A' for Active; 'I' for Inactive)
REMARK    1  A    between atoms: C5_6  and  C6_7
REMARK    2  A    between atoms: C6_7  and  N1_8
REMARK    3  A    between atoms: C6_7  and  C11_20
REMARK    4  A    between atoms: N1_8  and  C7_10
REMARK    5  A    between atoms: C7_10  and  N2_12
REMARK    6  A    between atoms: N2_12  and  C8_14
ROOT
HETATM    1  C6  UNL     1      -4.268   2.800  13.567  1.00  0.00     0.076 C
ENDROOT
BRANCH   1   2
HETATM    2  C5  UNL     1      -4.890   2.422  14.842  1.00  0.00    -0.006 A
HETATM    3  C4  UNL     1      -4.526   1.233  15.494  1.00  0.00     0.014 A
HETATM    4  C3  UNL     1      -5.094   0.858  16.687  1.00  0.00     0.004 A
HETATM    5  C2  UNL     1      -6.048   1.663  17.265  1.00  0.00     0.042 A
HETATM    6  C1  UNL     1      -6.436   2.828  16.670  1.00  0.00     0.117 A
HETATM    7  F1  UNL     1      -7.369   3.615  17.238  1.00  0.00    -0.206 F
HETATM    8  C12 UNL     1      -5.841   3.191  15.453  1.00  0.00     0.055 A
ENDBRANCH   1   2
BRANCH   1   9
HETATM    9  N1  UNL     1      -3.356   1.852  13.077  1.00  0.00    -0.332 N
ATOM     10  H1  UNL     1      -2.673   1.563  13.778  1.00  0.00     0.168 HD
BRANCH   9  11
HETATM   11  C7  UNL     1      -3.171   1.217  11.852  1.00  0.00     0.178 C
HETATM   12  S1  UNL     1      -4.363   0.650  10.922  1.00  0.00    -0.040 SA
BRANCH  11  13
HETATM   13  N2  UNL     1      -1.836   0.988  11.340  1.00  0.00    -0.313 N
ATOM     14  H2  UNL     1      -1.484   0.041  11.198  1.00  0.00     0.170 HD
BRANCH  13  15
HETATM   15  C8  UNL     1      -1.087   2.034  11.063  1.00  0.00     0.150 A
HETATM   16  N3  UNL     1      -0.354   2.733  11.933  1.00  0.00    -0.346 N
HETATM   17  C9  UNL     1       0.331   3.745  11.490  1.00  0.00     0.097 A
ATOM     18  H3  UNL     1      -0.333   2.479  12.920  1.00  0.00     0.167 HD
HETATM   19  C10 UNL     1       0.264   4.040  10.155  1.00  0.00     0.070 A
HETATM   20  S2  UNL     1      -0.799   2.830   9.583  1.00  0.00    -0.064 SA
ENDBRANCH  13  15
ENDBRANCH  11  13
ENDBRANCH   9  11
ENDBRANCH   1   9
BRANCH   1  21
HETATM   21  C11 UNL     1      -3.926   4.242  13.540  1.00  0.00     0.231 C
HETATM   22 CL1  UNL     1      -2.490   4.623  14.530  1.00  0.00    -0.077 Cl
HETATM   23 CL2  UNL     1      -3.384   4.593  11.830  1.00  0.00    -0.077 Cl
HETATM   24 CL3  UNL     1      -5.238   5.368  13.827  1.00  0.00    -0.077 Cl
ENDBRANCH   1  21
TORSDOF 6
ENDMDL