MODEL 5
REMARK VINA RESULT: -6.368176801      3.331      5.833
REMARK  3 active torsions:
REMARK  status: ('A' for Active; 'I' for Inactive)
REMARK    1  A    between atoms: C1_2  and  C2_4
REMARK    2  A    between atoms: C2_4  and  O3_5
REMARK    3  A    between atoms: O3_5  and  C3_6
ROOT
HETATM    1  C3  UNL     1      -4.005   1.304  11.903  1.00  0.00     0.140 C
HETATM    2  C4  UNL     1      -2.794   0.435  11.662  1.00  0.00     0.035 C
HETATM    3  C5  UNL     1      -2.086   1.020  10.452  1.00  0.00     0.028 C
HETATM    4  C6  UNL     1      -1.947   2.492  10.511  1.00  0.00     0.083 C
HETATM    5  C7  UNL     1      -0.481   2.833  10.268  1.00  0.00     0.025 C
HETATM    6  C8  UNL     1      -0.353   3.984   9.311  1.00  0.00     0.002 C
HETATM    7  C9  UNL     1      -0.729   5.309   9.918  1.00  0.00     0.005 C
HETATM    8  C10 UNL     1      -2.087   5.247  10.608  1.00  0.00     0.044 C
HETATM    9  C11 UNL     1      -2.048   4.457  11.866  1.00  0.00     0.058 C
HETATM   10  N1  UNL     1      -2.311   3.081  11.758  1.00  0.00    -0.386 N
HETATM   11  C12 UNL     1      -3.544   2.652  12.319  1.00  0.00     0.154 C
ENDROOT
BRANCH   1  12
HETATM   12  O3  UNL     1      -4.717   0.727  12.961  1.00  0.00    -0.374 OA
BRANCH  12  13
HETATM   13  C2  UNL     1      -4.639   1.489  14.111  1.00  0.00     0.281 C
BRANCH  13  14
HETATM   14  C1  UNL     1      -4.322   0.589  15.242  1.00  0.00     0.197 C
HETATM   15  O1  UNL     1      -4.809  -0.571  15.320  1.00  0.00    -0.646 OA
HETATM   16  O2  UNL     1      -3.473   0.966  16.280  1.00  0.00    -0.646 OA
ENDBRANCH  13  14
ENDBRANCH  12  13
ENDBRANCH   1  12
TORSDOF 3
ENDMDL