MODEL 1
REMARK VINA RESULT: -5.790560219      0.000      0.000
REMARK  5 active torsions:
REMARK  status: ('A' for Active; 'I' for Inactive)
REMARK    1  A    between atoms: O1_2  and  C2_3
REMARK    2  A    between atoms: N1_5  and  C4_6
REMARK    3  A    between atoms: C9_11  and  O2_12
REMARK    4  A    between atoms: C9_11  and  C10_14
REMARK    5  A    between atoms: C10_14  and  C11_15
ROOT
HETATM    1  C2  UNL     1      -4.139   1.671  13.392  1.00  0.00     0.172 C
HETATM    2  C3  UNL     1      -3.607   2.883  12.626  1.00  0.00     0.152 C
HETATM    3  N1  UNL     1      -4.291   4.092  12.993  1.00  0.00    -0.406 N
HETATM    4  C7  UNL     1      -4.166   4.438  14.369  1.00  0.00     0.120 C
HETATM    5  C8  UNL     1      -3.680   3.269  15.167  1.00  0.00     0.060 C
HETATM    6  C9  UNL     1      -4.433   1.974  14.808  1.00  0.00     0.087 C
ENDROOT
BRANCH   6   7
HETATM    7  O2  UNL     1      -3.766   0.999  15.602  1.00  0.00    -0.387 OA
ATOM      8  H2  UNL     1      -4.131   1.046  16.478  1.00  0.00     0.210 HD
ENDBRANCH   6   7
BRANCH   6   9
HETATM    9  C10 UNL     1      -5.823   2.161  15.239  1.00  0.00     0.044 C
BRANCH   9  10
HETATM   10  C11 UNL     1      -6.169   2.266  16.662  1.00  0.00    -0.020 C
HETATM   11  C12 UNL     1      -7.099   1.067  16.957  1.00  0.00     0.009 C
HETATM   12  C13 UNL     1      -6.954   3.494  17.046  1.00  0.00     0.009 C
ENDBRANCH   9  10
ENDBRANCH   6   9
BRANCH   1  13
HETATM   13  O1  UNL     1      -5.163   1.067  12.677  1.00  0.00    -0.386 OA
HETATM   14  C1  UNL     1      -4.816   0.896  11.362  1.00  0.00     0.202 C
ENDBRANCH   1  13
BRANCH   3  15
HETATM   15  C4  UNL     1      -4.150   5.156  12.071  1.00  0.00     0.071 C
HETATM   16  C5  UNL     1      -5.129   6.288  12.245  1.00  0.00     0.031 C
HETATM   17  C6  UNL     1      -4.214   4.565  10.659  1.00  0.00     0.031 C
ENDBRANCH   3  15
TORSDOF 5
ENDMDL