MODEL 2
REMARK VINA RESULT: -6.236614795      2.293      5.685
REMARK  6 active torsions:
REMARK  status: ('A' for Active; 'I' for Inactive)
REMARK    1  A    between atoms: N1_2  and  C3_4
REMARK    2  A    between atoms: C3_4  and  C4_5
REMARK    3  A    between atoms: C4_5  and  O1_6
REMARK    4  A    between atoms: C4_5  and  C5_8
REMARK    5  A    between atoms: C9_12  and  C10_13
REMARK    6  A    between atoms: C10_13  and  O2_16
ROOT
HETATM    1  C5  UNL     1      -4.549   2.216  13.407  1.00  0.00     0.016 C
HETATM    2  C6  UNL     1      -3.667   3.327  13.849  1.00  0.00     0.007 C
HETATM    3  C7  UNL     1      -3.699   3.373  15.385  1.00  0.00     0.001 C
HETATM    4  C8  UNL     1      -3.949   1.987  15.926  1.00  0.00     0.007 C
HETATM    5  C9  UNL     1      -5.312   1.470  15.589  1.00  0.00     0.019 C
HETATM    6  C13 UNL     1      -5.767   2.189  14.342  1.00  0.00     0.014 C
ENDROOT
BRANCH   1   7
HETATM    7  C4  UNL     1      -4.979   2.216  11.985  1.00  0.00     0.150 C
BRANCH   7   8
HETATM    8  C3  UNL     1      -4.625   0.955  11.283  1.00  0.00     0.303 C
BRANCH   8   9
HETATM    9  N1  UNL     1      -3.517   0.220  11.800  1.00  0.00     0.082 N
HETATM   10  C1  UNL     1      -3.861  -1.207  11.609  1.00  0.00     0.309 C
HETATM   11  C2  UNL     1      -2.305   0.419  11.007  1.00  0.00     0.309 C
ENDBRANCH   8   9
ENDBRANCH   7   8
BRANCH   7  12
HETATM   12  O1  UNL     1      -4.519   3.355  11.348  1.00  0.00    -0.393 OA
ATOM     13  H1  UNL     1      -5.067   4.118  11.488  1.00  0.00     0.210 HD
ENDBRANCH   7  12
ENDBRANCH   1   7
BRANCH   5  14
HETATM   14  C10 UNL     1      -6.293   1.601  16.722  1.00  0.00     0.054 C
HETATM   15  C11 UNL     1      -5.662   1.404  18.076  1.00  0.00     0.045 C
HETATM   16  C12 UNL     1      -7.048   2.891  16.696  1.00  0.00     0.045 C
BRANCH  14  17
HETATM   17  O2  UNL     1      -7.252   0.571  16.587  1.00  0.00    -0.390 OA
ATOM     18  H2  UNL     1      -7.945   0.734  17.216  1.00  0.00     0.210 HD
ENDBRANCH  14  17
ENDBRANCH   5  14
TORSDOF 6
ENDMDL