MODEL 3
REMARK VINA RESULT: -6.203349666      2.094      5.508
REMARK  5 active torsions:
REMARK  status: ('A' for Active; 'I' for Inactive)
REMARK    1  A    between atoms: O1_1  and  C1_3
REMARK    2  A    between atoms: C1_3  and  C2_4
REMARK    3  A    between atoms: C1_3  and  C9_11
REMARK    4  A    between atoms: C2_4  and  C3_5
REMARK    5  A    between atoms: C9_11  and  N1_12
ROOT
HETATM    1  C1  UNL     1      -3.636   3.761  14.356  1.00  0.00     0.146 C
ENDROOT
BRANCH   1   2
HETATM    2  O1  UNL     1      -2.283   3.983  14.051  1.00  0.00    -0.394 OA
ATOM      3  H1  UNL     1      -1.977   4.816  14.391  1.00  0.00     0.210 HD
ENDBRANCH   1   2
BRANCH   1   4
HETATM    4  C2  UNL     1      -3.801   2.804  15.506  1.00  0.00     0.038 C
BRANCH   4   5
HETATM    5  C3  UNL     1      -5.103   2.088  15.580  1.00  0.00    -0.012 C
HETATM    6  C4  UNL     1      -5.066   0.670  16.019  1.00  0.00     0.005 C
HETATM    7  C5  UNL     1      -5.756   0.539  17.387  1.00  0.00     0.000 C
HETATM    8  C6  UNL     1      -7.236   0.827  17.097  1.00  0.00     0.000 C
HETATM    9  C7  UNL     1      -7.394   2.237  16.613  1.00  0.00     0.000 C
HETATM   10  C8  UNL     1      -6.087   2.935  16.348  1.00  0.00     0.005 C
ENDBRANCH   4   5
ENDBRANCH   1   4
BRANCH   1  11
HETATM   11  C9  UNL     1      -4.207   3.081  13.128  1.00  0.00     0.304 C
BRANCH  11  12
HETATM   12  N1  UNL     1      -3.239   2.256  12.445  1.00  0.00     0.095 N
HETATM   13  C10 UNL     1      -3.908   0.959  12.228  1.00  0.00     0.298 C
HETATM   14  C11 UNL     1      -2.984   0.112  11.345  1.00  0.00     0.198 C
HETATM   15  O2  UNL     1      -1.720   0.676  11.310  1.00  0.00    -0.388 OA
HETATM   16  C12 UNL     1      -1.741   1.874  10.637  1.00  0.00     0.198 C
HETATM   17  C13 UNL     1      -2.896   2.731  11.133  1.00  0.00     0.298 C
ENDBRANCH  11  12
ENDBRANCH   1  11
TORSDOF 5
ENDMDL