MODEL 4
REMARK VINA RESULT: -6.665923362      1.804      5.859
REMARK  4 active torsions:
REMARK  status: ('A' for Active; 'I' for Inactive)
REMARK    1  A    between atoms: C2_2  and  O1_4
REMARK    2  A    between atoms: O1_4  and  C4_5
REMARK    3  A    between atoms: C4_5  and  C6_8
REMARK       I    between atoms: C6_8  and  N2_10
REMARK    4  A    between atoms: N2_10  and  C7_12
ROOT
HETATM    1  C4  UNL     1      -3.597   2.686  11.762  1.00  0.00     0.319 C
HETATM    2  C5  UNL     1      -4.352   3.681  10.980  1.00  0.00     0.101 C
HETATM    3  N1  UNL     1      -4.964   4.454  10.355  1.00  0.00    -0.194 NA
ENDROOT
BRANCH   1   4
HETATM    4  O1  UNL     1      -4.204   1.460  11.536  1.00  0.00    -0.358 OA
BRANCH   4   5
HETATM    5  C2  UNL     1      -3.334   0.384  11.682  1.00  0.00     0.115 C
HETATM    6  C1  UNL     1      -2.081   0.552  10.859  1.00  0.00     0.039 C
HETATM    7  C3  UNL     1      -4.074  -0.826  11.100  1.00  0.00     0.039 C
ENDBRANCH   4   5
ENDBRANCH   1   4
BRANCH   1   8
HETATM    8  C6  UNL     1      -3.602   3.018  13.200  1.00  0.00     0.261 C
HETATM    9  O2  UNL     1      -2.631   3.634  13.689  1.00  0.00    -0.269 OA
HETATM   10  N2  UNL     1      -4.676   2.658  14.032  1.00  0.00    -0.353 N
ATOM     11  H2  UNL     1      -5.463   2.157  13.619  1.00  0.00     0.163 HD
BRANCH  10  12
HETATM   12  C7  UNL     1      -4.720   2.968  15.456  1.00  0.00     0.084 C
HETATM   13  C8  UNL     1      -6.097   3.409  15.784  1.00  0.00     0.025 C
HETATM   14  C9  UNL     1      -7.018   2.354  16.281  1.00  0.00     0.002 C
HETATM   15  C10 UNL     1      -6.335   1.692  17.486  1.00  0.00     0.000 C
HETATM   16  C11 UNL     1      -5.178   0.917  16.848  1.00  0.00     0.002 C
HETATM   17  C12 UNL     1      -4.180   1.831  16.249  1.00  0.00     0.025 C
ENDBRANCH  10  12
ENDBRANCH   1   8
TORSDOF 4
ENDMDL