MODEL 2
REMARK VINA RESULT: -6.251921904      0.967      3.815
REMARK  4 active torsions:
REMARK  status: ('A' for Active; 'I' for Inactive)
REMARK    1  A    between atoms: O1_1  and  C1_3
REMARK    2  A    between atoms: C1_3  and  C2_4
REMARK    3  A    between atoms: C2_4  and  C3_5
REMARK    4  A    between atoms: C3_5  and  C4_6
ROOT
HETATM    1  C4  UNL     1      -3.995   0.736  13.315  1.00  0.00     0.023 C
HETATM    2  C5  UNL     1      -4.117  -0.148  12.109  1.00  0.00     0.037 C
HETATM    3  C6  UNL     1      -4.871   0.694  11.102  1.00  0.00     0.273 C
HETATM    4  N1  UNL     1      -4.753   2.072  11.536  1.00  0.00     0.100 N
HETATM    5  C7  UNL     1      -3.432   2.523  11.207  1.00  0.00     0.317 C
HETATM    6  C8  UNL     1      -3.148   3.857  11.826  1.00  0.00     0.088 C
HETATM    7  N2  UNL     1      -3.794   4.151  13.022  1.00  0.00    -0.385 N
HETATM    8  C9  UNL     1      -4.291   5.480  13.095  1.00  0.00     0.122 C
HETATM    9  C10 UNL     1      -4.460   5.831  14.572  1.00  0.00     0.020 C
HETATM   10  C11 UNL     1      -5.548   4.970  15.118  1.00  0.00     0.004 C
HETATM   11  C12 UNL     1      -5.751   3.680  14.422  1.00  0.00     0.027 C
HETATM   12  C13 UNL     1      -4.486   3.162  13.727  1.00  0.00     0.117 C
HETATM   13  C14 UNL     1      -4.877   1.938  12.971  1.00  0.00     0.250 C
ENDROOT
BRANCH   1  14
HETATM   14  C3  UNL     1      -4.598   0.012  14.498  1.00  0.00     0.009 C
BRANCH  14  15
HETATM   15  C2  UNL     1      -4.188   0.659  15.795  1.00  0.00     0.026 C
BRANCH  15  16
HETATM   16  C1  UNL     1      -5.322   0.819  16.754  1.00  0.00     0.164 C
BRANCH  16  17
HETATM   17  O1  UNL     1      -5.843  -0.440  17.030  1.00  0.00    -0.401 OA
ATOM     18  H1  UNL     1      -5.629  -1.018  16.308  1.00  0.00     0.209 HD
ENDBRANCH  16  17
ENDBRANCH  15  16
ENDBRANCH  14  15
ENDBRANCH   1  14
TORSDOF 4
ENDMDL