MODEL 5
REMARK VINA RESULT: -6.502460434      0.996      2.041
REMARK  5 active torsions:
REMARK  status: ('A' for Active; 'I' for Inactive)
REMARK    1  A    between atoms: N1_4  and  C4_5
REMARK    2  A    between atoms: C4_5  and  C5_6
REMARK    3  A    between atoms: C6_7  and  C7_8
REMARK    4  A    between atoms: C7_8  and  O1_9
REMARK    5  A    between atoms: C7_8  and  C8_11
ROOT
HETATM    1  C5  UNL     1      -4.087   2.987  14.694  1.00  0.00     0.002 C
HETATM    2  C6  UNL     1      -4.308   2.095  15.633  1.00  0.00     0.003 C
ENDROOT
BRANCH   1   3
HETATM    3  C4  UNL     1      -5.000   3.405  13.626  1.00  0.00     0.299 C
BRANCH   3   4
HETATM    4  N1  UNL     1      -4.470   3.014  12.331  1.00  0.00     0.096 N
HETATM    5  C3  UNL     1      -4.857   1.652  12.044  1.00  0.00     0.304 C
HETATM    6  C2  UNL     1      -4.091   0.950  11.006  1.00  0.00     0.145 C
HETATM    7  C1  UNL     1      -3.906  -0.512  11.437  1.00  0.00     0.041 C
HETATM    8  O2  UNL     1      -2.889   1.424  10.631  1.00  0.00    -0.383 OA
HETATM    9  C13 UNL     1      -2.554   2.692  11.008  1.00  0.00     0.198 C
HETATM   10  C12 UNL     1      -2.996   2.987  12.428  1.00  0.00     0.299 C
ENDBRANCH   3   4
ENDBRANCH   1   3
BRANCH   2  11
HETATM   11  C7  UNL     1      -5.578   1.366  15.720  1.00  0.00     0.148 C
BRANCH  11  12
HETATM   12  O1  UNL     1      -5.286   0.012  15.901  1.00  0.00    -0.391 OA
ATOM     13  H1  UNL     1      -4.695  -0.064  16.641  1.00  0.00     0.210 HD
ENDBRANCH  11  12
BRANCH  11  14
HETATM   14  C8  UNL     1      -6.424   1.814  16.897  1.00  0.00    -0.022 C
HETATM   15  C9  UNL     1      -5.640   1.665  18.185  1.00  0.00     0.017 C
HETATM   16  C10 UNL     1      -7.688   0.997  16.927  1.00  0.00     0.017 C
HETATM   17  C11 UNL     1      -6.789   3.262  16.737  1.00  0.00     0.017 C
ENDBRANCH  11  14
ENDBRANCH   2  11
TORSDOF 5
ENDMDL