MODEL 5
REMARK VINA RESULT: -6.184102579      1.894      5.833
REMARK  5 active torsions:
REMARK  status: ('A' for Active; 'I' for Inactive)
REMARK    1  A    between atoms: C1_2  and  C2_3
REMARK    2  A    between atoms: C1_2  and  C9_12
REMARK    3  A    between atoms: C2_3  and  N1_4
REMARK    4  A    between atoms: N1_4  and  C3_6
REMARK    5  A    between atoms: C9_12  and  N2_13
ROOT
HETATM    1  C2  UNL     1      -3.977   3.307  13.541  1.00  0.00     0.194 C
ENDROOT
BRANCH   1   2
HETATM    2  C1  UNL     1      -3.724   3.264  15.002  1.00  0.00     0.172 C
HETATM    3  O1  UNL     1      -2.628   3.230  15.528  1.00  0.00    -0.294 OA
BRANCH   2   4
HETATM    4  C9  UNL     1      -4.943   3.265  15.879  1.00  0.00     0.352 C
BRANCH   4   5
HETATM    5  N2  UNL     1      -5.747   2.114  15.701  1.00  0.00     0.095 N
HETATM    6  C10 UNL     1      -5.203   0.857  16.043  1.00  0.00     0.273 C
HETATM    7  C11 UNL     1      -5.832   0.465  17.336  1.00  0.00     0.032 C
HETATM    8  C12 UNL     1      -7.264   0.988  17.144  1.00  0.00     0.032 C
HETATM    9  C13 UNL     1      -7.016   2.230  16.318  1.00  0.00     0.273 C
ENDBRANCH   4   5
ENDBRANCH   2   4
ENDBRANCH   1   2
BRANCH   1  10
HETATM   10  N1  UNL     1      -3.380   2.216  12.808  1.00  0.00    -0.410 N
ATOM     11  H1  UNL     1      -2.902   1.443  13.270  1.00  0.00     0.154 HD
BRANCH  10  12
HETATM   12  C3  UNL     1      -3.509   2.301  11.387  1.00  0.00     0.077 C
HETATM   13  C4  UNL     1      -4.727   1.575  10.853  1.00  0.00     0.024 C
HETATM   14  C5  UNL     1      -4.634   0.091  10.960  1.00  0.00     0.002 C
HETATM   15  C6  UNL     1      -3.343  -0.467  10.471  1.00  0.00     0.000 C
HETATM   16  C7  UNL     1      -2.155   0.280  11.058  1.00  0.00     0.002 C
HETATM   17  C8  UNL     1      -2.289   1.733  10.722  1.00  0.00     0.024 C
ENDBRANCH  10  12
ENDBRANCH   1  10
TORSDOF 5
ENDMDL