MODEL 2
REMARK VINA RESULT: -6.691178655      0.584      1.320
REMARK  4 active torsions:
REMARK  status: ('A' for Active; 'I' for Inactive)
REMARK    1  A    between atoms: N1_5  and  C5_6
REMARK    2  A    between atoms: C5_6  and  C7_8
REMARK    3  A    between atoms: C7_8  and  N2_9
REMARK    4  A    between atoms: N2_9  and  C8_11
ROOT
HETATM    1  C5  UNL     1      -4.053   4.128  13.582  1.00  0.00     0.236 C
HETATM    2  C6  UNL     1      -2.803   4.627  14.278  1.00  0.00     0.044 C
ENDROOT
BRANCH   1   3
HETATM    3  N1  UNL     1      -4.764   3.215  14.374  1.00  0.00     0.094 N
HETATM    4  C4  UNL     1      -4.006   2.827  15.530  1.00  0.00     0.273 C
HETATM    5  C3  UNL     1      -4.602   1.682  16.289  1.00  0.00     0.034 C
HETATM    6  C2  UNL     1      -6.055   1.906  16.547  1.00  0.00    -0.015 C
HETATM    7  C1  UNL     1      -6.442   1.701  17.994  1.00  0.00     0.010 C
HETATM    8  C13 UNL     1      -6.402   3.329  16.192  1.00  0.00     0.034 C
HETATM    9  C12 UNL     1      -6.109   3.493  14.711  1.00  0.00     0.273 C
ENDBRANCH   1   3
BRANCH   1  10
HETATM   10  C7  UNL     1      -3.672   3.708  12.195  1.00  0.00     0.151 C
BRANCH  10  11
HETATM   11  N2  UNL     1      -2.774   2.578  12.182  1.00  0.00    -0.395 N
ATOM     12  H2  UNL     1      -1.809   2.645  12.506  1.00  0.00     0.155 HD
BRANCH  11  13
HETATM   13  C8  UNL     1      -3.325   1.372  11.687  1.00  0.00     0.216 C
HETATM   14  C9  UNL     1      -2.268   0.525  11.036  1.00  0.00     0.055 C
HETATM   15  C10 UNL     1      -3.080  -0.775  10.887  1.00  0.00     0.030 C
HETATM   16  C11 UNL     1      -4.030  -0.675  12.047  1.00  0.00     0.170 C
HETATM   17  O1  UNL     1      -3.787   0.521  12.690  1.00  0.00    -0.367 OA
ENDBRANCH  11  13
ENDBRANCH  10  11
ENDBRANCH   1  10
TORSDOF 4
ENDMDL