MODEL 2
REMARK VINA RESULT: -6.539354465      4.692      6.521
REMARK  5 active torsions:
REMARK  status: ('A' for Active; 'I' for Inactive)
REMARK    1  A    between atoms: C2_2  and  C4_4
REMARK    2  A    between atoms: C5_5  and  C6_6
REMARK    3  A    between atoms: C7_7  and  C8_8
REMARK    4  A    between atoms: C12_14  and  C13_15
REMARK    5  A    between atoms: C13_15  and  O3_16
ROOT
HETATM    1  C8  UNL     1      -4.146   3.104  14.621  1.00  0.00     0.066 C
HETATM    2  C9  UNL     1      -3.588   2.414  15.878  1.00  0.00     0.048 C
HETATM    3  C10 UNL     1      -4.595   1.346  16.111  1.00  0.00     0.156 C
HETATM    4  O1  UNL     1      -5.172   1.140  14.833  1.00  0.00    -0.353 OA
HETATM    5  C11 UNL     1      -5.543   2.492  14.612  1.00  0.00     0.268 C
HETATM    6  O2  UNL     1      -6.251   2.825  15.751  1.00  0.00    -0.351 OA
HETATM    7  C12 UNL     1      -5.808   1.995  16.779  1.00  0.00     0.177 C
ENDROOT
BRANCH   1   8
HETATM    8  C7  UNL     1      -4.165   4.558  14.770  1.00  0.00    -0.017 C
HETATM    9  C6  UNL     1      -3.161   5.263  14.280  1.00  0.00    -0.004 C
BRANCH   9  10
HETATM   10  C5  UNL     1      -3.092   6.713  14.378  1.00  0.00    -0.004 C
HETATM   11  C4  UNL     1      -1.945   7.349  14.542  1.00  0.00    -0.023 C
BRANCH  11  12
HETATM   12  C2  UNL     1      -1.911   8.823  14.638  1.00  0.00    -0.000 C
HETATM   13  C1  UNL     1      -0.707   9.273  15.430  1.00  0.00     0.013 C
HETATM   14  C3  UNL     1      -1.911   9.454  13.248  1.00  0.00     0.013 C
ENDBRANCH  11  12
ENDBRANCH   9  10
ENDBRANCH   1   8
BRANCH   7  15
HETATM   15  C13 UNL     1      -6.803   0.883  17.057  1.00  0.00     0.198 C
BRANCH  15  16
HETATM   16  O3  UNL     1      -6.104  -0.311  17.217  1.00  0.00    -0.398 OA
ATOM     17  H3  UNL     1      -6.543  -0.991  16.718  1.00  0.00     0.209 HD
ENDBRANCH  15  16
ENDBRANCH   7  15
TORSDOF 5
ENDMDL