MODEL 3
REMARK VINA RESULT: -7.523989892      1.261      1.530
REMARK  5 active torsions:
REMARK  status: ('A' for Active; 'I' for Inactive)
REMARK    1  A    between atoms: O1_2  and  C2_3
REMARK    2  A    between atoms: C3_4  and  O2_5
REMARK    3  A    between atoms: C4_7  and  N1_8
REMARK    4  A    between atoms: C5_10  and  C6_11
REMARK    5  A    between atoms: C6_11  and  C7_12
REMARK       I    between atoms: N2_22  and  C13_24
REMARK       I    between atoms: C13_24  and  N3_26
ROOT
HETATM    1  C2  UNL     1      -3.361   2.276  11.573  1.00  0.00     0.137 A
HETATM    2  C3  UNL     1      -4.388   2.109  12.481  1.00  0.00     0.129 A
HETATM    3  C4  UNL     1      -4.611   3.089  13.422  1.00  0.00     0.068 A
HETATM    4  C8  UNL     1      -3.789   4.214  13.422  1.00  0.00     0.042 A
HETATM    5  C9  UNL     1      -2.763   4.379  12.515  1.00  0.00    -0.019 A
HETATM    6  C10 UNL     1      -2.548   3.398  11.580  1.00  0.00     0.111 A
HETATM    7  O3  UNL     1      -1.580   3.365  10.586  1.00  0.00    -0.342 OA
HETATM    8  C11 UNL     1      -0.951   4.481   9.948  1.00  0.00     0.228 C
HETATM    9  C12 UNL     1      -0.218   5.250  10.983  1.00  0.00     0.015 C
HETATM   10  N2  UNL     1       0.852   5.835  10.564  1.00  0.00    -0.314 N
ATOM     11  H2  UNL     1       1.387   6.375  11.245  1.00  0.00     0.170 HD
HETATM   12  C13 UNL     1       1.341   5.791   9.255  1.00  0.00     0.321 C
HETATM   13  O4  UNL     1       0.617   6.189   8.312  1.00  0.00    -0.247 OA
HETATM   14  N3  UNL     1       2.639   5.310   8.947  1.00  0.00    -0.343 N
HETATM   15  C14 UNL     1       3.136   5.269   7.585  1.00  0.00     0.154 C
HETATM   16  C15 UNL     1       3.544   4.829   9.984  1.00  0.00     0.154 C
HETATM   17  C16 UNL     1      -0.527   5.443  12.404  1.00  0.00     0.059 C
HETATM   18  C17 UNL     1      -2.004   5.633  12.674  1.00  0.00     0.047 C
ENDROOT
BRANCH   3  19
HETATM   19  N1  UNL     1      -5.655   2.932  14.353  1.00  0.00    -0.367 N
HETATM   20  C5  UNL     1      -5.468   2.953  15.638  1.00  0.00     0.070 C
ATOM     21  H1  UNL     1      -6.603   2.796  14.002  1.00  0.00     0.165 HD
BRANCH  20  22
HETATM   22  C6  UNL     1      -6.617   2.780  16.564  1.00  0.00     0.162 C
BRANCH  22  23
HETATM   23  C7  UNL     1      -6.277   1.676  17.530  1.00  0.00     0.392 C
HETATM   24  F1  UNL     1      -7.178   0.645  17.351  1.00  0.00    -0.171 F
HETATM   25  F2  UNL     1      -5.009   1.178  17.277  1.00  0.00    -0.171 F
HETATM   26  F3  UNL     1      -6.287   2.165  18.823  1.00  0.00    -0.171 F
ENDBRANCH  22  23
ENDBRANCH  20  22
ENDBRANCH   3  19
BRANCH   2  27
HETATM   27  O2  UNL     1      -5.143   0.947  12.386  1.00  0.00    -0.356 OA
ATOM     28  H2  UNL     1      -5.709   0.853  11.629  1.00  0.00     0.218 HD
ENDBRANCH   2  27
BRANCH   1  29
HETATM   29  O1  UNL     1      -3.102   1.313  10.608  1.00  0.00    -0.351 OA
HETATM   30  C1  UNL     1      -2.212   0.262  10.996  1.00  0.00     0.210 C
ENDBRANCH   1  29
TORSDOF 5
ENDMDL