MODEL 5
REMARK VINA RESULT: -7.893435850      4.873      6.011
REMARK  4 active torsions:
REMARK  status: ('A' for Active; 'I' for Inactive)
REMARK       I    between atoms: C1_2  and  N1_3
REMARK    1  A    between atoms: C1_2  and  C7_18
REMARK    2  A    between atoms: N1_3  and  N2_5
REMARK    3  A    between atoms: C2_7  and  C3_8
REMARK    4  A    between atoms: C5_10  and  C6_11
ROOT
HETATM    1  O1  UNL     1      -0.740   2.227  11.769  1.00  0.00    -0.271 OA
HETATM    2  C1  UNL     1      -1.101   3.410  11.685  1.00  0.00     0.245 C
HETATM    3  N1  UNL     1      -2.116   3.917  12.563  1.00  0.00    -0.270 N
ATOM      4  H1  UNL     1      -2.357   4.907  12.518  1.00  0.00     0.190 HD
ENDROOT
BRANCH   3   5
HETATM    5  N2  UNL     1      -2.770   3.115  13.457  1.00  0.00    -0.307 N
HETATM    6  C2  UNL     1      -3.880   2.512  13.284  1.00  0.00     0.138 C
ATOM      7  H2  UNL     1      -2.320   2.984  14.363  1.00  0.00     0.186 HD
BRANCH   6   8
HETATM    8  C3  UNL     1      -4.474   1.684  14.322  1.00  0.00     0.074 A
HETATM    9  C4  UNL     1      -5.250   2.058  15.420  1.00  0.00     0.077 A
HETATM   10  C5  UNL     1      -5.438   0.951  16.172  1.00  0.00     0.184 A
HETATM   11  O2  UNL     1      -4.818  -0.068  15.591  1.00  0.00    -0.233 OA
HETATM   12  N3  UNL     1      -4.240   0.378  14.472  1.00  0.00    -0.259 N
ATOM     13  H3  UNL     1      -3.699  -0.196  13.826  1.00  0.00     0.195 HD
BRANCH  10  14
HETATM   14  C6  UNL     1      -6.199   0.782  17.449  1.00  0.00     0.441 C
HETATM   15  F1  UNL     1      -5.660   1.577  18.396  1.00  0.00    -0.164 F
HETATM   16  F2  UNL     1      -7.547   0.978  17.219  1.00  0.00    -0.164 F
HETATM   17  F3  UNL     1      -6.023  -0.596  17.794  1.00  0.00    -0.164 F
ENDBRANCH  10  14
ENDBRANCH   6   8
ENDBRANCH   3   5
BRANCH   2  18
HETATM   18  C7  UNL     1      -0.443   4.247  10.679  1.00  0.00     0.049 C
HETATM   19  C8  UNL     1       0.352   3.357   9.744  1.00  0.00     0.024 C
HETATM   20  C9  UNL     1       1.783   3.739   9.908  1.00  0.00    -0.009 C
HETATM   21  C10 UNL     1       2.408   4.467   8.771  1.00  0.00     0.052 C
HETATM   22  C15 UNL     1       1.921   4.404  11.264  1.00  0.00     0.010 C
HETATM   23  C11 UNL     1       1.677   5.665   8.285  1.00  0.00     0.218 C
HETATM   24 CL1  UNL     1       1.907   5.674   6.491  1.00  0.00    -0.095 Cl
HETATM   25  O3  UNL     1       0.340   5.683   8.481  1.00  0.00    -0.365 OA
HETATM   26  C12 UNL     1      -0.230   6.275   9.522  1.00  0.00     0.125 C
HETATM   27  C13 UNL     1       0.638   6.430  10.718  1.00  0.00     0.038 C
HETATM   28  C16 UNL     1      -1.274   5.289  10.059  1.00  0.00     0.051 C
HETATM   29  C14 UNL     1       0.591   5.128  11.402  1.00  0.00     0.006 C
ENDBRANCH   2  18
TORSDOF 4
ENDMDL