MODEL 2
REMARK VINA RESULT: -8.172615398      1.196      1.744
REMARK  4 active torsions:
REMARK  status: ('A' for Active; 'I' for Inactive)
REMARK    1  A    between atoms: C5_9  and  N3_10
REMARK       I    between atoms: N3_10  and  C6_12
REMARK    2  A    between atoms: C6_12  and  C7_14
REMARK    3  A    between atoms: C7_14  and  N4_15
REMARK    4  A    between atoms: C8_18  and  C9_19
ROOT
HETATM    1  N4  UNL     1      -3.617   3.525  12.029  1.00  0.00    -0.287 N
HETATM    2  N5  UNL     1      -3.550   2.325  11.463  1.00  0.00    -0.293 N
ATOM      3  H5  UNL     1      -3.282   2.171  10.491  1.00  0.00     0.187 HD
HETATM    4  C8  UNL     1      -3.869   1.352  12.304  1.00  0.00     0.140 A
HETATM    5  C10 UNL     1      -4.173   1.962  13.530  1.00  0.00    -0.001 A
HETATM    6  C11 UNL     1      -3.995   3.320  13.284  1.00  0.00     0.037 A
HETATM    7  C12 UNL     1      -4.249   4.367  14.325  1.00  0.00     0.059 C
HETATM    8  C13 UNL     1      -5.665   4.273  14.810  1.00  0.00     0.006 C
HETATM    9  C14 UNL     1      -5.990   3.056  15.599  1.00  0.00     0.001 C
HETATM   10  C15 UNL     1      -4.848   2.139  15.883  1.00  0.00     0.005 C
HETATM   11  C16 UNL     1      -4.577   1.198  14.733  1.00  0.00     0.043 C
ENDROOT
BRANCH   1  12
HETATM   12  C7  UNL     1      -3.309   4.807  11.433  1.00  0.00     0.252 C
BRANCH  12  13
HETATM   13  C6  UNL     1      -4.312   5.294  10.488  1.00  0.00     0.242 C
HETATM   14  N3  UNL     1      -4.399   6.624  10.011  1.00  0.00    -0.321 N
ATOM     15  H3  UNL     1      -3.725   7.319  10.335  1.00  0.00     0.169 HD
HETATM   16  O1  UNL     1      -5.179   4.467  10.052  1.00  0.00    -0.271 OA
BRANCH  14  17
HETATM   17  C5  UNL     1      -5.421   7.011   9.079  1.00  0.00     0.099 A
HETATM   18  C2  UNL     1      -5.307   6.986   7.713  1.00  0.00     0.052 A
HETATM   19  C1  UNL     1      -4.155   6.520   6.893  1.00  0.00     0.072 C
HETATM   20  N1  UNL     1      -6.486   7.468   7.223  1.00  0.00    -0.300 N
HETATM   21  N2  UNL     1      -7.293   7.780   8.231  1.00  0.00    -0.283 N
ATOM     22  H1  UNL     1      -6.712   7.574   6.234  1.00  0.00     0.187 HD
HETATM   23  C3  UNL     1      -8.647   8.337   8.140  1.00  0.00     0.179 C
HETATM   24  C4  UNL     1      -6.664   7.507   9.381  1.00  0.00     0.148 A
HETATM   25 CL1  UNL     1      -7.366   7.761  10.979  1.00  0.00    -0.060 Cl
ENDBRANCH  14  17
ENDBRANCH  12  13
ENDBRANCH   1  12
BRANCH   4  26
HETATM   26  C9  UNL     1      -3.927  -0.123  12.102  1.00  0.00     0.434 C
HETATM   27  F1  UNL     1      -2.744  -0.575  11.546  1.00  0.00    -0.165 F
HETATM   28  F2  UNL     1      -4.161  -0.811  13.275  1.00  0.00    -0.165 F
HETATM   29  F3  UNL     1      -4.925  -0.457  11.216  1.00  0.00    -0.165 F
ENDBRANCH   4  26
TORSDOF 4
ENDMDL