MODEL 1
REMARK VINA RESULT: -7.848867723      0.000      0.000
REMARK  6 active torsions:
REMARK  status: ('A' for Active; 'I' for Inactive)
REMARK    1  A    between atoms: C2_2  and  C4_4
REMARK    2  A    between atoms: C4_4  and  C5_5
REMARK    3  A    between atoms: C6_8  and  O1_9
REMARK    4  A    between atoms: O1_9  and  C7_10
REMARK    5  A    between atoms: C7_10  and  C8_11
REMARK    6  A    between atoms: C16_27  and  O3_28
ROOT
HETATM    1  C5  UNL     1      -3.437   3.744  13.609  1.00  0.00     0.133 C
HETATM    2  N1  UNL     1      -3.502   2.612  12.740  1.00  0.00    -0.345 N
ATOM      3  H1  UNL     1      -3.414   1.697  13.181  1.00  0.00     0.163 HD
HETATM    4  C6  UNL     1      -3.659   2.620  11.464  1.00  0.00     0.188 C
HETATM    5  C9  UNL     1      -3.796   3.883  10.737  1.00  0.00     0.213 C
HETATM    6  O2  UNL     1      -4.012   3.877   9.530  1.00  0.00    -0.287 OA
HETATM    7  C10 UNL     1      -3.673   5.198  11.454  1.00  0.00     0.138 C
HETATM    8  S1  UNL     1      -4.712   4.924  12.933  1.00  0.00    -0.119 SA
HETATM    9  C11 UNL     1      -2.314   5.243  12.011  1.00  0.00     0.082 C
HETATM   10  C12 UNL     1      -1.716   6.575  12.276  1.00  0.00     0.032 C
HETATM   11  C13 UNL     1      -2.019   7.631  11.269  1.00  0.00     0.025 C
HETATM   12  C14 UNL     1      -0.204   6.416  12.386  1.00  0.00     0.025 C
HETATM   13  C15 UNL     1      -2.188   6.889  13.638  1.00  0.00     0.171 C
HETATM   14  F4  UNL     1      -2.301   8.155  14.189  1.00  0.00    -0.191 F
HETATM   15  N2  UNL     1      -2.474   5.796  14.223  1.00  0.00    -0.335 N
ATOM     16  H2  UNL     1      -2.823   5.741  15.180  1.00  0.00     0.164 HD
HETATM   17  C16 UNL     1      -2.253   4.647  13.390  1.00  0.00     0.175 C
ENDROOT
BRANCH   4  18
HETATM   18  O1  UNL     1      -3.697   1.395  10.788  1.00  0.00    -0.324 OA
BRANCH  18  19
HETATM   19  C7  UNL     1      -4.665   0.430  11.129  1.00  0.00     0.294 C
BRANCH  19  20
HETATM   20  C8  UNL     1      -4.033  -0.730  11.871  1.00  0.00     0.408 C
HETATM   21  F1  UNL     1      -4.133  -0.509  13.229  1.00  0.00    -0.169 F
HETATM   22  F2  UNL     1      -2.688  -0.740  11.555  1.00  0.00    -0.169 F
HETATM   23  F3  UNL     1      -4.640  -1.916  11.586  1.00  0.00    -0.169 F
ENDBRANCH  19  20
ENDBRANCH  18  19
ENDBRANCH   4  18
BRANCH   1  24
HETATM   24  C4  UNL     1      -3.705   3.490  15.041  1.00  0.00     0.051 C
BRANCH  24  25
HETATM   25  C2  UNL     1      -4.732   2.416  15.232  1.00  0.00    -0.019 C
HETATM   26  C1  UNL     1      -4.128   1.397  16.230  1.00  0.00     0.009 C
HETATM   27  C3  UNL     1      -6.018   2.858  15.836  1.00  0.00     0.009 C
ENDBRANCH  24  25
ENDBRANCH   1  24
BRANCH  17  28
HETATM   28  O3  UNL     1      -1.026   4.055  13.606  1.00  0.00    -0.367 OA
ATOM     29  H3  UNL     1      -0.458   4.523  14.206  1.00  0.00     0.212 HD
ENDBRANCH  17  28
TORSDOF 6
ENDMDL