MODEL 5
REMARK VINA RESULT: -6.544393899      3.019      5.848
REMARK  5 active torsions:
REMARK  status: ('A' for Active; 'I' for Inactive)
REMARK    1  A    between atoms: O1_1  and  C1_3
REMARK    2  A    between atoms: C1_3  and  C2_4
REMARK    3  A    between atoms: C2_4  and  C3_5
REMARK    4  A    between atoms: C3_5  and  N1_6
REMARK    5  A    between atoms: C8_18  and  C9_19
ROOT
HETATM    1  N1  UNL     1      -4.612   2.411  13.423  1.00  0.00    -0.262 N
HETATM    2  N2  UNL     1      -3.975   1.316  12.988  1.00  0.00    -0.277 N
ATOM      3  H2  UNL     1      -4.247   0.360  13.218  1.00  0.00     0.189 HD
HETATM    4  C4  UNL     1      -2.948   1.637  12.221  1.00  0.00     0.150 A
HETATM    5  N3  UNL     1      -2.017   0.919  11.559  1.00  0.00    -0.347 N
ATOM      6  H3  UNL     1      -2.037  -0.099  11.607  1.00  0.00     0.167 HD
HETATM    7  C5  UNL     1      -1.058   1.535  10.832  1.00  0.00     0.127 A
HETATM    8  C6  UNL     1      -1.016   2.911  10.757  1.00  0.00     0.095 A
HETATM    9 BR1  UNL     1       0.349   3.725   9.726  1.00  0.00    -0.030 Br
HETATM   10  N4  UNL     1      -1.954   3.614  11.425  1.00  0.00    -0.344 N
ATOM     11  H4  UNL     1      -1.932   4.633  11.377  1.00  0.00     0.167 HD
HETATM   12  C7  UNL     1      -2.924   3.013  12.159  1.00  0.00     0.113 A
HETATM   13  C8  UNL     1      -3.997   3.490  12.933  1.00  0.00     0.170 A
ENDROOT
BRANCH   1  14
HETATM   14  C3  UNL     1      -5.714   2.383  14.299  1.00  0.00     0.101 C
BRANCH  14  15
HETATM   15  C2  UNL     1      -5.425   2.285  15.777  1.00  0.00     0.015 C
HETATM   16  C10 UNL     1      -5.963   3.515  16.484  1.00  0.00     0.017 C
HETATM   17  C11 UNL     1      -6.984   3.166  17.534  1.00  0.00     0.001 C
HETATM   18  C12 UNL     1      -6.346   2.293  18.564  1.00  0.00     0.000 C
HETATM   19  C13 UNL     1      -5.919   1.038  17.918  1.00  0.00     0.001 C
HETATM   20  C14 UNL     1      -5.746   1.022  16.446  1.00  0.00     0.017 C
BRANCH  15  21
HETATM   21  C1  UNL     1      -3.892   2.473  15.848  1.00  0.00     0.179 C
BRANCH  21  22
HETATM   22  O1  UNL     1      -3.235   1.333  16.219  1.00  0.00    -0.400 OA
ATOM     23  H1  UNL     1      -3.115   1.268  17.159  1.00  0.00     0.209 HD
ENDBRANCH  21  22
ENDBRANCH  15  21
ENDBRANCH  14  15
ENDBRANCH   1  14
BRANCH  13  24
HETATM   24  C9  UNL     1      -4.221   4.919  13.013  1.00  0.00     0.436 C
HETATM   25  F1  UNL     1      -4.019   5.710  11.973  1.00  0.00    -0.164 F
HETATM   26  F2  UNL     1      -3.453   5.397  14.089  1.00  0.00    -0.164 F
HETATM   27  F3  UNL     1      -5.545   5.119  13.446  1.00  0.00    -0.164 F
ENDBRANCH  13  24
TORSDOF 5
ENDMDL