MODEL 2
REMARK VINA RESULT: -7.270111136      1.083      1.513
REMARK  7 active torsions:
REMARK  status: ('A' for Active; 'I' for Inactive)
REMARK    1  A    between atoms: N1_6  and  C5_7
REMARK    2  A    between atoms: C5_7  and  O1_8
REMARK    3  A    between atoms: C5_7  and  C6_10
REMARK    4  A    between atoms: C7_11  and  N2_12
REMARK       I    between atoms: N2_12  and  C8_14
REMARK    5  A    between atoms: C8_14  and  O3_16
REMARK    6  A    between atoms: O3_16  and  C9_17
REMARK    7  A    between atoms: C9_17  and  C10_18
ROOT
HETATM    1  C6  UNL     1      -3.008   1.741  12.200  1.00  0.00     0.071 A
HETATM    2  C7  UNL     1      -3.918   0.807  12.728  1.00  0.00     0.060 A
HETATM    3  C11 UNL     1      -3.923  -0.425  12.190  1.00  0.00     0.082 A
HETATM    4  S2  UNL     1      -2.742  -0.381  10.997  1.00  0.00    -0.086 SA
HETATM    5  C12 UNL     1      -2.239   1.263  11.198  1.00  0.00     0.091 A
HETATM    6 CL1  UNL     1      -1.016   2.018  10.153  1.00  0.00    -0.075 Cl
ENDROOT
BRANCH   2   7
HETATM    7  N2  UNL     1      -4.734   1.087  13.906  1.00  0.00    -0.301 N
HETATM    8  C8  UNL     1      -4.477   0.528  15.170  1.00  0.00     0.365 C
HETATM    9  O2  UNL     1      -3.554  -0.266  15.464  1.00  0.00    -0.238 OA
ATOM     10  H2  UNL     1      -5.529   1.719  13.806  1.00  0.00     0.171 HD
BRANCH   8  11
HETATM   11  O3  UNL     1      -5.330   0.891  16.194  1.00  0.00    -0.295 OA
BRANCH  11  12
HETATM   12  C9  UNL     1      -5.165   1.768  17.224  1.00  0.00     0.297 C
BRANCH  12  13
HETATM   13  C10 UNL     1      -6.382   2.217  17.959  1.00  0.00     0.409 C
HETATM   14  F1  UNL     1      -7.406   1.277  17.734  1.00  0.00    -0.169 F
HETATM   15  F2  UNL     1      -6.263   2.389  19.299  1.00  0.00    -0.169 F
HETATM   16  F3  UNL     1      -6.820   3.444  17.406  1.00  0.00    -0.169 F
ENDBRANCH  12  13
ENDBRANCH  11  12
ENDBRANCH   8  11
ENDBRANCH   2   7
BRANCH   1  17
HETATM   17  C5  UNL     1      -3.080   3.152  12.603  1.00  0.00     0.154 C
BRANCH  17  18
HETATM   18  N1  UNL     1      -3.233   4.369  11.967  1.00  0.00    -0.347 N
HETATM   19  C2  UNL     1      -2.090   5.406  12.024  1.00  0.00     0.144 C
HETATM   20  C1  UNL     1      -1.505   5.583  10.670  1.00  0.00     0.044 C
HETATM   21  S1  UNL     1      -3.077   6.853  12.469  1.00  0.00    -0.142 SA
HETATM   22  C3  UNL     1      -4.650   6.304  11.724  1.00  0.00     0.096 C
HETATM   23  C4  UNL     1      -4.163   4.999  11.095  1.00  0.00     0.136 C
ENDBRANCH  17  18
BRANCH  17  24
HETATM   24  O1  UNL     1      -2.954   3.352  13.923  1.00  0.00    -0.345 OA
ATOM     25  H1  UNL     1      -3.768   3.698  14.269  1.00  0.00     0.219 HD
ENDBRANCH  17  24
ENDBRANCH   1  17
TORSDOF 7
ENDMDL