MODEL 1
REMARK VINA RESULT: -7.138661119      0.000      0.000
REMARK  5 active torsions:
REMARK  status: ('A' for Active; 'I' for Inactive)
REMARK    1  A    between atoms: O1_1  and  C1_3
REMARK    2  A    between atoms: C1_3  and  C2_4
REMARK    3  A    between atoms: C1_3  and  C6_12
REMARK    4  A    between atoms: C1_3  and  C18_28
REMARK    5  A    between atoms: C8_16  and  N4_17
ROOT
HETATM    1  C6  UNL     1      -3.770   5.735  12.449  1.00  0.00     0.007 A
HETATM    2  C7  UNL     1      -3.009   5.932  11.324  1.00  0.00     0.100 A
HETATM    3  N3  UNL     1      -3.470   6.583  10.243  1.00  0.00    -0.350 N
ATOM      4  H3  UNL     1      -2.864   6.704   9.432  1.00  0.00     0.166 HD
HETATM    5  C8  UNL     1      -4.708   7.073  10.217  1.00  0.00     0.125 A
HETATM    6  C16 UNL     1      -5.532   6.919  11.299  1.00  0.00     0.078 A
HETATM    7 CL1  UNL     1      -7.174   7.546  11.317  1.00  0.00    -0.080 Cl
HETATM    8  C17 UNL     1      -5.039   6.237  12.420  1.00  0.00     0.040 A
ENDROOT
BRANCH   1   9
HETATM    9  C1  UNL     1      -3.227   5.016  13.592  1.00  0.00     0.214 C
BRANCH   9  10
HETATM   10  O1  UNL     1      -3.940   5.486  14.724  1.00  0.00    -0.372 OA
ATOM     11  H1  UNL     1      -3.358   5.359  15.465  1.00  0.00     0.211 HD
ENDBRANCH   9  10
BRANCH   9  12
HETATM   12  C2  UNL     1      -3.533   3.549  13.500  1.00  0.00     0.021 A
HETATM   13  C3  UNL     1      -4.295   2.913  14.459  1.00  0.00     0.101 A
HETATM   14  N1  UNL     1      -4.571   1.605  14.379  1.00  0.00    -0.361 N
HETATM   15  C4  UNL     1      -4.117   0.857  13.360  1.00  0.00     0.180 A
ATOM     16  H1  UNL     1      -5.137   1.169  15.106  1.00  0.00     0.166 HD
HETATM   17  N2  UNL     1      -3.376   1.471  12.428  1.00  0.00    -0.361 N
HETATM   18  C5  UNL     1      -3.073   2.775  12.461  1.00  0.00     0.101 A
ATOM     19  H2  UNL     1      -3.024   0.915  11.650  1.00  0.00     0.166 HD
ENDBRANCH   9  12
BRANCH   9  20
HETATM   20  C18 UNL     1      -1.789   5.257  13.909  1.00  0.00     0.427 C
HETATM   21  F1  UNL     1      -0.892   4.836  12.981  1.00  0.00    -0.167 F
HETATM   22  F2  UNL     1      -1.622   6.598  14.243  1.00  0.00    -0.167 F
HETATM   23  F3  UNL     1      -1.517   4.554  15.090  1.00  0.00    -0.167 F
ENDBRANCH   9  20
ENDBRANCH   1   9
BRANCH   5  24
HETATM   24  N4  UNL     1      -5.236   7.770   9.085  1.00  0.00    -0.365 N
HETATM   25  C9  UNL     1      -5.352   9.211   9.026  1.00  0.00     0.125 C
HETATM   26  C10 UNL     1      -6.807   9.523   8.799  1.00  0.00     0.025 C
HETATM   27  C11 UNL     1      -7.434   8.790   7.680  1.00  0.00    -0.007 C
HETATM   28  C12 UNL     1      -8.779   8.204   8.121  1.00  0.00     0.005 C
HETATM   29  C14 UNL     1      -6.970   7.426   7.404  1.00  0.00     0.008 C
HETATM   30  C13 UNL     1      -8.192   6.815   8.058  1.00  0.00     0.007 C
HETATM   31  C15 UNL     1      -5.666   7.006   7.959  1.00  0.00     0.129 C
ENDBRANCH   5  24
TORSDOF 5
ENDMDL