MODEL 5
REMARK VINA RESULT: -7.808564347      1.519      1.754
REMARK  4 active torsions:
REMARK  status: ('A' for Active; 'I' for Inactive)
REMARK    1  A    between atoms: C2_2  and  C3_3
REMARK    2  A    between atoms: C5_7  and  C6_8
REMARK    3  A    between atoms: C7_11  and  C8_12
REMARK    4  A    between atoms: C9_22  and  C10_23
ROOT
HETATM    1  C3  UNL     1      -3.261   3.491  10.747  1.00  0.00     0.036 A
HETATM    2  N1  UNL     1      -4.426   2.807  10.837  1.00  0.00    -0.365 N
ATOM      3  H1  UNL     1      -5.004   2.675  10.008  1.00  0.00     0.165 HD
HETATM    4  C4  UNL     1      -4.819   2.303  12.015  1.00  0.00     0.121 A
HETATM    5  C5  UNL     1      -4.020   2.484  13.132  1.00  0.00     0.094 A
HETATM    6  N5  UNL     1      -2.885   3.173  12.989  1.00  0.00    -0.350 N
ATOM      7  H5  UNL     1      -2.303   3.316  13.814  1.00  0.00     0.166 HD
HETATM    8  C9  UNL     1      -2.463   3.692  11.812  1.00  0.00     0.058 A
ENDROOT
BRANCH   5   9
HETATM    9  C6  UNL     1      -4.360   1.780  14.361  1.00  0.00     0.150 A
HETATM   10  N2  UNL     1      -5.229   2.201  15.330  1.00  0.00    -0.321 N
HETATM   11  C7  UNL     1      -5.354   1.186  16.209  1.00  0.00     0.206 A
ATOM     12  H2  UNL     1      -5.693   3.107  15.379  1.00  0.00     0.169 HD
HETATM   13  N3  UNL     1      -4.591   0.159  15.810  1.00  0.00    -0.280 N
HETATM   14  N4  UNL     1      -4.007   0.557  14.694  1.00  0.00    -0.282 N
ATOM     15  H3  UNL     1      -4.483  -0.743  16.273  1.00  0.00     0.188 HD
ATOM     16  H4  UNL     1      -3.358  -0.015  14.154  1.00  0.00     0.188 HD
BRANCH  11  17
HETATM   17  C8  UNL     1      -6.249   1.154  17.387  1.00  0.00     0.450 C
HETATM   18  F1  UNL     1      -7.368   0.425  17.131  1.00  0.00    -0.163 F
HETATM   19  F2  UNL     1      -6.653   2.489  17.568  1.00  0.00    -0.163 F
HETATM   20  F3  UNL     1      -5.535   0.788  18.470  1.00  0.00    -0.163 F
ENDBRANCH  11  17
ENDBRANCH   5   9
BRANCH   8  21
HETATM   21  C10 UNL     1      -1.073   4.214  11.639  1.00  0.00    -0.049 C
HETATM   22  C11 UNL     1       0.009   3.265  11.358  1.00  0.00     0.039 C
HETATM   23  C12 UNL     1       0.894   3.544  10.180  1.00  0.00     0.043 C
HETATM   24  C13 UNL     1       1.471   4.929  10.170  1.00  0.00     0.257 C
HETATM   25  C14 UNL     1       2.305   5.286  11.352  1.00  0.00     0.205 C
HETATM   26  N6  UNL     1       0.431   5.942  10.140  1.00  0.00     0.096 N
HETATM   27  F4  UNL     1       3.474   5.918  10.880  1.00  0.00    -0.247 F
HETATM   28  C15 UNL     1       1.571   6.351  12.130  1.00  0.00     0.075 C
HETATM   29  C16 UNL     1       0.210   6.382  11.469  1.00  0.00     0.230 C
HETATM   30  C17 UNL     1      -0.764   5.518  12.274  1.00  0.00     0.072 C
HETATM   31  C18 UNL     1       0.796   6.952   9.187  1.00  0.00     0.311 C
ENDBRANCH   8  21
BRANCH   1  32
HETATM   32  C2  UNL     1      -3.004   4.057   9.410  1.00  0.00     0.055 C
HETATM   33  C1  UNL     1      -3.629   5.421   9.274  1.00  0.00     0.011 C
ENDBRANCH   1  32
TORSDOF 4
ENDMDL