MODEL 2
REMARK VINA RESULT: -6.490233882      1.558      1.963
REMARK  5 active torsions:
REMARK  status: ('A' for Active; 'I' for Inactive)
REMARK    1  A    between atoms: O1_2  and  C2_3
REMARK       I    between atoms: N1_6  and  C5_7
REMARK       I    between atoms: C5_7  and  N2_9
REMARK    2  A    between atoms: N2_9  and  C6_11
REMARK    3  A    between atoms: C8_15  and  C9_16
REMARK    4  A    between atoms: C9_16  and  O3_18
REMARK    5  A    between atoms: C9_16  and  C12_20
ROOT
HETATM    1  C6  UNL     1      -1.869   3.526  11.884  1.00  0.00     0.073 A
HETATM    2  C7  UNL     1      -1.530   4.825  11.620  1.00  0.00     0.119 A
HETATM    3  N3  UNL     1      -0.734   5.111  10.537  1.00  0.00    -0.364 N
ATOM      4  H3  UNL     1      -0.494   6.086  10.357  1.00  0.00     0.165 HD
HETATM    5  C8  UNL     1      -0.264   4.191   9.716  1.00  0.00     0.054 A
HETATM    6  C13 UNL     1      -0.588   2.877   9.960  1.00  0.00     0.054 A
HETATM    7  C14 UNL     1      -1.379   2.554  11.029  1.00  0.00     0.064 A
HETATM    8 CL1  UNL     1      -1.770   0.890  11.308  1.00  0.00    -0.082 Cl
ENDROOT
BRANCH   1   9
HETATM    9  N2  UNL     1      -2.653   3.154  12.972  1.00  0.00    -0.306 N
HETATM   10  C5  UNL     1      -3.929   3.634  13.304  1.00  0.00     0.323 C
HETATM   11  N1  UNL     1      -4.595   3.141  14.474  1.00  0.00    -0.334 N
HETATM   12  O2  UNL     1      -4.595   4.493  12.657  1.00  0.00    -0.247 OA
HETATM   13  C4  UNL     1      -5.907   3.647  14.760  1.00  0.00     0.130 C
HETATM   14  C15 UNL     1      -3.897   2.183  15.292  1.00  0.00     0.130 C
HETATM   15  C3  UNL     1      -6.571   3.111  15.968  1.00  0.00     0.052 C
HETATM   16  C2  UNL     1      -6.057   1.737  16.322  1.00  0.00     0.123 C
HETATM   17  C16 UNL     1      -4.589   1.920  16.620  1.00  0.00     0.052 C
ATOM     18  H2  UNL     1      -2.255   2.455  13.599  1.00  0.00     0.171 HD
BRANCH  16  19
HETATM   19  O1  UNL     1      -6.750   1.239  17.423  1.00  0.00    -0.391 OA
HETATM   20  C1  UNL     1      -6.213   1.808  18.568  1.00  0.00     0.202 C
ENDBRANCH  16  19
ENDBRANCH   1   9
BRANCH   5  21
HETATM   21  C9  UNL     1       0.615   4.586   8.551  1.00  0.00     0.196 C
HETATM   22  C10 UNL     1       1.847   3.737   8.607  1.00  0.00     0.063 C
BRANCH  21  23
HETATM   23  O3  UNL     1       0.852   5.922   8.648  1.00  0.00    -0.370 OA
HETATM   24  C11 UNL     1       2.126   6.363   8.776  1.00  0.00     0.203 C
ENDBRANCH  21  23
BRANCH  21  25
HETATM   25  C12 UNL     1      -0.149   4.245   7.277  1.00  0.00     0.423 C
HETATM   26  F1  UNL     1       0.155   2.990   6.828  1.00  0.00    -0.167 F
HETATM   27  F2  UNL     1       0.258   5.167   6.297  1.00  0.00    -0.167 F
HETATM   28  F3  UNL     1      -1.499   4.396   7.402  1.00  0.00    -0.167 F
ENDBRANCH  21  25
ENDBRANCH   5  21
TORSDOF 5
ENDMDL