MODEL 5
REMARK VINA RESULT: -6.760832672      1.042      1.509
REMARK  5 active torsions:
REMARK  status: ('A' for Active; 'I' for Inactive)
REMARK    1  A    between atoms: C2_2  and  N1_3
REMARK    2  A    between atoms: C8_10  and  C9_11
REMARK    3  A    between atoms: C9_11  and  O1_12
REMARK    4  A    between atoms: C9_11  and  C10_14
REMARK    5  A    between atoms: N3_20  and  C11_21
ROOT
HETATM    1  N1  UNL     1      -1.256   6.107  12.470  1.00  0.00    -0.302 N
HETATM    2  C3  UNL     1      -2.204   6.304  11.573  1.00  0.00     0.131 A
HETATM    3  C4  UNL     1      -3.214   5.344  11.722  1.00  0.00     0.058 A
HETATM    4 BR1  UNL     1      -4.828   5.250  10.697  1.00  0.00    -0.047 Br
HETATM    5  C5  UNL     1      -2.806   4.556  12.767  1.00  0.00     0.095 A
HETATM    6  C6  UNL     1      -3.416   3.444  13.450  1.00  0.00     0.083 A
HETATM    7  C7  UNL     1      -3.751   3.562  14.814  1.00  0.00     0.063 A
HETATM    8  C8  UNL     1      -4.252   2.338  15.166  1.00  0.00     0.066 A
HETATM    9  N2  UNL     1      -4.213   1.572  14.102  1.00  0.00    -0.299 N
ATOM     10  H2  UNL     1      -4.527   0.602  14.079  1.00  0.00     0.187 HD
HETATM   11  N3  UNL     1      -3.700   2.236  13.038  1.00  0.00    -0.281 N
HETATM   12  N4  UNL     1      -1.602   5.077  13.179  1.00  0.00    -0.295 N
ATOM     13  H4  UNL     1      -1.049   4.701  13.949  1.00  0.00     0.187 HD
ENDROOT
BRANCH  11  14
HETATM   14  C11 UNL     1      -3.522   1.573  11.780  1.00  0.00     0.043 C
HETATM   15  C12 UNL     1      -4.644   1.862  10.785  1.00  0.00     0.039 C
HETATM   16  C13 UNL     1      -3.714   0.034  12.049  1.00  0.00     0.039 C
HETATM   17  C14 UNL     1      -2.163   1.609  11.193  1.00  0.00     0.039 C
ENDBRANCH  11  14
BRANCH   8  18
HETATM   18  C9  UNL     1      -4.742   1.980  16.527  1.00  0.00     0.276 C
BRANCH  18  19
HETATM   19  O1  UNL     1      -4.447   0.683  16.882  1.00  0.00    -0.381 OA
ATOM     20  H1  UNL     1      -3.720   0.620  17.489  1.00  0.00     0.210 HD
ENDBRANCH  18  19
BRANCH  18  21
HETATM   21  C10 UNL     1      -6.230   2.205  16.669  1.00  0.00     0.418 C
HETATM   22  F1  UNL     1      -6.516   3.061  17.714  1.00  0.00    -0.168 F
HETATM   23  F2  UNL     1      -6.618   2.869  15.498  1.00  0.00    -0.168 F
HETATM   24  F3  UNL     1      -6.957   1.044  16.695  1.00  0.00    -0.168 F
ENDBRANCH  18  21
ENDBRANCH   8  18
BRANCH   1  25
HETATM   25  C2  UNL     1      -0.014   6.855  12.696  1.00  0.00     0.143 C
HETATM   26  C1  UNL     1      -0.323   8.199  13.309  1.00  0.00     0.028 C
ENDBRANCH   1  25
TORSDOF 5
ENDMDL