MODEL 2
REMARK VINA RESULT: -5.301842676      9.071     12.318
REMARK  9 active torsions:
REMARK  status: ('A' for Active; 'I' for Inactive)
REMARK    1  A    between atoms: C2_2  and  C3_3
REMARK    2  A    between atoms: C3_3  and  C5_5
REMARK    3  A    between atoms: C12_15  and  C13_16
REMARK    4  A    between atoms: C13_16  and  N2_17
REMARK    5  A    between atoms: C17_26  and  C18_27
REMARK    6  A    between atoms: C18_27  and  C20_29
REMARK    7  A    between atoms: C23_34  and  C24_35
REMARK    8  A    between atoms: C24_35  and  C26_37
REMARK    9  A    between atoms: C28_41  and  O6_42
ROOT
HETATM    1  C5  UNL     1      13.291  52.367  98.115  1.00  0.00     0.162 C
HETATM    2  N1  UNL     1      12.273  52.901  99.055  1.00  0.00    -0.349 N
ATOM      3  H1  UNL     1      11.535  52.256  99.338  1.00  0.00     0.163 HD
HETATM    4  C6  UNL     1      12.215  54.174  99.591  1.00  0.00     0.219 C
HETATM    5  O1  UNL     1      12.219  54.260 100.878  1.00  0.00    -0.274 OA
HETATM    6  C7  UNL     1      12.148  55.457  98.871  1.00  0.00     0.115 C
HETATM    7  C8  UNL     1      10.700  55.851  98.529  1.00  0.00    -0.021 C
HETATM    8  C9  UNL     1      10.348  56.765  99.735  1.00  0.00     0.019 C
HETATM    9  C10 UNL     1       9.788  54.689  98.761  1.00  0.00     0.019 C
HETATM   10  C11 UNL     1      10.660  56.557  97.263  1.00  0.00    -0.010 C
HETATM   11  C12 UNL     1       9.839  56.229  96.107  1.00  0.00    -0.029 C
HETATM   12  C14 UNL     1      10.447  55.288  95.077  1.00  0.00     0.158 C
HETATM   13  C15 UNL     1       9.589  54.020  94.897  1.00  0.00     0.045 C
HETATM   14  O2  UNL     1      11.724  54.894  95.311  1.00  0.00    -0.310 OA
HETATM   15  C16 UNL     1      12.908  54.873  94.679  1.00  0.00     0.289 C
HETATM   16  O3  UNL     1      13.870  55.470  95.304  1.00  0.00    -0.262 OA
HETATM   17  C17 UNL     1      13.316  54.290  93.398  1.00  0.00     0.235 C
HETATM   18  O4  UNL     1      13.479  52.942  93.356  1.00  0.00    -0.304 OA
HETATM   19  C22 UNL     1      14.230  51.927  93.753  1.00  0.00     0.283 C
HETATM   20  O5  UNL     1      15.379  51.553  93.294  1.00  0.00    -0.263 OA
HETATM   21  C23 UNL     1      13.794  51.028  94.863  1.00  0.00     0.187 C
HETATM   22  N3  UNL     1      12.757  51.519  95.698  1.00  0.00    -0.359 N
ATOM     23  H3  UNL     1      11.974  51.921  95.181  1.00  0.00     0.162 HD
HETATM   24  C28 UNL     1      12.591  51.562  97.083  1.00  0.00     0.135 C
ENDROOT
BRANCH  11  25
HETATM   25  C13 UNL     1       8.404  55.877  96.266  1.00  0.00     0.266 C
BRANCH  25  26
HETATM   26  N2  UNL     1       7.547  57.067  96.401  1.00  0.00    -0.076 N
ATOM     27  H23 UNL     1       6.950  56.999  97.225  1.00  0.00     0.274 HD
ATOM     28  H22 UNL     1       8.094  57.887  96.664  1.00  0.00     0.274 HD
ATOM     29  H21 UNL     1       6.996  57.245  95.561  1.00  0.00     0.274 HD
ENDBRANCH  25  26
ENDBRANCH  11  25
BRANCH  17  30
HETATM   30  C18 UNL     1      12.384  54.654  92.223  1.00  0.00     0.021 C
HETATM   31  C19 UNL     1      11.903  53.286  91.705  1.00  0.00     0.013 C
BRANCH  30  32
HETATM   32  C20 UNL     1      13.183  55.206  91.051  1.00  0.00     0.003 C
HETATM   33  C21 UNL     1      14.543  55.663  91.443  1.00  0.00     0.005 C
ENDBRANCH  30  32
ENDBRANCH  17  30
BRANCH   1  34
HETATM   34  C3  UNL     1      14.207  51.563  99.012  1.00  0.00     0.012 C
HETATM   35  C4  UNL     1      15.008  52.424  99.943  1.00  0.00     0.012 C
BRANCH  34  36
HETATM   36  C2  UNL     1      15.007  50.516  98.304  1.00  0.00     0.002 C
HETATM   37  C1  UNL     1      16.251  51.091  97.660  1.00  0.00     0.005 C
ENDBRANCH  34  36
ENDBRANCH   1  34
BRANCH  24  38
HETATM   38  O6  UNL     1      11.685  50.794  97.611  1.00  0.00    -0.348 OA
ATOM     39  H6  UNL     1      10.933  51.294  97.908  1.00  0.00     0.219 HD
ENDBRANCH  24  38
BRANCH  21  40
HETATM   40  C24 UNL     1      13.360  49.709  94.174  1.00  0.00     0.014 C
HETATM   41  C25 UNL     1      11.902  49.737  93.902  1.00  0.00     0.012 C
BRANCH  40  42
HETATM   42  C26 UNL     1      13.754  48.524  95.010  1.00  0.00     0.002 C
HETATM   43  C27 UNL     1      15.241  48.407  95.183  1.00  0.00     0.005 C
ENDBRANCH  40  42
ENDBRANCH  21  40
TORSDOF 9
ENDMDL