MODEL 5
REMARK VINA RESULT: -7.563720926      3.012      5.844
REMARK  8 active torsions:
REMARK  status: ('A' for Active; 'I' for Inactive)
REMARK    1  A    between atoms: C1_2  and  C2_3
REMARK       I    between atoms: C1_2  and  N3_24
REMARK    2  A    between atoms: C3_4  and  C4_5
REMARK    3  A    between atoms: C4_5  and  N1_6
REMARK    4  A    between atoms: C10_12  and  O2_13
REMARK    5  A    between atoms: O2_13  and  C11_14
REMARK    6  A    between atoms: C11_14  and  C12_15
REMARK    7  A    between atoms: C12_15  and  N2_16
REMARK    8  A    between atoms: N4_27  and  O3_29
ROOT
HETATM    1  O1  UNL     1      11.252  54.899  92.728  1.00  0.00    -0.268 OA
HETATM    2  C1  UNL     1      11.674  54.103  91.806  1.00  0.00     0.248 C
HETATM    3  N3  UNL     1      12.153  54.698  90.655  1.00  0.00    -0.304 N
HETATM    4  C20 UNL     1      13.001  55.935  90.722  1.00  0.00     0.219 C
HETATM    5  C21 UNL     1      14.292  55.428  90.102  1.00  0.00     0.162 C
HETATM    6  N4  UNL     1      15.417  55.489  90.700  1.00  0.00    -0.249 N
ATOM      7  H4  UNL     1      16.264  55.138  90.254  1.00  0.00     0.196 HD
HETATM    8  O4  UNL     1      14.144  54.880  88.810  1.00  0.00    -0.292 OA
HETATM    9  C22 UNL     1      12.975  54.230  88.428  1.00  0.00     0.106 A
HETATM   10  C23 UNL     1      12.748  53.685  87.202  1.00  0.00     0.071 A
HETATM   11  C24 UNL     1      11.543  53.056  86.884  1.00  0.00     0.066 A
HETATM   12  N5  UNL     1      11.091  52.460  85.769  1.00  0.00    -0.306 N
ATOM     13  H5  UNL     1      11.618  52.367  84.901  1.00  0.00     0.170 HD
HETATM   14  C25 UNL     1       9.827  51.997  85.969  1.00  0.00     0.325 A
HETATM   15  O5  UNL     1       9.121  51.387  85.112  1.00  0.00    -0.247 OA
HETATM   16  N6  UNL     1       9.518  52.322  87.227  1.00  0.00    -0.306 N
ATOM     17  H6  UNL     1       8.629  52.109  87.678  1.00  0.00     0.170 HD
HETATM   18  C26 UNL     1      10.539  52.969  87.815  1.00  0.00     0.065 A
HETATM   19  C27 UNL     1      10.757  53.514  89.059  1.00  0.00     0.064 A
HETATM   20  C28 UNL     1      11.963  54.137  89.366  1.00  0.00     0.074 A
ENDROOT
BRANCH   2  21
HETATM   21  C2  UNL     1      11.593  52.708  92.103  1.00  0.00     0.076 C
HETATM   22  C3  UNL     1      12.537  51.797  92.088  1.00  0.00     0.023 C
BRANCH  22  23
HETATM   23  C4  UNL     1      12.213  50.373  92.435  1.00  0.00     0.095 C
BRANCH  23  24
HETATM   24  N1  UNL     1      12.496  49.441  91.417  1.00  0.00    -0.346 N
HETATM   25  C5  UNL     1      13.602  48.590  91.523  1.00  0.00     0.073 C
HETATM   26  C6  UNL     1      13.595  47.441  90.532  1.00  0.00     0.084 C
HETATM   27  C7  UNL     1      13.406  48.058  89.196  1.00  0.00    -0.042 A
HETATM   28  C8  UNL     1      14.170  47.679  88.096  1.00  0.00     0.011 A
HETATM   29  C18 UNL     1      12.445  49.035  89.087  1.00  0.00    -0.011 A
HETATM   30  C9  UNL     1      13.946  48.304  86.892  1.00  0.00     0.037 A
HETATM   31  C10 UNL     1      12.997  49.283  86.744  1.00  0.00     0.069 A
HETATM   32  C17 UNL     1      12.252  49.637  87.866  1.00  0.00     0.050 A
HETATM   33  C19 UNL     1      11.656  49.386  90.292  1.00  0.00     0.107 C
BRANCH  31  34
HETATM   34  O2  UNL     1      12.699  49.959  85.607  1.00  0.00    -0.349 OA
BRANCH  34  35
HETATM   35  C11 UNL     1      12.850  49.691  84.274  1.00  0.00     0.206 C
BRANCH  35  36
HETATM   36  C12 UNL     1      13.079  50.829  83.348  1.00  0.00     0.299 C
BRANCH  36  37
HETATM   37  N2  UNL     1      14.449  51.320  83.555  1.00  0.00     0.090 N
HETATM   38  C13 UNL     1      14.440  52.646  84.140  1.00  0.00     0.272 C
HETATM   39  C14 UNL     1      15.904  53.066  83.946  1.00  0.00     0.032 C
HETATM   40  C15 UNL     1      16.163  52.570  82.541  1.00  0.00     0.032 C
HETATM   41  C16 UNL     1      15.107  51.518  82.273  1.00  0.00     0.272 C
ENDBRANCH  36  37
ENDBRANCH  35  36
ENDBRANCH  34  35
ENDBRANCH  31  34
ENDBRANCH  23  24
ENDBRANCH  22  23
ENDBRANCH   2  21
BRANCH   6  42
HETATM   42  O3  UNL     1      15.463  56.031  91.942  1.00  0.00    -0.288 OA
ATOM     43  H3  UNL     1      15.898  56.868  92.058  1.00  0.00     0.244 HD
ENDBRANCH   6  42
TORSDOF 8
ENDMDL