MODEL 3
REMARK VINA RESULT: -7.090874942      5.768     11.442
REMARK  8 active torsions:
REMARK  status: ('A' for Active; 'I' for Inactive)
REMARK    1  A    between atoms: C2_2  and  C3_3
REMARK    2  A    between atoms: C5_5  and  C6_6
REMARK    3  A    between atoms: C6_6  and  N1_7
REMARK    4  A    between atoms: N1_7  and  S1_9
REMARK    5  A    between atoms: S1_9  and  C7_12
REMARK    6  A    between atoms: C7_12  and  C8_13
REMARK    7  A    between atoms: C14_22  and  O5_23
REMARK    8  A    between atoms: C24_34  and  C25_35
ROOT
HETATM    1  C8  UNL     1      12.608  54.424  93.574  1.00  0.00     0.008 C
HETATM    2  C9  UNL     1      11.253  54.707  93.019  1.00  0.00     0.024 C
HETATM    3  C10 UNL     1      10.688  53.614  92.176  1.00  0.00     0.076 C
HETATM    4  S2  UNL     1      10.942  51.956  92.822  1.00  0.00    -0.143 SA
HETATM    5  C11 UNL     1      12.409  51.919  93.875  1.00  0.00     0.149 C
HETATM    6  C12 UNL     1      13.553  51.172  93.270  1.00  0.00     0.213 C
HETATM    7  O3  UNL     1      12.856  49.991  93.707  1.00  0.00    -0.318 OA
HETATM    8  C13 UNL     1      12.467  50.794  94.802  1.00  0.00     0.283 C
HETATM    9  O4  UNL     1      12.322  50.384  95.975  1.00  0.00    -0.263 OA
HETATM   10  C14 UNL     1      12.685  53.253  94.499  1.00  0.00     0.095 C
HETATM   11  C15 UNL     1      11.833  53.526  95.712  1.00  0.00     0.046 C
HETATM   12  C16 UNL     1      12.610  54.561  96.540  1.00  0.00    -0.007 C
HETATM   13  C17 UNL     1      11.837  54.738  97.811  1.00  0.00     0.005 C
HETATM   14  C18 UNL     1      11.844  56.138  98.341  1.00  0.00     0.000 C
HETATM   15  C19 UNL     1      11.449  57.176  97.335  1.00  0.00     0.000 C
HETATM   16  C20 UNL     1      11.370  56.563  95.927  1.00  0.00     0.005 C
HETATM   17  C21 UNL     1      12.666  55.813  95.717  1.00  0.00    -0.010 C
HETATM   18  C22 UNL     1      13.088  55.644  94.326  1.00  0.00     0.018 C
ENDROOT
BRANCH   1  19
HETATM   19  C7  UNL     1      13.574  54.204  92.451  1.00  0.00     0.175 C
BRANCH  19  20
HETATM   20  S1  UNL     1      14.045  55.553  91.475  1.00  0.00     0.227 S
HETATM   21  O1  UNL     1      15.117  56.417  92.053  1.00  0.00    -0.206 OA
HETATM   22  O2  UNL     1      12.951  56.428  90.970  1.00  0.00    -0.206 OA
BRANCH  20  23
HETATM   23  N1  UNL     1      14.748  54.868  90.016  1.00  0.00    -0.319 N
ATOM     24  H1  UNL     1      15.585  54.286  89.977  1.00  0.00     0.172 HD
BRANCH  23  25
HETATM   25  C6  UNL     1      13.931  55.272  88.861  1.00  0.00     0.136 C
BRANCH  25  26
HETATM   26  C5  UNL     1      13.563  54.005  88.125  1.00  0.00     0.005 C
HETATM   27  C4  UNL     1      13.574  54.234  86.643  1.00  0.00     0.011 C
HETATM   28  C3  UNL     1      12.270  53.753  86.100  1.00  0.00    -0.000 C
HETATM   29  C24 UNL     1      11.496  53.177  87.240  1.00  0.00     0.091 C
HETATM   30  C23 UNL     1      12.225  53.472  88.515  1.00  0.00     0.022 C
BRANCH  28  31
HETATM   31  C2  UNL     1      12.469  52.665  85.041  1.00  0.00     0.001 C
HETATM   32  C1  UNL     1      13.934  52.595  84.654  1.00  0.00     0.005 C
ENDBRANCH  28  31
BRANCH  29  33
HETATM   33  C25 UNL     1      10.148  53.837  87.253  1.00  0.00     0.177 C
HETATM   34  O6  UNL     1       9.518  54.052  88.318  1.00  0.00    -0.648 OA
HETATM   35  O7  UNL     1       9.595  54.214  86.046  1.00  0.00    -0.648 OA
ENDBRANCH  29  33
ENDBRANCH  25  26
ENDBRANCH  23  25
ENDBRANCH  20  23
ENDBRANCH  19  20
ENDBRANCH   1  19
BRANCH  10  36
HETATM   36  O5  UNL     1      14.019  53.205  94.973  1.00  0.00    -0.387 OA
ATOM     37  H5  UNL     1      13.996  52.716  95.788  1.00  0.00     0.210 HD
ENDBRANCH  10  36
TORSDOF 8
ENDMDL