MODEL 2
REMARK VINA RESULT: -7.336887021      0.858      1.167
REMARK  10 active torsions:
REMARK  status: ('A' for Active; 'I' for Inactive)
REMARK    1  A    between atoms: O1_2  and  C2_3
REMARK    2  A    between atoms: C4_5  and  N1_6
REMARK    3  A    between atoms: C10_13  and  O3_14
REMARK    4  A    between atoms: O3_14  and  C11_15
REMARK    5  A    between atoms: C14_18  and  N2_19
REMARK    6  A    between atoms: N2_19  and  C15_20
REMARK    7  A    between atoms: N5_29  and  C19_30
REMARK    8  A    between atoms: C19_30  and  C20_31
REMARK    9  A    between atoms: C20_31  and  O5_33
REMARK   10  A    between atoms: C20_31  and  N6_35
ROOT
HETATM    1  C15 UNL     1      12.289  53.805  89.469  1.00  0.00     0.260 A
HETATM    2  N3  UNL     1      13.143  54.298  88.487  1.00  0.00    -0.316 N
ATOM      3  H3  UNL     1      13.865  55.005  88.618  1.00  0.00     0.170 HD
HETATM    4  C16 UNL     1      12.849  53.684  87.354  1.00  0.00     0.064 A
HETATM    5  C17 UNL     1      11.832  52.806  87.563  1.00  0.00     0.129 A
HETATM    6  N4  UNL     1      11.490  52.877  88.845  1.00  0.00    -0.310 N
ATOM      7  H4  UNL     1      10.754  52.332  89.294  1.00  0.00     0.170 HD
HETATM    8  C18 UNL     1      11.490  52.137  86.323  1.00  0.00     0.276 A
HETATM    9  O4  UNL     1      10.564  51.255  86.276  1.00  0.00    -0.265 OA
HETATM   10  N5  UNL     1      12.329  52.626  85.298  1.00  0.00    -0.316 N
HETATM   11  C27 UNL     1      13.231  53.580  85.929  1.00  0.00     0.191 A
ENDROOT
BRANCH   1  12
HETATM   12  N2  UNL     1      12.253  54.140  90.612  1.00  0.00    -0.365 NA
BRANCH  12  13
HETATM   13  C14 UNL     1      12.212  54.508  91.865  1.00  0.00     0.177 A
HETATM   14  C2  UNL     1      13.422  54.895  92.501  1.00  0.00     0.114 A
HETATM   15  C3  UNL     1      13.473  55.302  93.799  1.00  0.00     0.069 A
HETATM   16  C4  UNL     1      12.337  55.351  94.554  1.00  0.00     0.035 A
HETATM   17  C9  UNL     1      11.161  54.991  93.993  1.00  0.00     0.069 A
HETATM   18  C10 UNL     1      11.069  54.564  92.645  1.00  0.00     0.115 A
BRANCH  14  19
HETATM   19  O1  UNL     1      14.590  54.853  91.753  1.00  0.00    -0.352 OA
HETATM   20  C1  UNL     1      15.103  56.017  91.155  1.00  0.00     0.210 C
ENDBRANCH  14  19
BRANCH  16  21
HETATM   21  N1  UNL     1      12.376  55.786  95.904  1.00  0.00    -0.377 N
HETATM   22  C5  UNL     1      12.471  54.849  96.996  1.00  0.00     0.149 C
HETATM   23  C6  UNL     1      11.925  55.568  98.240  1.00  0.00     0.187 C
HETATM   24  O2  UNL     1      10.773  56.285  97.872  1.00  0.00    -0.388 OA
HETATM   25  C7  UNL     1      11.070  57.386  97.113  1.00  0.00     0.187 C
HETATM   26  C8  UNL     1      12.304  57.190  96.221  1.00  0.00     0.149 C
ENDBRANCH  16  21
BRANCH  18  27
HETATM   27  O3  UNL     1       9.863  54.245  92.230  1.00  0.00    -0.343 OA
BRANCH  27  28
HETATM   28  C11 UNL     1       8.779  54.360  91.503  1.00  0.00     0.121 C
HETATM   29  C12 UNL     1       8.841  55.395  90.373  1.00  0.00     0.040 C
HETATM   30  C13 UNL     1       8.508  52.990  90.804  1.00  0.00     0.040 C
ENDBRANCH  27  28
ENDBRANCH  18  27
ENDBRANCH  12  13
ENDBRANCH   1  12
BRANCH  10  31
HETATM   31  C19 UNL     1      12.320  52.313  83.915  1.00  0.00     0.127 C
BRANCH  31  32
HETATM   32  C20 UNL     1      13.135  51.246  83.344  1.00  0.00     0.163 C
HETATM   33  C21 UNL     1      12.853  49.917  84.099  1.00  0.00     0.077 C
BRANCH  32  34
HETATM   34  O5  UNL     1      12.542  50.992  82.049  1.00  0.00    -0.366 OA
ATOM     35  H5  UNL     1      13.242  51.164  81.429  1.00  0.00     0.213 HD
ENDBRANCH  32  34
BRANCH  32  36
HETATM   36  N6  UNL     1      14.499  51.294  83.126  1.00  0.00    -0.358 N
HETATM   37  C22 UNL     1      14.874  50.829  81.796  1.00  0.00     0.125 C
HETATM   38  C23 UNL     1      15.098  51.971  80.824  1.00  0.00     0.020 C
HETATM   39  C24 UNL     1      15.987  53.055  81.396  1.00  0.00     0.007 C
HETATM   40  C25 UNL     1      16.523  52.491  82.695  1.00  0.00     0.044 C
HETATM   41  C26 UNL     1      15.330  52.309  83.610  1.00  0.00     0.061 C
ENDBRANCH  32  36
ENDBRANCH  31  32
ENDBRANCH  10  31
TORSDOF 10
ENDMDL