MODEL 2
REMARK VINA RESULT: -8.406941579      0.759      1.408
REMARK  9 active torsions:
REMARK  status: ('A' for Active; 'I' for Inactive)
REMARK    1  A    between atoms: O1_2  and  C2_3
REMARK    2  A    between atoms: C5_6  and  C6_7
REMARK    3  A    between atoms: C6_7  and  C7_8
REMARK    4  A    between atoms: C9_12  and  C10_13
REMARK    5  A    between atoms: C13_16  and  N2_17
REMARK       I    between atoms: N2_17  and  C14_19
REMARK    6  A    between atoms: C14_19  and  C15_21
REMARK    7  A    between atoms: N3_25  and  N4_26
REMARK    8  A    between atoms: N5_33  and  C22_34
REMARK    9  A    between atoms: C27_39  and  O4_40
ROOT
HETATM    1  C7  UNL     1      12.908  54.290  87.830  1.00  0.00     0.116 A
HETATM    2  N1  UNL     1      13.963  54.877  88.512  1.00  0.00    -0.337 N
ATOM      3  H1  UNL     1      14.773  55.321  88.079  1.00  0.00     0.167 HD
HETATM    4  C8  UNL     1      13.750  54.768  89.828  1.00  0.00     0.103 A
HETATM    5  C9  UNL     1      14.534  55.206  90.799  1.00  0.00     0.046 C
HETATM    6  C21 UNL     1      12.565  54.115  89.971  1.00  0.00     0.281 A
HETATM    7  O3  UNL     1      12.024  53.824  91.066  1.00  0.00    -0.265 OA
HETATM    8  N5  UNL     1      12.052  53.824  88.721  1.00  0.00    -0.260 N
ENDROOT
BRANCH   5   9
HETATM    9  C10 UNL     1      14.164  55.012  92.196  1.00  0.00    -0.034 A
HETATM   10  C11 UNL     1      14.349  53.828  92.862  1.00  0.00     0.013 A
HETATM   11  C12 UNL     1      13.980  53.716  94.172  1.00  0.00     0.030 A
HETATM   12  C13 UNL     1      13.407  54.768  94.901  1.00  0.00     0.035 A
HETATM   13  C19 UNL     1      13.232  55.943  94.216  1.00  0.00     0.030 A
HETATM   14  C20 UNL     1      13.606  56.072  92.868  1.00  0.00     0.013 A
BRANCH  12  15
HETATM   15  N2  UNL     1      13.057  54.559  96.242  1.00  0.00    -0.322 N
HETATM   16  C14 UNL     1      12.048  55.149  97.006  1.00  0.00     0.274 C
HETATM   17  O2  UNL     1      11.270  56.004  96.561  1.00  0.00    -0.266 OA
ATOM     18  H2  UNL     1      13.626  53.870  96.734  1.00  0.00     0.169 HD
BRANCH  16  19
HETATM   19  C15 UNL     1      11.862  54.766  98.420  1.00  0.00     0.123 A
HETATM   20  C16 UNL     1      12.160  53.522  98.949  1.00  0.00     0.039 A
HETATM   21  C17 UNL     1      11.860  53.527 100.292  1.00  0.00     0.022 A
HETATM   22  C18 UNL     1      11.379  54.786 100.566  1.00  0.00     0.116 A
HETATM   23  N3  UNL     1      11.390  55.501  99.438  1.00  0.00    -0.269 N
BRANCH  23  24
HETATM   24  N4  UNL     1      10.976  56.816  99.328  1.00  0.00    -0.338 N
ATOM     25  H42 UNL     1      10.688  57.268  98.460  1.00  0.00     0.177 HD
ATOM     26  H41 UNL     1      10.916  57.469 100.109  1.00  0.00     0.177 HD
ENDBRANCH  23  24
ENDBRANCH  16  19
ENDBRANCH  12  15
ENDBRANCH   5   9
BRANCH   1  27
HETATM   27  C6  UNL     1      12.887  54.267  86.548  1.00  0.00     0.060 C
BRANCH  27  28
HETATM   28  C5  UNL     1      13.754  53.628  85.600  1.00  0.00    -0.033 A
HETATM   29  C4  UNL     1      14.991  54.187  85.271  1.00  0.00     0.014 A
HETATM   30  C3  UNL     1      15.832  53.641  84.330  1.00  0.00     0.037 A
HETATM   31  C2  UNL     1      15.438  52.486  83.680  1.00  0.00     0.068 A
HETATM   32  C30 UNL     1      14.214  51.932  84.005  1.00  0.00     0.037 A
HETATM   33  C29 UNL     1      13.370  52.467  84.938  1.00  0.00     0.014 A
BRANCH  31  34
HETATM   34  O1  UNL     1      16.246  51.877  82.710  1.00  0.00    -0.356 OA
HETATM   35  C1  UNL     1      16.234  52.450  81.394  1.00  0.00     0.210 C
ENDBRANCH  31  34
ENDBRANCH  27  28
ENDBRANCH   1  27
BRANCH   8  36
HETATM   36  C22 UNL     1      10.828  53.145  88.611  1.00  0.00     0.077 A
HETATM   37  C23 UNL     1       9.576  53.730  88.606  1.00  0.00     0.033 A
HETATM   38  C24 UNL     1       8.413  53.003  88.546  1.00  0.00     0.002 A
HETATM   39  C25 UNL     1       8.430  51.629  88.489  1.00  0.00     0.003 A
HETATM   40  C26 UNL     1       9.671  51.023  88.494  1.00  0.00     0.039 A
HETATM   41  C27 UNL     1      10.838  51.759  88.553  1.00  0.00     0.095 A
BRANCH  41  42
HETATM   42  O4  UNL     1      12.085  51.134  88.557  1.00  0.00    -0.354 OA
HETATM   43  C28 UNL     1      12.414  50.351  89.688  1.00  0.00     0.210 C
ENDBRANCH  41  42
ENDBRANCH   8  36
TORSDOF 9
ENDMDL