MODEL 3
REMARK VINA RESULT: -6.300176268      6.571      9.066
REMARK  10 active torsions:
REMARK  status: ('A' for Active; 'I' for Inactive)
REMARK    1  A    between atoms: C2_2  and  C3_3
REMARK    2  A    between atoms: C3_3  and  O1_4
REMARK    3  A    between atoms: O1_4  and  C4_5
REMARK    4  A    between atoms: C4_5  and  C5_6
REMARK    5  A    between atoms: C6_7  and  C7_8
REMARK    6  A    between atoms: C7_8  and  O2_9
REMARK    7  A    between atoms: C8_11  and  S1_12
REMARK    8  A    between atoms: C17_22  and  O4_23
REMARK    9  A    between atoms: O4_23  and  S2_24
REMARK   10  A    between atoms: C18_28  and  O8_29
ROOT
HETATM    1  C7  UNL     1      10.755  51.496  88.066  1.00  0.00     0.143 C
HETATM    2  C8  UNL     1      10.074  52.832  87.832  1.00  0.00     0.127 C
HETATM    3  C10 UNL     1      11.215  53.792  88.087  1.00  0.00     0.027 C
HETATM    4  C11 UNL     1      12.059  53.120  89.174  1.00  0.00     0.003 C
HETATM    5  C12 UNL     1      12.048  53.957  90.404  1.00  0.00    -0.005 C
HETATM    6  C13 UNL     1      13.263  54.881  90.332  1.00  0.00     0.006 C
HETATM    7  C14 UNL     1      13.904  55.056  91.670  1.00  0.00     0.006 C
HETATM    8  C15 UNL     1      12.857  55.316  92.759  1.00  0.00    -0.003 C
HETATM    9  C16 UNL     1      13.588  55.657  94.007  1.00  0.00     0.041 C
HETATM   10  C17 UNL     1      12.838  55.429  95.285  1.00  0.00     0.174 C
HETATM   11  C18 UNL     1      12.132  54.104  95.345  1.00  0.00     0.149 C
HETATM   12  C19 UNL     1      12.359  53.283  94.090  1.00  0.00     0.044 C
HETATM   13  C20 UNL     1      11.980  54.097  92.860  1.00  0.00    -0.034 C
HETATM   14  C21 UNL     1      10.532  54.511  93.056  1.00  0.00     0.016 C
HETATM   15  C22 UNL     1      12.148  53.170  91.674  1.00  0.00    -0.001 C
HETATM   16  C23 UNL     1      11.172  52.051  91.795  1.00  0.00     0.007 C
HETATM   17  C24 UNL     1      10.603  51.569  90.497  1.00  0.00     0.014 C
HETATM   18  C25 UNL     1      11.542  51.735  89.339  1.00  0.00     0.004 C
HETATM   19  C26 UNL     1      12.650  50.702  89.440  1.00  0.00     0.020 C
ENDROOT
BRANCH   1  20
HETATM   20  C6  UNL     1      11.640  51.194  86.938  1.00  0.00    -0.064 C
HETATM   21  C5  UNL     1      12.366  50.963  86.000  1.00  0.00    -0.077 C
BRANCH  21  22
HETATM   22  C4  UNL     1      13.238  50.708  84.852  1.00  0.00     0.261 C
BRANCH  22  23
HETATM   23  O1  UNL     1      13.725  51.907  84.334  1.00  0.00    -0.379 OA
BRANCH  23  24
HETATM   24  C3  UNL     1      14.807  51.732  83.508  1.00  0.00     0.168 C
BRANCH  24  25
HETATM   25  C2  UNL     1      15.815  52.866  83.580  1.00  0.00     0.022 C
HETATM   26  C1  UNL     1      15.477  53.815  84.705  1.00  0.00     0.007 C
ENDBRANCH  24  25
ENDBRANCH  23  24
ENDBRANCH  22  23
ENDBRANCH  21  22
ENDBRANCH   1  20
BRANCH   1  27
HETATM   27  O2  UNL     1       9.828  50.466  88.202  1.00  0.00    -0.375 OA
ATOM     28  H2  UNL     1       9.277  50.644  88.955  1.00  0.00     0.211 HD
ENDBRANCH   1  27
BRANCH   2  29
HETATM   29  S1  UNL     1       9.643  52.931  86.119  1.00  0.00     0.019 S
HETATM   30  C9  UNL     1       7.883  53.053  85.950  1.00  0.00     0.127 C
HETATM   31  O3  UNL     1      10.444  54.190  85.394  1.00  0.00    -0.258 OA
ENDBRANCH   2  29
BRANCH  11  32
HETATM   32  O8  UNL     1      12.563  53.297  96.409  1.00  0.00    -0.393 OA
ATOM     33  H8  UNL     1      12.225  52.409  96.365  1.00  0.00     0.210 HD
ENDBRANCH  11  32
BRANCH  10  34
HETATM   34  O4  UNL     1      12.053  56.489  95.674  1.00  0.00    -0.249 OA
BRANCH  34  35
HETATM   35  S2  UNL     1      11.288  56.343  97.123  1.00  0.00     0.252 S
HETATM   36  O5  UNL     1      10.920  57.728  97.588  1.00  0.00    -0.572 OA
HETATM   37  O6  UNL     1      12.102  55.729  98.199  1.00  0.00    -0.572 OA
HETATM   38  O7  UNL     1       9.833  55.482  97.011  1.00  0.00    -0.572 OA
ENDBRANCH  34  35
ENDBRANCH  10  34
TORSDOF 10
ENDMDL