MODEL 5
REMARK VINA RESULT: -5.975848224      3.948      6.762
REMARK  9 active torsions:
REMARK  status: ('A' for Active; 'I' for Inactive)
REMARK    1  A    between atoms: C2_2  and  C3_3
REMARK    2  A    between atoms: C3_3  and  C4_4
REMARK    3  A    between atoms: C4_4  and  C5_5
REMARK    4  A    between atoms: C5_5  and  C6_6
REMARK    5  A    between atoms: C7_7  and  C8_8
REMARK    6  A    between atoms: C12_16  and  O3_17
REMARK    7  A    between atoms: C13_19  and  O4_20
REMARK    8  A    between atoms: C24_33  and  C26_35
REMARK    9  A    between atoms: C26_35  and  O6_36
ROOT
HETATM    1  C8  UNL     1      11.547  53.630  89.542  1.00  0.00     0.152 A
HETATM    2  C9  UNL     1      10.822  52.831  90.569  1.00  0.00     0.116 A
HETATM    3  C10 UNL     1      12.100  52.623  91.295  1.00  0.00     0.314 A
HETATM    4  O1  UNL     1      12.732  53.343  90.245  1.00  0.00    -0.337 OA
HETATM    5  C11 UNL     1      12.582  51.225  91.342  1.00  0.00     0.284 C
HETATM    6  O2  UNL     1      12.810  50.730  90.171  1.00  0.00    -0.268 OA
HETATM    7  N1  UNL     1      12.810  50.414  92.461  1.00  0.00    -0.328 N
ATOM      8  H1  UNL     1      13.764  50.061  92.541  1.00  0.00     0.165 HD
HETATM    9  C12 UNL     1      11.934  50.000  93.506  1.00  0.00     0.249 C
HETATM   10  C13 UNL     1      12.184  50.548  94.866  1.00  0.00     0.176 C
HETATM   11  C15 UNL     1      12.580  51.967  95.027  1.00  0.00     0.059 C
HETATM   12  C16 UNL     1      13.790  52.427  94.303  1.00  0.00     0.038 C
HETATM   13  C17 UNL     1      13.589  53.189  93.055  1.00  0.00     0.242 C
HETATM   14  N2  UNL     1      12.295  53.365  92.539  1.00  0.00    -0.026 N
HETATM   15  C18 UNL     1      12.161  54.779  92.108  1.00  0.00     0.277 C
HETATM   16  C19 UNL     1      11.166  53.143  93.382  1.00  0.00     0.282 C
HETATM   17  C20 UNL     1      11.517  53.028  94.873  1.00  0.00     0.118 C
HETATM   18  O5  UNL     1      12.187  54.220  95.121  1.00  0.00    -0.362 OA
HETATM   19  C21 UNL     1      11.914  54.897  96.251  1.00  0.00     0.087 C
HETATM   20  C22 UNL     1      12.379  56.346  96.008  1.00  0.00     0.049 C
HETATM   21  C23 UNL     1      12.772  54.431  97.430  1.00  0.00     0.049 C
HETATM   22  C24 UNL     1      10.499  54.951  96.658  1.00  0.00     0.109 C
HETATM   23  C25 UNL     1      10.457  55.078  98.196  1.00  0.00     0.051 C
HETATM   24  O7  UNL     1       9.766  53.878  96.341  1.00  0.00    -0.367 OA
HETATM   25  C27 UNL     1      10.284  52.833  95.657  1.00  0.00     0.155 C
HETATM   26  C28 UNL     1       9.089  52.336  94.824  1.00  0.00     0.042 C
ENDROOT
BRANCH  10  27
HETATM   27  O4  UNL     1      12.997  49.693  95.634  1.00  0.00    -0.386 OA
HETATM   28  C14 UNL     1      12.890  49.766  96.969  1.00  0.00     0.202 C
ENDBRANCH  10  27
BRANCH   9  29
HETATM   29  O3  UNL     1      12.114  48.585  93.656  1.00  0.00    -0.374 OA
ATOM     30  H3  UNL     1      12.043  48.399  94.585  1.00  0.00     0.212 HD
ENDBRANCH   9  29
BRANCH  22  31
HETATM   31  C26 UNL     1       9.760  56.194  96.199  1.00  0.00     0.204 C
BRANCH  31  32
HETATM   32  O6  UNL     1       8.572  55.977  95.572  1.00  0.00    -0.398 OA
ATOM     33  H6  UNL     1       8.218  55.099  95.651  1.00  0.00     0.209 HD
ENDBRANCH  31  32
ENDBRANCH  22  31
BRANCH   1  34
HETATM   34  C7  UNL     1      11.641  53.080  88.176  1.00  0.00     0.001 C
HETATM   35  C6  UNL     1      11.924  53.813  87.110  1.00  0.00    -0.028 C
BRANCH  35  36
HETATM   36  C5  UNL     1      12.013  53.258  85.753  1.00  0.00     0.027 C
BRANCH  36  37
HETATM   37  C4  UNL     1      13.473  53.008  85.445  1.00  0.00     0.004 C
BRANCH  37  38
HETATM   38  C3  UNL     1      14.342  54.211  85.839  1.00  0.00    -0.000 C
BRANCH  38  39
HETATM   39  C2  UNL     1      15.498  54.210  84.835  1.00  0.00    -0.005 C
HETATM   40  C1  UNL     1      15.429  52.990  83.961  1.00  0.00     0.005 C
ENDBRANCH  38  39
ENDBRANCH  37  38
ENDBRANCH  36  37
ENDBRANCH  35  36
ENDBRANCH   1  34
TORSDOF 9
ENDMDL