MODEL 2
REMARK VINA RESULT: -7.661512491      1.381      2.035
REMARK  11 active torsions:
REMARK  status: ('A' for Active; 'I' for Inactive)
REMARK    1  A    between atoms: O1_1  and  C1_3
REMARK    2  A    between atoms: C1_3  and  C2_4
REMARK    3  A    between atoms: C1_3  and  N2_27
REMARK    4  A    between atoms: C4_6  and  C5_7
REMARK    5  A    between atoms: C11_13  and  O2_14
REMARK    6  A    between atoms: O2_14  and  C12_15
REMARK    7  A    between atoms: C12_15  and  C13_16
REMARK    8  A    between atoms: C18_24  and  O3_25
REMARK    9  A    between atoms: C23_34  and  N4_35
REMARK   10  A    between atoms: N4_35  and  C24_36
REMARK   11  A    between atoms: C24_36  and  C25_37
ROOT
HETATM    1  C2  UNL     1      13.165  54.164  93.782  1.00  0.00     0.092 C
HETATM    2  C3  UNL     1      13.516  55.329  94.641  1.00  0.00     0.023 C
HETATM    3  C4  UNL     1      12.887  55.116  95.990  1.00  0.00     0.022 C
HETATM    4  C11 UNL     1      12.267  53.793  95.925  1.00  0.00     0.155 C
HETATM    5  C18 UNL     1      11.989  53.549  94.439  1.00  0.00     0.159 C
ENDROOT
BRANCH   1   6
HETATM    6  C1  UNL     1      13.091  54.395  92.348  1.00  0.00     0.126 C
BRANCH   6   7
HETATM    7  O1  UNL     1      14.212  54.583  91.711  1.00  0.00    -0.349 OA
ATOM      8  H1  UNL     1      14.230  54.371  90.785  1.00  0.00     0.219 HD
ENDBRANCH   6   7
BRANCH   6   9
HETATM    9  N2  UNL     1      11.945  54.440  91.534  1.00  0.00    -0.316 N
HETATM   10  C19 UNL     1      10.600  54.736  91.937  1.00  0.00     0.137 C
HETATM   11  C20 UNL     1       9.725  53.925  91.001  1.00  0.00     0.064 C
HETATM   12  C21 UNL     1      10.563  53.909  89.765  1.00  0.00     0.003 A
HETATM   13  C22 UNL     1      10.203  53.647  88.464  1.00  0.00     0.103 A
HETATM   14  C29 UNL     1      11.855  54.210  90.114  1.00  0.00     0.120 A
HETATM   15  N3  UNL     1      11.135  53.688  87.514  1.00  0.00    -0.326 N
HETATM   16  C23 UNL     1      12.435  53.984  87.817  1.00  0.00     0.259 A
ATOM     17  H3  UNL     1      10.875  53.495  86.547  1.00  0.00     0.169 HD
HETATM   18  N5  UNL     1      12.757  54.242  89.142  1.00  0.00    -0.301 N
ATOM     19  H5  UNL     1      13.725  54.464  89.379  1.00  0.00     0.171 HD
BRANCH  16  20
HETATM   20  N4  UNL     1      13.257  54.014  86.941  1.00  0.00    -0.385 NA
BRANCH  20  21
HETATM   21  C24 UNL     1      13.976  54.251  85.844  1.00  0.00     0.191 C
BRANCH  21  22
HETATM   22  C25 UNL     1      14.642  53.116  85.089  1.00  0.00     0.173 C
HETATM   23  C26 UNL     1      15.860  53.517  84.327  1.00  0.00     0.040 C
HETATM   24  C27 UNL     1      15.774  52.691  83.075  1.00  0.00     0.029 C
HETATM   25  C28 UNL     1      14.611  51.787  83.312  1.00  0.00     0.168 C
HETATM   26  O4  UNL     1      13.815  52.431  84.238  1.00  0.00    -0.380 OA
ENDBRANCH  21  22
ENDBRANCH  20  21
ENDBRANCH  16  20
ENDBRANCH   6   9
ENDBRANCH   1   6
BRANCH   5  27
HETATM   27  O3  UNL     1      12.048  52.158  94.186  1.00  0.00    -0.392 OA
ATOM     28  H3  UNL     1      12.560  51.767  94.885  1.00  0.00     0.210 HD
ENDBRANCH   5  27
BRANCH   3  29
HETATM   29  C5  UNL     1      11.835  56.169  96.299  1.00  0.00    -0.008 C
HETATM   30  C6  UNL     1      11.484  56.152  97.767  1.00  0.00     0.005 C
HETATM   31  C7  UNL     1      10.084  56.729  97.877  1.00  0.00     0.000 C
HETATM   32  C8  UNL     1       9.936  57.806  96.825  1.00  0.00     0.000 C
HETATM   33  C9  UNL     1      11.246  58.514  96.545  1.00  0.00     0.000 C
HETATM   34  C10 UNL     1      12.298  57.563  95.999  1.00  0.00     0.005 C
ENDBRANCH   3  29
BRANCH   4  35
HETATM   35  O2  UNL     1      12.923  52.716  96.381  1.00  0.00    -0.383 OA
BRANCH  35  36
HETATM   36  C12 UNL     1      13.682  52.743  97.473  1.00  0.00     0.173 C
BRANCH  36  37
HETATM   37  C13 UNL     1      15.116  52.371  97.081  1.00  0.00     0.013 C
HETATM   38  C14 UNL     1      15.146  51.271  96.077  1.00  0.00     0.034 C
HETATM   39  C15 UNL     1      16.036  50.164  96.557  1.00  0.00     0.232 C
HETATM   40  N1  UNL     1      17.361  50.578  96.905  1.00  0.00    -0.075 N
HETATM   41  C16 UNL     1      17.317  51.644  97.863  1.00  0.00     0.232 C
ATOM     42  H12 UNL     1      17.929  49.797  97.233  1.00  0.00     0.277 HD
ATOM     43  H11 UNL     1      17.909  50.830  96.082  1.00  0.00     0.277 HD
HETATM   44  C17 UNL     1      15.929  51.997  98.286  1.00  0.00     0.034 C
ENDBRANCH  36  37
ENDBRANCH  35  36
ENDBRANCH   4  35
TORSDOF 11
ENDMDL