MODEL 2
REMARK VINA RESULT: -7.273035025      1.209      1.385
REMARK  10 active torsions:
REMARK  status: ('A' for Active; 'I' for Inactive)
REMARK    1  A    between atoms: C2_2  and  C3_3
REMARK    2  A    between atoms: C3_3  and  C4_4
REMARK    3  A    between atoms: C4_4  and  C5_5
REMARK    4  A    between atoms: C6_6  and  C7_7
REMARK    5  A    between atoms: C8_8  and  C9_9
REMARK    6  A    between atoms: C15_16  and  O2_17
REMARK    7  A    between atoms: C18_21  and  O3_22
REMARK    8  A    between atoms: N1_31  and  C24_32
REMARK    9  A    between atoms: C24_32  and  C25_33
REMARK   10  A    between atoms: C28_36  and  O6_37
ROOT
HETATM    1  C9  UNL     1      13.575  54.284  88.773  1.00  0.00     0.046 A
HETATM    2  C10 UNL     1      13.428  55.515  89.610  1.00  0.00     0.050 A
HETATM    3  C11 UNL     1      12.897  54.287  90.161  1.00  0.00     0.076 A
HETATM    4  O1  UNL     1      13.621  53.593  91.088  1.00  0.00    -0.365 OA
HETATM    5  C12 UNL     1      12.865  53.220  92.235  1.00  0.00     0.204 C
HETATM    6  C13 UNL     1      12.190  54.352  92.894  1.00  0.00     0.026 C
HETATM    7  C14 UNL     1      10.722  54.501  92.543  1.00  0.00    -0.021 C
HETATM    8  C15 UNL     1      10.593  54.745  91.049  1.00  0.00     0.156 C
HETATM    9  C16 UNL     1      11.451  53.900  90.188  1.00  0.00     0.057 C
HETATM   10  C17 UNL     1      11.307  52.424  90.446  1.00  0.00     0.054 C
HETATM   11  C18 UNL     1      11.994  52.114  91.751  1.00  0.00     0.118 C
HETATM   12  C19 UNL     1      11.112  51.460  92.774  1.00  0.00     0.199 C
HETATM   13  O4  UNL     1      11.930  50.717  93.634  1.00  0.00    -0.310 OA
HETATM   14  C20 UNL     1      12.211  50.610  94.915  1.00  0.00     0.259 C
HETATM   15  O5  UNL     1      11.630  49.794  95.698  1.00  0.00    -0.265 OA
HETATM   16  C21 UNL     1      13.249  51.441  95.580  1.00  0.00     0.112 C
HETATM   17  C22 UNL     1      12.787  52.830  95.937  1.00  0.00     0.025 C
HETATM   18  C23 UNL     1      13.343  53.911  95.032  1.00  0.00     0.096 C
HETATM   19  N1  UNL     1      12.400  54.616  94.258  1.00  0.00    -0.284 NA
HETATM   20  C28 UNL     1       9.996  52.198  93.356  1.00  0.00     0.163 C
HETATM   21  C29 UNL     1       9.746  53.604  93.136  1.00  0.00     0.008 C
HETATM   22  C30 UNL     1       8.441  53.768  92.309  1.00  0.00     0.022 C
HETATM   23  C31 UNL     1       9.225  54.213  94.467  1.00  0.00     0.022 C
ENDROOT
BRANCH   1  24
HETATM   24  C8  UNL     1      12.698  54.162  87.585  1.00  0.00    -0.019 C
HETATM   25  C7  UNL     1      13.055  54.110  86.344  1.00  0.00    -0.004 C
BRANCH  25  26
HETATM   26  C6  UNL     1      14.412  54.158  85.816  1.00  0.00    -0.004 C
HETATM   27  C5  UNL     1      14.798  53.472  84.766  1.00  0.00    -0.026 C
BRANCH  27  28
HETATM   28  C4  UNL     1      16.198  53.584  84.301  1.00  0.00     0.031 C
BRANCH  28  29
HETATM   29  C3  UNL     1      16.460  52.482  83.299  1.00  0.00     0.030 C
BRANCH  29  30
HETATM   30  C2  UNL     1      15.615  52.763  82.113  1.00  0.00    -0.037 C
HETATM   31  C1  UNL     1      16.144  52.690  80.902  1.00  0.00     0.007 C
ENDBRANCH  29  30
ENDBRANCH  28  29
ENDBRANCH  27  28
ENDBRANCH  25  26
ENDBRANCH   1  24
BRANCH   8  32
HETATM   32  O2  UNL     1      10.947  56.085  90.729  1.00  0.00    -0.391 OA
ATOM     33  H2  UNL     1      11.014  56.197  89.788  1.00  0.00     0.210 HD
ENDBRANCH   8  32
BRANCH  11  34
HETATM   34  O3  UNL     1      12.900  51.057  91.418  1.00  0.00    -0.384 OA
ATOM     35  H3  UNL     1      12.537  50.667  90.632  1.00  0.00     0.210 HD
ENDBRANCH  11  34
BRANCH  19  36
HETATM   36  C24 UNL     1      12.535  56.063  94.525  1.00  0.00     0.100 C
BRANCH  36  37
HETATM   37  C25 UNL     1      12.276  56.393  95.981  1.00  0.00    -0.001 A
HETATM   38  C26 UNL     1      12.090  57.868  96.241  1.00  0.00     0.006 A
HETATM   39  C27 UNL     1      10.922  56.991  96.331  1.00  0.00     0.006 A
ENDBRANCH  36  37
ENDBRANCH  19  36
BRANCH  20  40
HETATM   40  O6  UNL     1       8.780  51.484  93.122  1.00  0.00    -0.392 OA
ATOM     41  H6  UNL     1       8.040  52.048  93.316  1.00  0.00     0.210 HD
ENDBRANCH  20  40
TORSDOF 10
ENDMDL