MODEL 5
REMARK VINA RESULT: -6.814023824      4.148      8.007
REMARK  10 active torsions:
REMARK  status: ('A' for Active; 'I' for Inactive)
REMARK    1  A    between atoms: C2_2  and  C3_3
REMARK    2  A    between atoms: C2_2  and  N7_32
REMARK    3  A    between atoms: C3_3  and  N1_4
REMARK    4  A    between atoms: N1_4  and  C4_6
REMARK    5  A    between atoms: C4_6  and  O1_7
REMARK    6  A    between atoms: C4_6  and  C5_9
REMARK    7  A    between atoms: C6_10  and  C7_11
REMARK    8  A    between atoms: C8_17  and  N3_18
REMARK    9  A    between atoms: N3_18  and  N4_20
REMARK       I    between atoms: N4_20  and  C9_22
REMARK   10  A    between atoms: C9_22  and  C10_24
ROOT
HETATM    1  C5  UNL     1      27.884   7.899  10.389  1.00  0.00     0.088 A
HETATM    2  C6  UNL     1      28.812   8.019   9.390  1.00  0.00     0.150 A
HETATM    3  N2  UNL     1      29.173   9.268   8.936  1.00  0.00    -0.184 N
ATOM      4  H2  UNL     1      29.869   9.320   8.192  1.00  0.00     0.184 HD
HETATM    5  C8  UNL     1      28.683  10.403   9.394  1.00  0.00     0.698 A
HETATM    6  N5  UNL     1      27.769  10.308  10.373  1.00  0.00    -0.176 N
ATOM      7  H5  UNL     1      27.363  11.162  10.756  1.00  0.00     0.185 HD
HETATM    8  C14 UNL     1      27.379   9.139  10.856  1.00  0.00     0.148 A
HETATM    9  N6  UNL     1      26.420   9.126  11.899  1.00  0.00    -0.081 NA
ENDROOT
BRANCH   1  10
HETATM   10  C4  UNL     1      27.356   6.709  10.956  1.00  0.00     0.151 C
BRANCH  10  11
HETATM   11  N1  UNL     1      26.316   5.868  10.664  1.00  0.00    -0.368 N
ATOM     12  H1  UNL     1      25.774   5.961   9.806  1.00  0.00     0.161 HD
BRANCH  11  13
HETATM   13  C3  UNL     1      26.022   4.808  11.669  1.00  0.00     0.146 C
BRANCH  13  14
HETATM   14  C2  UNL     1      24.668   5.064  12.243  1.00  0.00     0.092 C
HETATM   15  C1  UNL     1      23.685   4.006  11.806  1.00  0.00     0.033 C
BRANCH  14  16
HETATM   16  N7  UNL     1      24.730   5.250  13.647  1.00  0.00    -0.407 N
HETATM   17  C15 UNL     1      25.181   6.544  14.062  1.00  0.00     0.117 C
HETATM   18  C16 UNL     1      24.134   7.487  14.532  1.00  0.00     0.019 C
HETATM   19  C17 UNL     1      22.992   6.827  15.269  1.00  0.00     0.003 C
HETATM   20  C18 UNL     1      23.472   5.457  15.688  1.00  0.00     0.019 C
HETATM   21  C19 UNL     1      23.675   4.671  14.404  1.00  0.00     0.117 C
ENDBRANCH  14  16
ENDBRANCH  13  14
ENDBRANCH  11  13
ENDBRANCH  10  11
BRANCH  10  22
HETATM   22  O1  UNL     1      28.029   6.302  12.022  1.00  0.00    -0.346 OA
ATOM     23  H1  UNL     1      28.857   6.760  12.108  1.00  0.00     0.219 HD
ENDBRANCH  10  22
ENDBRANCH   1  10
BRANCH   2  24
HETATM   24  C7  UNL     1      29.431   6.859   8.714  1.00  0.00     0.434 C
HETATM   25  F1  UNL     1      28.488   6.064   8.115  1.00  0.00    -0.165 F
HETATM   26  F2  UNL     1      30.422   6.240   9.409  1.00  0.00    -0.165 F
HETATM   27  F3  UNL     1      30.119   7.424   7.578  1.00  0.00    -0.165 F
ENDBRANCH   2  24
BRANCH   5  28
HETATM   28  N3  UNL     1      29.051  11.538   8.927  1.00  0.00    -0.129 N
ATOM     29  H3  UNL     1      30.033  11.815   8.942  1.00  0.00     0.205 HD
BRANCH  28  30
HETATM   30  N4  UNL     1      28.074  12.389   8.394  1.00  0.00    -0.255 N
HETATM   31  C9  UNL     1      28.349  13.714   8.020  1.00  0.00     0.244 C
HETATM   32  O2  UNL     1      29.502  14.177   8.145  1.00  0.00    -0.271 OA
ATOM     33  H4  UNL     1      27.126  12.033   8.274  1.00  0.00     0.190 HD
BRANCH  31  34
HETATM   34  C10 UNL     1      27.241  14.532   7.485  1.00  0.00     0.032 C
HETATM   35  C11 UNL     1      26.414  13.642   6.574  1.00  0.00     0.025 C
HETATM   36  C12 UNL     1      27.868  15.648   6.648  1.00  0.00     0.025 C
HETATM   37  C13 UNL     1      26.392  15.106   8.573  1.00  0.00     0.025 C
ENDBRANCH  31  34
ENDBRANCH  28  30
ENDBRANCH   5  28
TORSDOF 10
ENDMDL