MODEL 1
REMARK VINA RESULT: -7.635010052      0.000      0.000
REMARK  7 active torsions:
REMARK  status: ('A' for Active; 'I' for Inactive)
REMARK    1  A    between atoms: O1_2  and  N1_3
REMARK       I    between atoms: N1_3  and  C2_4
REMARK    2  A    between atoms: C2_4  and  C3_6
REMARK    3  A    between atoms: C5_8  and  N2_9
REMARK    4  A    between atoms: N2_9  and  C6_11
REMARK    5  A    between atoms: C12_18  and  N3_19
REMARK    6  A    between atoms: N3_19  and  C14_21
REMARK    7  A    between atoms: C14_21  and  C15_22
ROOT
HETATM    1  C6  UNL     1      25.747   5.642  11.717  1.00  0.00     0.107 C
HETATM    2  C7  UNL     1      26.883   4.863  11.121  1.00  0.00     0.193 C
HETATM    3  O3  UNL     1      28.028   5.521  11.598  1.00  0.00    -0.381 OA
HETATM    4  C8  UNL     1      28.098   6.823  11.243  1.00  0.00     0.159 C
HETATM    5  C9  UNL     1      26.997   7.473  10.538  1.00  0.00     0.019 C
HETATM    6  C10 UNL     1      27.364   7.561   9.068  1.00  0.00     0.009 C
HETATM    7  C11 UNL     1      28.815   7.191   8.958  1.00  0.00     0.039 C
HETATM    8  C12 UNL     1      29.327   6.972  10.343  1.00  0.00     0.251 C
HETATM    9  C16 UNL     1      25.640   6.831  10.685  1.00  0.00     0.034 C
ENDROOT
BRANCH   1  10
HETATM   10  N2  UNL     1      24.516   5.071  11.963  1.00  0.00    -0.369 N
ATOM     11  H2  UNL     1      24.017   4.754  11.132  1.00  0.00     0.161 HD
BRANCH  10  12
HETATM   12  C5  UNL     1      23.905   4.877  13.061  1.00  0.00     0.104 A
HETATM   13  C4  UNL     1      24.020   5.849  14.064  1.00  0.00     0.084 A
HETATM   14  C3  UNL     1      23.431   5.603  15.248  1.00  0.00     0.122 A
HETATM   15  N5  UNL     1      22.740   4.495  15.498  1.00  0.00    -0.347 N
HETATM   16  C17 UNL     1      22.606   3.542  14.538  1.00  0.00     0.182 A
ATOM     17  H5  UNL     1      22.309   4.360  16.414  1.00  0.00     0.167 HD
HETATM   18  N4  UNL     1      23.202   3.769  13.331  1.00  0.00    -0.339 N
ATOM     19  H4  UNL     1      23.109   3.062  12.601  1.00  0.00     0.168 HD
BRANCH  14  20
HETATM   20  C2  UNL     1      23.858   6.512  16.475  1.00  0.00     0.370 C
HETATM   21  N1  UNL     1      23.847   7.816  16.040  1.00  0.00    -0.235 NA
HETATM   22  O2  UNL     1      24.010   5.864  17.415  1.00  0.00    -0.247 OA
BRANCH  21  23
HETATM   23  O1  UNL     1      23.858   9.045  15.793  1.00  0.00    -0.211 OA
HETATM   24  C1  UNL     1      24.946   9.523  15.065  1.00  0.00     0.255 C
ENDBRANCH  21  23
ENDBRANCH  14  20
ENDBRANCH  10  12
ENDBRANCH   1  10
BRANCH   8  25
HETATM   25  N3  UNL     1      30.240   8.002  10.825  1.00  0.00     0.095 N
HETATM   26  C13 UNL     1      30.652   8.774   9.639  1.00  0.00     0.310 C
BRANCH  25  27
HETATM   27  C14 UNL     1      31.436   7.398  11.415  1.00  0.00     0.331 C
BRANCH  27  28
HETATM   28  C15 UNL     1      31.868   8.120  12.675  1.00  0.00     0.214 C
HETATM   29 CL1  UNL     1      33.328   9.067  12.353  1.00  0.00    -0.082 Cl
HETATM   30 CL2  UNL     1      32.341   6.883  13.878  1.00  0.00    -0.082 Cl
HETATM   31 CL3  UNL     1      30.517   9.102  13.324  1.00  0.00    -0.082 Cl
ENDBRANCH  27  28
ENDBRANCH  25  27
ENDBRANCH   8  25
TORSDOF 7
ENDMDL