MODEL 3
REMARK VINA RESULT: -7.566930512      3.330      5.107
REMARK  8 active torsions:
REMARK  status: ('A' for Active; 'I' for Inactive)
REMARK    1  A    between atoms: C2_2  and  C4_4
REMARK    2  A    between atoms: C4_4  and  N1_5
REMARK    3  A    between atoms: C4_4  and  C20_33
REMARK    4  A    between atoms: N1_5  and  C5_7
REMARK    5  A    between atoms: C11_15  and  C12_16
REMARK       I    between atoms: C12_16  and  N3_18
REMARK    6  A    between atoms: N3_18  and  C13_20
REMARK    7  A    between atoms: C13_20  and  C14_21
REMARK    8  A    between atoms: C18_27  and  C19_28
ROOT
HETATM    1  C14 UNL     1      23.316  14.345  16.347  1.00  0.00     0.143 C
HETATM    2  C15 UNL     1      22.833  14.073  14.995  1.00  0.00     0.060 C
HETATM    3  N4  UNL     1      22.450  13.873  13.914  1.00  0.00    -0.197 NA
ENDROOT
BRANCH   1   4
HETATM    4  C13 UNL     1      23.769  13.049  16.969  1.00  0.00     0.136 C
BRANCH   4   5
HETATM    5  N3  UNL     1      23.735  11.957  16.030  1.00  0.00    -0.360 N
HETATM    6  C12 UNL     1      24.925  11.321  15.640  1.00  0.00     0.223 C
HETATM    7  O1  UNL     1      26.016  11.727  16.130  1.00  0.00    -0.273 OA
ATOM      8  H3  UNL     1      22.843  11.644  15.646  1.00  0.00     0.162 HD
BRANCH   6   9
HETATM    9  C11 UNL     1      24.914  10.176  14.659  1.00  0.00     0.100 C
HETATM   10  C10 UNL     1      25.142   8.919  15.444  1.00  0.00     0.043 C
HETATM   11  C9  UNL     1      25.552   7.749  14.601  1.00  0.00     0.131 C
HETATM   12  C6  UNL     1      24.547   6.647  14.573  1.00  0.00     0.061 C
HETATM   13  N6  UNL     1      25.720   8.098  13.210  1.00  0.00    -0.196 N
HETATM   14  N2  UNL     1      24.436   6.280  13.194  1.00  0.00    -0.216 N
HETATM   15  C7  UNL     1      23.177   7.016  15.053  1.00  0.00     0.041 C
HETATM   16  C8  UNL     1      25.025   5.480  15.424  1.00  0.00     0.041 C
HETATM   17  C5  UNL     1      25.094   7.074  12.425  1.00  0.00     0.678 C
ATOM     18  H2  UNL     1      23.897   5.480  12.860  1.00  0.00     0.178 HD
HETATM   19  C18 UNL     1      26.399   9.287  12.818  1.00  0.00     0.228 C
HETATM   20  C16 UNL     1      25.930  10.480  13.612  1.00  0.00     0.138 C
HETATM   21  C17 UNL     1      25.337  11.444  12.685  1.00  0.00     0.067 C
HETATM   22  N5  UNL     1      24.885  12.217  11.946  1.00  0.00    -0.197 NA
BRANCH  17  23
HETATM   23  N1  UNL     1      25.144   6.924  11.015  1.00  0.00    -0.189 N
ATOM     24  H1  UNL     1      24.365   7.321  10.489  1.00  0.00     0.184 HD
BRANCH  23  25
HETATM   25  C4  UNL     1      26.157   6.281  10.254  1.00  0.00     0.106 C
BRANCH  25  26
HETATM   26  C2  UNL     1      27.329   7.107   9.841  1.00  0.00     0.035 C
HETATM   27  C1  UNL     1      28.073   6.402   8.756  1.00  0.00     0.016 C
HETATM   28  C3  UNL     1      27.073   8.510   9.446  1.00  0.00     0.016 C
ENDBRANCH  25  26
BRANCH  25  29
HETATM   29  C20 UNL     1      26.567   4.944  10.742  1.00  0.00     0.223 C
HETATM   30  O2  UNL     1      27.542   4.830  11.494  1.00  0.00    -0.643 OA
HETATM   31  O3  UNL     1      25.854   3.838  10.351  1.00  0.00    -0.643 OA
ENDBRANCH  25  29
ENDBRANCH  23  25
ENDBRANCH  17  23
BRANCH  19  32
HETATM   32  C19 UNL     1      27.896   9.162  13.094  1.00  0.00     0.409 C
HETATM   33  F1  UNL     1      28.232   7.803  13.006  1.00  0.00    -0.169 F
HETATM   34  F2  UNL     1      28.253   9.550  14.348  1.00  0.00    -0.169 F
HETATM   35  F3  UNL     1      28.647   9.772  12.114  1.00  0.00    -0.169 F
ENDBRANCH  19  32
ENDBRANCH   6   9
ENDBRANCH   4   5
ENDBRANCH   1   4
TORSDOF 8
ENDMDL