MODEL 1
REMARK VINA RESULT: -7.889447522      0.000      0.000
REMARK  8 active torsions:
REMARK  status: ('A' for Active; 'I' for Inactive)
REMARK    1  A    between atoms: C2_2  and  C3_3
REMARK    2  A    between atoms: C5_9  and  O1_10
REMARK    3  A    between atoms: C5_9  and  N3_12
REMARK    4  A    between atoms: N3_12  and  C6_13
REMARK    5  A    between atoms: N3_12  and  C11_21
REMARK       I    between atoms: N6_28  and  C16_29
REMARK    6  A    between atoms: C16_29  and  C17_31
REMARK    7  A    between atoms: C17_31  and  C18_32
REMARK    8  A    between atoms: C18_32  and  C19_33
ROOT
HETATM    1  C3  UNL     1      24.807   8.715  13.676  1.00  0.00     0.124 A
HETATM    2  N1  UNL     1      24.442   8.867  12.336  1.00  0.00    -0.285 N
ATOM      3  H1  UNL     1      24.037   9.700  11.906  1.00  0.00     0.188 HD
HETATM    4  N2  UNL     1      24.718   7.735  11.738  1.00  0.00    -0.281 N
ATOM      5  H2  UNL     1      24.547   7.567  10.747  1.00  0.00     0.188 HD
HETATM    6  C4  UNL     1      25.242   6.827  12.553  1.00  0.00     0.173 A
HETATM    7  C5  UNL     1      25.756   5.509  12.327  1.00  0.00     0.185 C
HETATM    8  N5  UNL     1      25.271   7.510  13.755  1.00  0.00    -0.325 N
ATOM      9  H5  UNL     1      25.623   7.102  14.621  1.00  0.00     0.169 HD
ENDROOT
BRANCH   7  10
HETATM   10  O1  UNL     1      26.000   4.866  13.445  1.00  0.00    -0.343 OA
ATOM     11  H1  UNL     1      26.571   5.352  14.027  1.00  0.00     0.219 HD
ENDBRANCH   7  10
BRANCH   7  12
HETATM   12  N3  UNL     1      26.048   4.756  11.170  1.00  0.00    -0.349 N
BRANCH  12  13
HETATM   13  C6  UNL     1      25.118   3.697  10.851  1.00  0.00     0.090 C
HETATM   14  C7  UNL     1      23.712   4.337  10.886  1.00  0.00     0.052 C
HETATM   15  C8  UNL     1      22.681   3.240  10.902  1.00  0.00     0.234 C
HETATM   16  N4  UNL     1      22.848   2.368   9.748  1.00  0.00    -0.075 N
HETATM   17  C9  UNL     1      24.144   1.740   9.780  1.00  0.00     0.234 C
ATOM     18  H42 UNL     1      22.095   1.684   9.676  1.00  0.00     0.277 HD
ATOM     19  H41 UNL     1      22.686   2.863   8.871  1.00  0.00     0.277 HD
HETATM   20  C10 UNL     1      25.216   2.863   9.681  1.00  0.00     0.052 C
ENDBRANCH  12  13
BRANCH  12  21
HETATM   21  C11 UNL     1      27.246   5.015  10.450  1.00  0.00     0.087 A
HETATM   22  C12 UNL     1      28.319   5.930  10.774  1.00  0.00     0.027 A
HETATM   23  C13 UNL     1      27.304   6.362   9.681  1.00  0.00     0.027 A
ENDBRANCH  12  21
ENDBRANCH   7  12
BRANCH   1  24
HETATM   24  C2  UNL     1      24.600   9.874  14.568  1.00  0.00     0.108 C
HETATM   25  C1  UNL     1      23.260  10.550  14.142  1.00  0.00     0.044 C
HETATM   26  C14 UNL     1      24.411   9.461  16.035  1.00  0.00     0.058 C
HETATM   27  C15 UNL     1      25.213  10.542  16.760  1.00  0.00     0.150 C
HETATM   28  N6  UNL     1      25.179  11.605  15.764  1.00  0.00    -0.264 N
HETATM   29  C16 UNL     1      24.787  12.914  15.985  1.00  0.00     0.235 C
HETATM   30  N7  UNL     1      25.591  10.900  14.593  1.00  0.00    -0.118 NA
HETATM   31  O2  UNL     1      24.397  13.308  17.158  1.00  0.00    -0.272 OA
BRANCH  29  32
HETATM   32  C17 UNL     1      24.748  14.019  14.976  1.00  0.00     0.113 C
BRANCH  32  33
HETATM   33  C18 UNL     1      23.305  14.216  14.497  1.00  0.00     0.126 C
BRANCH  33  34
HETATM   34  C19 UNL     1      23.267  13.997  13.024  1.00  0.00     0.388 C
HETATM   35  F1  UNL     1      23.279  15.252  12.394  1.00  0.00    -0.171 F
HETATM   36  F2  UNL     1      24.459  13.384  12.661  1.00  0.00    -0.171 F
HETATM   37  F3  UNL     1      22.185  13.278  12.586  1.00  0.00    -0.171 F
ENDBRANCH  33  34
ENDBRANCH  32  33
ENDBRANCH  29  32
ENDBRANCH   1  24
TORSDOF 8
ENDMDL