MODEL 4
REMARK VINA RESULT: -6.764394111      3.809      6.192
REMARK  9 active torsions:
REMARK  status: ('A' for Active; 'I' for Inactive)
REMARK    1  A    between atoms: C3_4  and  C4_5
REMARK       I    between atoms: C4_5  and  N1_7
REMARK    2  A    between atoms: N1_7  and  C5_9
REMARK    3  A    between atoms: C5_9  and  C13_26
REMARK    4  A    between atoms: N2_10  and  N3_12
REMARK    5  A    between atoms: N3_12  and  C6_14
REMARK    6  A    between atoms: C6_14  and  N4_16
REMARK    7  A    between atoms: N4_16  and  C7_18
REMARK    8  A    between atoms: C7_18  and  C8_19
REMARK    9  A    between atoms: C8_19  and  N5_20
ROOT
HETATM    1  C5  UNL     1      24.490   4.638  11.871  1.00  0.00     0.165 C
HETATM    2  N2  UNL     1      24.414   4.741  13.161  1.00  0.00    -0.282 N
ATOM      3  H2  UNL     1      25.134   5.302  13.617  1.00  0.00     0.188 HD
ENDROOT
BRANCH   1   4
HETATM    4  N1  UNL     1      25.573   5.320  11.204  1.00  0.00    -0.306 N
HETATM    5  C4  UNL     1      25.643   6.660  11.002  1.00  0.00     0.265 C
HETATM    6  O1  UNL     1      24.706   7.436  11.413  1.00  0.00    -0.267 OA
ATOM      7  H1  UNL     1      26.344   4.751  10.856  1.00  0.00     0.170 HD
BRANCH   5   8
HETATM    8  C3  UNL     1      26.730   7.400  10.328  1.00  0.00     0.095 A
HETATM    9  S1  UNL     1      27.055   9.093  10.535  1.00  0.00    -0.087 SA
HETATM   10  C2  UNL     1      28.387   9.254   9.502  1.00  0.00    -0.013 A
HETATM   11  C1  UNL     1      29.198  10.486   9.187  1.00  0.00     0.057 C
HETATM   12  C15 UNL     1      28.554   7.992   9.017  1.00  0.00    -0.026 A
HETATM   13  C14 UNL     1      27.697   7.033   9.443  1.00  0.00     0.063 A
HETATM   14  C16 UNL     1      29.681   7.703   8.025  1.00  0.00     0.051 C
HETATM   15 CL1  UNL     1      27.847   5.335   8.847  1.00  0.00    -0.082 Cl
ENDBRANCH   5   8
ENDBRANCH   1   4
BRANCH   1  16
HETATM   16  C13 UNL     1      23.472   3.843  11.167  1.00  0.00     0.421 C
HETATM   17  F1  UNL     1      22.850   4.516  10.123  1.00  0.00    -0.206 F
HETATM   18  F2  UNL     1      24.149   2.724  10.634  1.00  0.00    -0.206 F
ENDBRANCH   1  16
BRANCH   2  19
HETATM   19  N3  UNL     1      23.480   4.183  13.967  1.00  0.00    -0.275 N
ATOM     20  H3  UNL     1      23.005   3.353  13.613  1.00  0.00     0.189 HD
BRANCH  19  21
HETATM   21  C6  UNL     1      23.095   4.640  15.260  1.00  0.00     0.186 C
HETATM   22  S2  UNL     1      21.684   4.027  15.891  1.00  0.00    -0.040 SA
BRANCH  21  23
HETATM   23  N4  UNL     1      23.790   5.555  16.051  1.00  0.00    -0.364 N
ATOM     24  H4  UNL     1      24.528   5.190  16.653  1.00  0.00     0.162 HD
BRANCH  23  25
HETATM   25  C7  UNL     1      23.547   6.976  16.087  1.00  0.00     0.152 C
BRANCH  25  26
HETATM   26  C8  UNL     1      24.097   7.667  14.852  1.00  0.00     0.292 C
BRANCH  26  27
HETATM   27  N5  UNL     1      25.421   8.168  15.054  1.00  0.00     0.094 N
HETATM   28  C9  UNL     1      26.429   7.251  14.578  1.00  0.00     0.298 C
HETATM   29  C10 UNL     1      27.696   7.941  14.171  1.00  0.00     0.198 C
HETATM   30  O2  UNL     1      27.892   9.053  14.978  1.00  0.00    -0.388 OA
HETATM   31  C11 UNL     1      26.949  10.045  14.697  1.00  0.00     0.198 C
HETATM   32  C12 UNL     1      25.595   9.429  14.400  1.00  0.00     0.298 C
ENDBRANCH  26  27
ENDBRANCH  25  26
ENDBRANCH  23  25
ENDBRANCH  21  23
ENDBRANCH  19  21
ENDBRANCH   2  19
TORSDOF 9
ENDMDL