MODEL 4
REMARK VINA RESULT: -7.679767199      1.514      2.120
REMARK  10 active torsions:
REMARK  status: ('A' for Active; 'I' for Inactive)
REMARK    1  A    between atoms: C3_3  and  C4_4
REMARK    2  A    between atoms: C4_4  and  C5_5
REMARK    3  A    between atoms: C5_5  and  N1_6
REMARK    4  A    between atoms: C6_7  and  O1_8
REMARK    5  A    between atoms: C7_10  and  C8_11
REMARK    6  A    between atoms: C8_11  and  C9_12
REMARK    7  A    between atoms: C13_19  and  O2_20
REMARK    8  A    between atoms: C14_22  and  C15_23
REMARK    9  A    between atoms: C15_23  and  C16_24
REMARK   10  A    between atoms: C16_24  and  C17_25
ROOT
HETATM    1  C1  UNL     1      29.870  10.505  10.098  1.00  0.00     0.012 C
HETATM    2  C2  UNL     1      30.784   9.891  10.589  1.00  0.00    -0.117 C
HETATM    3  C3  UNL     1      31.876   9.139  11.203  1.00  0.00     0.094 C
ENDROOT
BRANCH   3   4
HETATM    4  C4  UNL     1      31.528   8.453  12.469  1.00  0.00     0.032 C
BRANCH   4   5
HETATM    5  C5  UNL     1      31.060   7.043  12.396  1.00  0.00     0.137 C
BRANCH   5   6
HETATM    6  N1  UNL     1      29.795   6.877  11.701  1.00  0.00    -0.278 N
HETATM    7  C6  UNL     1      28.561   7.058  12.291  1.00  0.00     0.174 A
HETATM    8  C7  UNL     1      27.579   6.849  11.348  1.00  0.00     0.090 A
HETATM    9  N2  UNL     1      28.184   6.542  10.194  1.00  0.00    -0.300 N
HETATM   10  C18 UNL     1      27.538   6.248   8.907  1.00  0.00     0.161 C
HETATM   11  C19 UNL     1      29.521   6.566  10.434  1.00  0.00     0.331 A
HETATM   12  O5  UNL     1      30.348   6.317   9.517  1.00  0.00    -0.246 OA
BRANCH   7  13
HETATM   13  O1  UNL     1      28.387   7.397  13.627  1.00  0.00    -0.344 OA
ATOM     14  H1  UNL     1      27.809   8.090  13.925  1.00  0.00     0.219 HD
ENDBRANCH   7  13
BRANCH   8  15
HETATM   15  C8  UNL     1      26.163   7.044  11.605  1.00  0.00     0.048 C
BRANCH  15  16
HETATM   16  C9  UNL     1      25.388   6.683  12.582  1.00  0.00     0.002 A
HETATM   17  C10 UNL     1      24.995   7.597  13.534  1.00  0.00     0.068 A
HETATM   18 CL1  UNL     1      25.493   9.298  13.509  1.00  0.00    -0.082 Cl
HETATM   19  C11 UNL     1      24.168   7.275  14.606  1.00  0.00     0.081 A
HETATM   20 CL2  UNL     1      23.704   8.516  15.794  1.00  0.00    -0.081 Cl
HETATM   21  C12 UNL     1      23.726   5.997  14.722  1.00  0.00     0.091 A
HETATM   22 CL3  UNL     1      22.680   5.565  16.068  1.00  0.00    -0.079 Cl
HETATM   23  C13 UNL     1      24.119   5.050  13.759  1.00  0.00     0.100 A
HETATM   24  C14 UNL     1      24.928   5.354  12.704  1.00  0.00     0.008 A
BRANCH  23  25
HETATM   25  O2  UNL     1      23.595   3.776  13.995  1.00  0.00    -0.358 OA
ATOM     26  H2  UNL     1      24.160   3.232  14.531  1.00  0.00     0.217 HD
ENDBRANCH  23  25
BRANCH  24  27
HETATM   27  C15 UNL     1      25.264   4.447  11.832  1.00  0.00    -0.001 C
BRANCH  27  28
HETATM   28  C16 UNL     1      24.580   4.109  10.549  1.00  0.00     0.141 C
BRANCH  28  29
HETATM   29  C17 UNL     1      23.134   3.847  10.722  1.00  0.00     0.176 C
HETATM   30  O3  UNL     1      22.317   4.654  10.219  1.00  0.00    -0.648 OA
HETATM   31  O4  UNL     1      22.703   2.736  11.423  1.00  0.00    -0.648 OA
ENDBRANCH  28  29
ENDBRANCH  27  28
ENDBRANCH  24  27
ENDBRANCH  15  16
ENDBRANCH   8  15
ENDBRANCH   5   6
ENDBRANCH   4   5
ENDBRANCH   3   4
TORSDOF 10
ENDMDL