MODEL 1
REMARK VINA RESULT: -7.255423576      0.000      0.000
REMARK  8 active torsions:
REMARK  status: ('A' for Active; 'I' for Inactive)
REMARK       I    between atoms: C1_2  and  N1_3
REMARK       I    between atoms: C1_2  and  N3_21
REMARK    1  A    between atoms: N1_3  and  C2_4
REMARK    2  A    between atoms: C2_4  and  C3_5
REMARK    3  A    between atoms: C3_5  and  O2_6
REMARK    4  A    between atoms: N2_10  and  C6_11
REMARK    5  A    between atoms: C6_11  and  C7_12
REMARK    6  A    between atoms: C7_12  and  C8_13
REMARK    7  A    between atoms: N3_21  and  C15_23
REMARK    8  A    between atoms: C15_23  and  C16_24
ROOT
HETATM    1  C3  UNL     1      24.538   8.167  15.074  1.00  0.00     0.105 C
HETATM    2  C4  UNL     1      25.723   7.211  15.020  1.00  0.00     0.064 C
HETATM    3  C5  UNL     1      25.386   5.882  15.641  1.00  0.00     0.120 C
HETATM    4  N2  UNL     1      24.047   5.443  15.448  1.00  0.00    -0.412 N
HETATM    5  C13 UNL     1      23.009   6.367  15.583  1.00  0.00     0.120 C
HETATM    6  C14 UNL     1      23.253   7.536  14.620  1.00  0.00     0.064 C
ENDROOT
BRANCH   1   7
HETATM    7  C2  UNL     1      24.804   9.374  14.200  1.00  0.00     0.198 C
BRANCH   7   8
HETATM    8  N1  UNL     1      25.868   9.217  13.299  1.00  0.00    -0.366 NA
HETATM    9  C1  UNL     1      26.875   9.070  12.446  1.00  0.00     0.394 C
HETATM   10  O1  UNL     1      27.552  10.028  11.923  1.00  0.00    -0.230 OA
HETATM   11  N3  UNL     1      27.374   7.788  11.968  1.00  0.00    -0.303 N
ATOM     12  H3  UNL     1      26.916   6.935  12.290  1.00  0.00     0.167 HD
BRANCH  11  13
HETATM   13  C15 UNL     1      28.475   7.672  11.069  1.00  0.00     0.204 C
HETATM   14  C17 UNL     1      29.819   7.931  11.712  1.00  0.00     0.219 C
HETATM   15  O4  UNL     1      30.345   9.115  11.287  1.00  0.00    -0.387 OA
HETATM   16  C18 UNL     1      30.962   9.116  10.064  1.00  0.00     0.178 C
HETATM   17  C19 UNL     1      29.970   9.003   8.918  1.00  0.00     0.103 C
HETATM   18  S1  UNL     1      28.326   8.745   9.622  1.00  0.00    -0.124 SA
BRANCH  13  19
HETATM   19  C16 UNL     1      28.457   6.229  10.508  1.00  0.00     0.424 C
HETATM   20  F1  UNL     1      28.045   5.341  11.485  1.00  0.00    -0.167 F
HETATM   21  F2  UNL     1      29.747   5.926  10.125  1.00  0.00    -0.167 F
HETATM   22  F3  UNL     1      27.657   6.191   9.392  1.00  0.00    -0.167 F
ENDBRANCH  13  19
ENDBRANCH  11  13
ENDBRANCH   7   8
ENDBRANCH   1   7
BRANCH   1  23
HETATM   23  O2  UNL     1      24.383   8.541  16.413  1.00  0.00    -0.383 OA
ATOM     24  H2  UNL     1      24.166   7.791  16.953  1.00  0.00     0.211 HD
ENDBRANCH   1  23
BRANCH   4  25
HETATM   25  C6  UNL     1      23.908   4.347  14.558  1.00  0.00     0.117 C
BRANCH  25  26
HETATM   26  C7  UNL     1      24.783   4.477  13.356  1.00  0.00     0.024 C
BRANCH  26  27
HETATM   27  C8  UNL     1      23.979   4.816  12.122  1.00  0.00    -0.009 C
HETATM   28  C9  UNL     1      24.881   5.020  10.941  1.00  0.00     0.031 C
HETATM   29  C10 UNL     1      25.283   3.657  10.384  1.00  0.00     0.168 C
HETATM   30  O3  UNL     1      24.213   3.121   9.658  1.00  0.00    -0.391 OA
HETATM   31  C11 UNL     1      23.001   3.497  10.250  1.00  0.00     0.168 C
HETATM   32  C12 UNL     1      23.133   3.575  11.758  1.00  0.00     0.031 C
ENDBRANCH  26  27
ENDBRANCH  25  26
ENDBRANCH   4  25
TORSDOF 8
ENDMDL