MODEL 1
REMARK VINA RESULT: -7.003658129      0.000      0.000
REMARK  9 active torsions:
REMARK  status: ('A' for Active; 'I' for Inactive)
REMARK    1  A    between atoms: C2_2  and  N1_5
REMARK    2  A    between atoms: C5_11  and  N4_12
REMARK    3  A    between atoms: N4_12  and  C6_14
REMARK    4  A    between atoms: C6_14  and  C7_15
REMARK    5  A    between atoms: N5_18  and  C10_19
REMARK    6  A    between atoms: C10_19  and  C11_20
REMARK       I    between atoms: C11_20  and  N6_22
REMARK    7  A    between atoms: N6_22  and  C12_24
REMARK    8  A    between atoms: C15_27  and  C16_29
REMARK    9  A    between atoms: C16_29  and  O2_30
ROOT
HETATM    1  C7  UNL     1      26.307   8.173  12.603  1.00  0.00     0.010 C
HETATM    2  C8  UNL     1      24.882   8.579  12.753  1.00  0.00     0.027 C
HETATM    3  C9  UNL     1      24.577   8.714  14.230  1.00  0.00     0.128 C
HETATM    4  N5  UNL     1      24.780   7.441  14.846  1.00  0.00    -0.365 N
HETATM    5  C19 UNL     1      26.067   6.888  14.750  1.00  0.00     0.064 C
HETATM    6  C20 UNL     1      26.745   7.013  13.421  1.00  0.00     0.051 C
ENDROOT
BRANCH   4   7
HETATM    7  C10 UNL     1      23.683   6.559  14.889  1.00  0.00     0.164 C
BRANCH   7   8
HETATM    8  C11 UNL     1      23.895   5.337  14.113  1.00  0.00     0.257 C
HETATM    9  O1  UNL     1      24.101   4.244  14.764  1.00  0.00    -0.267 OA
HETATM   10  N6  UNL     1      23.877   5.324  12.707  1.00  0.00    -0.352 N
ATOM     11  H6  UNL     1      23.708   6.178  12.175  1.00  0.00     0.163 HD
BRANCH  10  12
HETATM   12  C12 UNL     1      24.112   4.037  12.026  1.00  0.00     0.085 C
HETATM   13  C13 UNL     1      25.046   4.316  10.879  1.00  0.00     0.028 C
HETATM   14  C14 UNL     1      25.248   3.154   9.974  1.00  0.00     0.048 C
HETATM   15  C15 UNL     1      24.049   2.318   9.690  1.00  0.00     0.124 C
HETATM   16  F1  UNL     1      24.507   0.990   9.610  1.00  0.00    -0.241 F
HETATM   17  C17 UNL     1      22.986   2.313  10.732  1.00  0.00     0.048 C
HETATM   18  C18 UNL     1      22.788   3.595  11.469  1.00  0.00     0.028 C
BRANCH  15  19
HETATM   19  C16 UNL     1      23.482   2.594   8.289  1.00  0.00     0.207 C
BRANCH  19  20
HETATM   20  O2  UNL     1      24.421   2.454   7.301  1.00  0.00    -0.398 OA
ATOM     21  H2  UNL     1      24.364   1.616   6.857  1.00  0.00     0.209 HD
ENDBRANCH  19  20
ENDBRANCH  15  19
ENDBRANCH  10  12
ENDBRANCH   7   8
ENDBRANCH   4   7
BRANCH   1  22
HETATM   22  C6  UNL     1      27.284   9.346  12.767  1.00  0.00     0.143 C
BRANCH  22  23
HETATM   23  N4  UNL     1      28.509   8.981  12.087  1.00  0.00    -0.224 N
ATOM     24  H4  UNL     1      29.131   8.324  12.558  1.00  0.00     0.177 HD
BRANCH  23  25
HETATM   25  C5  UNL     1      28.872   9.416  10.947  1.00  0.00     0.697 A
HETATM   26  N1  UNL     1      29.126   8.643   9.863  1.00  0.00    -0.099 N
HETATM   27  N2  UNL     1      29.478   9.414   8.852  1.00  0.00    -0.277 N
HETATM   28  C4  UNL     1      29.462  10.692   9.251  1.00  0.00     0.215 A
ATOM     29  H2  UNL     1      29.724   9.089   7.918  1.00  0.00     0.188 HD
HETATM   30  N3  UNL     1      29.087  10.683  10.543  1.00  0.00    -0.185 N
ATOM     31  H3  UNL     1      28.980  11.512  11.129  1.00  0.00     0.185 HD
BRANCH  26  32
HETATM   32  C2  UNL     1      29.035   7.191   9.785  1.00  0.00     0.140 C
HETATM   33  C1  UNL     1      29.794   6.697   8.550  1.00  0.00     0.058 C
HETATM   34  C3  UNL     1      27.608   6.728   9.677  1.00  0.00     0.058 C
HETATM   35 CL1  UNL     1      29.813   6.463  11.205  1.00  0.00    -0.094 Cl
ENDBRANCH  26  32
ENDBRANCH  23  25
ENDBRANCH  22  23
ENDBRANCH   1  22
TORSDOF 9
ENDMDL