MODEL 5
REMARK VINA RESULT: -6.700649114      2.305      3.376
REMARK  8 active torsions:
REMARK  status: ('A' for Active; 'I' for Inactive)
REMARK    1  A    between atoms: C2_2  and  C3_4
REMARK    2  A    between atoms: C3_4  and  N1_5
REMARK    3  A    between atoms: N2_8  and  C6_9
REMARK    4  A    between atoms: C6_9  and  C7_10
REMARK    5  A    between atoms: C7_10  and  O1_11
REMARK    6  A    between atoms: C7_10  and  C8_13
REMARK    7  A    between atoms: C8_13  and  N3_14
REMARK    8  A    between atoms: C11_19  and  N5_20
ROOT
HETATM    1  N3  UNL     1      24.595   4.861  14.729  1.00  0.00    -0.324 N
HETATM    2  C9  UNL     1      23.368   4.406  15.023  1.00  0.00     0.185 A
HETATM    3  N4  UNL     1      22.754   3.950  13.923  1.00  0.00    -0.346 N
ATOM      4  H4  UNL     1      21.816   3.552  13.875  1.00  0.00     0.167 HD
HETATM    5  C10 UNL     1      23.600   4.112  12.898  1.00  0.00     0.122 A
HETATM    6  C11 UNL     1      23.508   3.824  11.542  1.00  0.00     0.132 A
HETATM    7  N6  UNL     1      24.506   4.083  10.704  1.00  0.00    -0.317 N
ATOM      8  H6  UNL     1      24.432   3.868   9.710  1.00  0.00     0.170 HD
HETATM    9  C12 UNL     1      25.632   4.646  11.226  1.00  0.00     0.182 A
HETATM   10 CL1  UNL     1      26.948   4.989  10.126  1.00  0.00    -0.045 Cl
HETATM   11  N7  UNL     1      25.754   4.938  12.530  1.00  0.00    -0.317 N
ATOM     12  H7  UNL     1      26.619   5.360  12.871  1.00  0.00     0.170 HD
HETATM   13  C13 UNL     1      24.745   4.681  13.407  1.00  0.00     0.141 A
ENDROOT
BRANCH   1  14
HETATM   14  C8  UNL     1      25.582   5.436  15.605  1.00  0.00     0.168 C
BRANCH  14  15
HETATM   15  C7  UNL     1      26.283   6.629  14.937  1.00  0.00     0.175 C
BRANCH  15  16
HETATM   16  C6  UNL     1      25.290   7.734  14.847  1.00  0.00     0.096 C
BRANCH  16  17
HETATM   17  N2  UNL     1      25.347   8.590  13.735  1.00  0.00    -0.365 N
HETATM   18  C5  UNL     1      24.967   9.937  13.864  1.00  0.00     0.093 C
HETATM   19  C4  UNL     1      25.048  10.727  12.576  1.00  0.00     0.321 C
HETATM   20  N1  UNL     1      26.169  10.377  11.771  1.00  0.00     0.133 N
HETATM   21  C15 UNL     1      27.121   9.526  12.396  1.00  0.00     0.423 C
HETATM   22  C14 UNL     1      26.444   8.280  12.879  1.00  0.00     0.196 C
HETATM   23  F1  UNL     1      27.751  10.224  13.404  1.00  0.00    -0.214 F
BRANCH  20  24
HETATM   24  C3  UNL     1      25.733   9.787  10.526  1.00  0.00     0.322 C
BRANCH  24  25
HETATM   25  C2  UNL     1      26.788   9.945   9.476  1.00  0.00     0.007 C
HETATM   26  C1  UNL     1      27.058  11.121   8.968  1.00  0.00     0.029 C
HETATM   27 BR1  UNL     1      27.736   8.410   8.879  1.00  0.00    -0.055 Br
ENDBRANCH  24  25
ENDBRANCH  20  24
ENDBRANCH  16  17
ENDBRANCH  15  16
BRANCH  15  28
HETATM   28  O1  UNL     1      27.398   6.904  15.716  1.00  0.00    -0.389 OA
ATOM     29  H1  UNL     1      27.905   7.659  15.441  1.00  0.00     0.210 HD
ENDBRANCH  15  28
ENDBRANCH  14  15
ENDBRANCH   1  14
BRANCH   6  30
HETATM   30  N5  UNL     1      22.399   3.293  11.157  1.00  0.00    -0.383 N
ATOM     31  H52 UNL     1      21.846   3.675  10.390  1.00  0.00     0.157 HD
ATOM     32  H51 UNL     1      22.105   2.462  11.669  1.00  0.00     0.157 HD
ENDBRANCH   6  30
TORSDOF 8
ENDMDL