MODEL 5
REMARK VINA RESULT: -6.735467637      4.381      5.824
REMARK  9 active torsions:
REMARK  status: ('A' for Active; 'I' for Inactive)
REMARK    1  A    between atoms: C2_2  and  C3_3
REMARK    2  A    between atoms: C7_8  and  O1_9
REMARK    3  A    between atoms: C8_11  and  O2_12
REMARK    4  A    between atoms: C10_16  and  C11_17
REMARK    5  A    between atoms: C11_17  and  C12_18
REMARK    6  A    between atoms: C12_18  and  N1_19
REMARK    7  A    between atoms: N1_19  and  C13_20
REMARK       I    between atoms: N1_19  and  C16_25
REMARK    8  A    between atoms: C13_20  and  C14_21
REMARK    9  A    between atoms: C21_31  and  O5_32
ROOT
HETATM    1  C3  UNL     1      29.396   7.683  10.576  1.00  0.00     0.040 C
HETATM    2  C4  UNL     1      30.734   8.455  10.535  1.00  0.00     0.029 C
HETATM    3  C5  UNL     1      28.385   8.486   9.921  1.00  0.00     0.029 C
HETATM    4 CL1  UNL     1      29.027   9.961   9.127  1.00  0.00    -0.088 Cl
HETATM    5  C6  UNL     1      27.096   8.350   9.785  1.00  0.00     0.058 C
HETATM    6  C7  UNL     1      26.162   7.324  10.247  1.00  0.00     0.107 C
HETATM    7  C8  UNL     1      25.352   7.629  11.437  1.00  0.00     0.227 C
HETATM    8  O3  UNL     1      24.802   6.475  12.024  1.00  0.00    -0.347 OA
HETATM    9  C9  UNL     1      25.838   6.482  12.958  1.00  0.00     0.192 C
HETATM   10  C10 UNL     1      25.937   7.952  12.725  1.00  0.00     0.072 C
HETATM   11  C18 UNL     1      27.268   8.568  12.783  1.00  0.00    -0.052 C
HETATM   12  C19 UNL     1      27.295   9.907  12.654  1.00  0.00     0.020 C
HETATM   13  C20 UNL     1      28.554   7.913  12.989  1.00  0.00     0.013 C
HETATM   14  C21 UNL     1      29.238   7.191  11.925  1.00  0.00     0.158 C
ENDROOT
BRANCH  10  15
HETATM   15  C11 UNL     1      24.974   8.669  13.668  1.00  0.00     0.042 C
BRANCH  15  16
HETATM   16  C12 UNL     1      25.117   8.352  15.100  1.00  0.00     0.127 C
BRANCH  16  17
HETATM   17  N1  UNL     1      25.208   9.662  15.790  1.00  0.00    -0.347 N
HETATM   18  C16 UNL     1      26.451  10.032  16.306  1.00  0.00     0.215 C
HETATM   19  C17 UNL     1      26.647  11.306  17.009  1.00  0.00     0.117 C
HETATM   20  O4  UNL     1      27.442   9.279  16.182  1.00  0.00    -0.274 OA
BRANCH  17  21
HETATM   21  C13 UNL     1      24.027  10.457  15.905  1.00  0.00     0.204 C
BRANCH  21  22
HETATM   22  C14 UNL     1      23.866  11.552  14.909  1.00  0.00     0.256 C
HETATM   23  C15 UNL     1      23.557  12.902  15.500  1.00  0.00     0.091 C
HETATM   24  F1  UNL     1      25.107  11.688  14.266  1.00  0.00    -0.205 F
HETATM   25  F2  UNL     1      22.986  11.225  13.897  1.00  0.00    -0.205 F
ENDBRANCH  21  22
ENDBRANCH  17  21
ENDBRANCH  16  17
ENDBRANCH  15  16
ENDBRANCH  10  15
BRANCH   7  26
HETATM   26  O2  UNL     1      24.365   8.589  11.102  1.00  0.00    -0.359 OA
ATOM     27  H2  UNL     1      23.818   8.758  11.860  1.00  0.00     0.213 HD
ENDBRANCH   7  26
BRANCH   6  28
HETATM   28  O1  UNL     1      26.656   6.013  10.208  1.00  0.00    -0.359 OA
ATOM     29  H1  UNL     1      27.421   5.888   9.659  1.00  0.00     0.217 HD
ENDBRANCH   6  28
BRANCH  14  30
HETATM   30  O5  UNL     1      30.576   7.010  12.439  1.00  0.00    -0.390 OA
ATOM     31  H5  UNL     1      30.646   7.588  13.190  1.00  0.00     0.210 HD
ENDBRANCH  14  30
BRANCH   1  32
HETATM   32  C2  UNL     1      29.676   6.522   9.658  1.00  0.00    -0.019 C
HETATM   33  C1  UNL     1      29.903   6.612   8.373  1.00  0.00     0.008 C
ENDBRANCH   1  32
TORSDOF 9
ENDMDL