MODEL 2
REMARK VINA RESULT: -7.243418712      2.304      3.983
REMARK  11 active torsions:
REMARK  status: ('A' for Active; 'I' for Inactive)
REMARK    1  A    between atoms: C2_2  and  O1_5
REMARK    2  A    between atoms: O1_5  and  C5_6
REMARK       I    between atoms: C5_6  and  N1_8
REMARK    3  A    between atoms: N1_8  and  C6_9
REMARK    4  A    between atoms: N1_8  and  C21_35
REMARK    5  A    between atoms: C6_9  and  N2_10
REMARK    6  A    between atoms: C6_9  and  C12_22
REMARK       I    between atoms: N2_10  and  C7_12
REMARK    7  A    between atoms: C7_12  and  C8_14
REMARK    8  A    between atoms: C10_16  and  N3_17
REMARK    9  A    between atoms: C15_26  and  C16_27
REMARK   10  A    between atoms: C16_27  and  N4_28
REMARK   11  A    between atoms: N4_28  and  C17_31
ROOT
HETATM    1  C6  UNL     1      25.783   7.662  11.858  1.00  0.00     0.206 C
ENDROOT
BRANCH   1   2
HETATM    2  N1  UNL     1      26.982   8.048  11.201  1.00  0.00    -0.213 N
HETATM    3  C5  UNL     1      28.265   7.749  11.803  1.00  0.00     0.372 C
HETATM    4  O2  UNL     1      28.340   7.163  12.903  1.00  0.00    -0.238 OA
BRANCH   3   5
HETATM    5  O1  UNL     1      29.408   8.113  11.149  1.00  0.00    -0.294 OA
BRANCH   5   6
HETATM    6  C2  UNL     1      30.269   7.257  10.437  1.00  0.00     0.061 C
HETATM    7  C1  UNL     1      29.877   5.810  10.474  1.00  0.00     0.046 C
HETATM    8  C3  UNL     1      31.625   7.354  11.153  1.00  0.00     0.046 C
HETATM    9  C4  UNL     1      30.525   7.668   9.021  1.00  0.00     0.046 C
ENDBRANCH   5   6
ENDBRANCH   3   5
BRANCH   2  10
HETATM   10  C21 UNL     1      27.030   8.782   9.976  1.00  0.00     0.492 C
HETATM   11  F1  UNL     1      27.948   9.764   9.860  1.00  0.00    -0.150 F
HETATM   12  F2  UNL     1      25.777   9.329   9.640  1.00  0.00    -0.150 F
HETATM   13  F3  UNL     1      27.227   7.811   8.951  1.00  0.00    -0.150 F
ENDBRANCH   2  10
ENDBRANCH   1   2
BRANCH   1  14
HETATM   14  N2  UNL     1      25.583   6.243  12.025  1.00  0.00    -0.339 N
HETATM   15  C7  UNL     1      24.791   5.492  11.099  1.00  0.00     0.223 C
HETATM   16  O3  UNL     1      24.261   6.092  10.131  1.00  0.00    -0.273 OA
ATOM     17  H2  UNL     1      26.013   5.766  12.817  1.00  0.00     0.164 HD
BRANCH  15  18
HETATM   18  C8  UNL     1      24.583   4.051  11.242  1.00  0.00     0.082 C
HETATM   19  C9  UNL     1      24.852   3.272   9.957  1.00  0.00     0.046 C
HETATM   20  C10 UNL     1      23.637   2.424  10.339  1.00  0.00     0.185 C
HETATM   21  C11 UNL     1      23.118   3.649  11.113  1.00  0.00     0.046 C
BRANCH  20  22
HETATM   22  N3  UNL     1      22.748   2.112   9.249  1.00  0.00    -0.075 N
ATOM     23  H33 UNL     1      23.256   2.125   8.365  1.00  0.00     0.274 HD
ATOM     24  H32 UNL     1      22.479   1.129   9.285  1.00  0.00     0.274 HD
ATOM     25  H31 UNL     1      21.919   2.703   9.188  1.00  0.00     0.274 HD
ENDBRANCH  20  22
ENDBRANCH  15  18
ENDBRANCH   1  14
BRANCH   1  26
HETATM   26  C12 UNL     1      25.393   8.370  13.102  1.00  0.00     0.053 C
HETATM   27  C13 UNL     1      24.899   9.750  13.095  1.00  0.00     0.176 C
HETATM   28  O4  UNL     1      24.978  10.228  14.433  1.00  0.00    -0.390 OA
HETATM   29  C14 UNL     1      24.089   9.578  15.280  1.00  0.00     0.173 C
HETATM   30  C15 UNL     1      24.408   8.130  15.296  1.00  0.00     0.036 C
HETATM   31  C20 UNL     1      24.376   7.542  13.910  1.00  0.00     0.019 C
BRANCH  30  32
HETATM   32  C16 UNL     1      23.613   7.271  16.218  1.00  0.00     0.239 C
BRANCH  32  33
HETATM   33  N4  UNL     1      22.830   6.276  15.588  1.00  0.00    -0.070 N
ATOM     34  H42 UNL     1      21.838   6.460  15.735  1.00  0.00     0.277 HD
ATOM     35  H41 UNL     1      22.879   6.375  14.574  1.00  0.00     0.277 HD
BRANCH  33  36
HETATM   36  C17 UNL     1      23.147   4.946  15.969  1.00  0.00     0.186 A
HETATM   37  C18 UNL     1      23.131   3.922  14.824  1.00  0.00     0.035 A
HETATM   38  C19 UNL     1      24.381   4.232  15.523  1.00  0.00     0.035 A
ENDBRANCH  33  36
ENDBRANCH  32  33
ENDBRANCH  30  32
ENDBRANCH   1  26
TORSDOF 11
ENDMDL