MODEL 5
REMARK VINA RESULT: -7.794698271      3.942      6.036
REMARK  7 active torsions:
REMARK  status: ('A' for Active; 'I' for Inactive)
REMARK    1  A    between atoms: C2_2  and  N1_3
REMARK       I    between atoms: N1_3  and  C3_5
REMARK    2  A    between atoms: C3_5  and  C4_7
REMARK    3  A    between atoms: C6_9  and  N2_10
REMARK    4  A    between atoms: N2_10  and  C7_12
REMARK    5  A    between atoms: C13_18  and  C14_19
REMARK       I    between atoms: N3_26  and  C18_27
REMARK       I    between atoms: C18_27  and  N4_29
REMARK    6  A    between atoms: N4_29  and  C19_31
REMARK    7  A    between atoms: C19_31  and  C20_32
ROOT
HETATM    1  C4  UNL     1      23.565  10.346  14.527  1.00  0.00     0.183 C
HETATM    2  C5  UNL     1      23.926   9.025  13.822  1.00  0.00     0.061 C
HETATM    3  C6  UNL     1      25.344   8.796  14.216  1.00  0.00     0.097 C
HETATM    4  C17 UNL     1      25.306   9.225  15.675  1.00  0.00     0.153 C
HETATM    5  N3  UNL     1      24.430  10.374  15.657  1.00  0.00    -0.319 N
HETATM    6  C18 UNL     1      24.494  11.353  16.688  1.00  0.00     0.319 C
HETATM    7  O2  UNL     1      23.694  12.317  16.615  1.00  0.00    -0.247 OA
HETATM    8  N4  UNL     1      25.387  11.309  17.775  1.00  0.00    -0.337 N
ATOM      9  H4  UNL     1      26.043  10.531  17.844  1.00  0.00     0.164 HD
ENDROOT
BRANCH   3  10
HETATM   10  N2  UNL     1      25.777   7.483  14.158  1.00  0.00    -0.411 N
ATOM     11  H2  UNL     1      25.616   6.896  14.976  1.00  0.00     0.154 HD
BRANCH  10  12
HETATM   12  C7  UNL     1      26.423   6.897  13.052  1.00  0.00     0.078 C
HETATM   13  C8  UNL     1      26.676   7.815  11.938  1.00  0.00     0.034 C
HETATM   14  C9  UNL     1      26.762   7.108  10.583  1.00  0.00    -0.041 C
HETATM   15  C10 UNL     1      27.182   8.091   9.539  1.00  0.00     0.015 C
HETATM   16  C11 UNL     1      27.662   5.925  10.717  1.00  0.00     0.010 C
HETATM   17  C16 UNL     1      25.361   6.561  10.369  1.00  0.00     0.027 C
HETATM   18  C12 UNL     1      26.745   4.717  10.725  1.00  0.00     0.019 C
HETATM   19  C13 UNL     1      25.458   5.347  11.274  1.00  0.00     0.060 C
HETATM   20  C15 UNL     1      25.672   5.636  12.700  1.00  0.00     0.043 C
BRANCH  19  21
HETATM   21  C14 UNL     1      24.274   4.428  11.109  1.00  0.00     0.395 C
HETATM   22  F1  UNL     1      24.735   3.225  10.652  1.00  0.00    -0.170 F
HETATM   23  F2  UNL     1      23.461   4.971  10.129  1.00  0.00    -0.170 F
HETATM   24  F3  UNL     1      23.602   4.257  12.309  1.00  0.00    -0.170 F
ENDBRANCH  19  21
ENDBRANCH  10  12
ENDBRANCH   3  10
BRANCH   1  25
HETATM   25  C3  UNL     1      23.759  11.402  13.530  1.00  0.00     0.240 C
HETATM   26  N1  UNL     1      24.864  11.594  12.699  1.00  0.00    -0.360 N
ATOM     27  H1  UNL     1      25.649  10.945  12.762  1.00  0.00     0.162 HD
HETATM   28  O1  UNL     1      22.794  12.235  13.420  1.00  0.00    -0.271 OA
BRANCH  26  29
HETATM   29  C2  UNL     1      24.929  12.670  11.762  1.00  0.00     0.118 C
HETATM   30  C1  UNL     1      26.182  12.537  10.931  1.00  0.00     0.026 C
ENDBRANCH  26  29
ENDBRANCH   1  25
BRANCH   8  31
HETATM   31  C19 UNL     1      25.403  12.326  18.794  1.00  0.00     0.185 C
BRANCH  31  32
HETATM   32  C20 UNL     1      26.359  12.027  19.896  1.00  0.00     0.069 A
HETATM   33  C21 UNL     1      27.683  11.743  19.723  1.00  0.00     0.145 A
HETATM   34  N5  UNL     1      28.169  11.540  20.981  1.00  0.00    -0.251 N
HETATM   35  O3  UNL     1      27.214  11.692  21.824  1.00  0.00    -0.157 OA
ATOM     36  H5  UNL     1      29.135  11.307  21.214  1.00  0.00     0.196 HD
HETATM   37  N6  UNL     1      26.102  11.987  21.222  1.00  0.00    -0.243 N
ATOM     38  H6  UNL     1      25.201  12.157  21.667  1.00  0.00     0.196 HD
ENDBRANCH  31  32
ENDBRANCH   8  31
TORSDOF 7
ENDMDL