MODEL 1
REMARK VINA RESULT: -7.719428704      0.000      0.000
REMARK  8 active torsions:
REMARK  status: ('A' for Active; 'I' for Inactive)
REMARK    1  A    between atoms: C2_2  and  C3_3
REMARK    2  A    between atoms: C3_3  and  C5_5
REMARK    3  A    between atoms: C5_5  and  O1_6
REMARK    4  A    between atoms: C5_5  and  N1_8
REMARK    5  A    between atoms: C7_10  and  O2_11
REMARK    6  A    between atoms: O2_11  and  C8_12
REMARK    7  A    between atoms: C15_22  and  C16_23
REMARK       I    between atoms: C16_23  and  N2_25
REMARK    8  A    between atoms: N2_25  and  C17_27
ROOT
HETATM    1  N1  UNL     1      25.656   5.707  12.857  1.00  0.00    -0.372 N
HETATM    2  C6  UNL     1      26.032   7.064  12.717  1.00  0.00     0.152 C
HETATM    3  C7  UNL     1      27.416   6.920  12.121  1.00  0.00     0.149 C
HETATM    4  C14 UNL     1      27.179   5.780  11.138  1.00  0.00     0.069 C
HETATM    5  C15 UNL     1      25.850   5.136  11.590  1.00  0.00     0.177 C
ENDROOT
BRANCH   5   6
HETATM    6  C16 UNL     1      24.802   5.383  10.576  1.00  0.00     0.258 C
HETATM    7  O3  UNL     1      24.297   6.513  10.443  1.00  0.00    -0.270 OA
HETATM    8  N2  UNL     1      24.349   4.338   9.735  1.00  0.00    -0.156 N
ATOM      9  H2  UNL     1      24.620   4.371   8.753  1.00  0.00     0.187 HD
BRANCH   8  10
HETATM   10  C17 UNL     1      23.620   3.350  10.120  1.00  0.00     0.710 A
HETATM   11  N3  UNL     1      23.474   2.192   9.429  1.00  0.00    -0.117 N
HETATM   12  N4  UNL     1      22.660   1.391  10.099  1.00  0.00     0.006 NA
ATOM     13  H3  UNL     1      23.918   1.974   8.538  1.00  0.00     0.202 HD
HETATM   14  N5  UNL     1      22.278   2.005  11.207  1.00  0.00     0.006 NA
HETATM   15  N6  UNL     1      22.864   3.203  11.221  1.00  0.00    -0.117 N
ATOM     16  H6  UNL     1      22.754   3.902  11.955  1.00  0.00     0.202 HD
ENDBRANCH   8  10
ENDBRANCH   5   6
BRANCH   1  17
HETATM   17  C5  UNL     1      24.522   5.360  13.586  1.00  0.00     0.220 C
BRANCH  17  18
HETATM   18  C3  UNL     1      24.538   5.768  15.037  1.00  0.00     0.030 C
HETATM   19  C4  UNL     1      23.270   6.557  15.282  1.00  0.00     0.014 C
BRANCH  18  20
HETATM   20  C2  UNL     1      24.640   4.594  15.972  1.00  0.00     0.004 C
HETATM   21  C1  UNL     1      26.034   4.319  16.434  1.00  0.00     0.005 C
ENDBRANCH  18  20
ENDBRANCH  17  18
BRANCH  17  22
HETATM   22  O1  UNL     1      24.379   3.961  13.555  1.00  0.00    -0.377 OA
ATOM     23  H1  UNL     1      23.778   3.729  14.252  1.00  0.00     0.212 HD
ENDBRANCH  17  22
ENDBRANCH   1  17
BRANCH   3  24
HETATM   24  O2  UNL     1      27.877   8.081  11.475  1.00  0.00    -0.341 OA
BRANCH  24  25
HETATM   25  C8  UNL     1      29.214   8.436  11.481  1.00  0.00     0.112 A
HETATM   26  C9  UNL     1      29.967   8.270  10.315  1.00  0.00     0.070 A
HETATM   27 CL1  UNL     1      29.253   7.622   8.858  1.00  0.00    -0.081 Cl
HETATM   28  C10 UNL     1      31.309   8.615  10.281  1.00  0.00     0.050 A
HETATM   29  C11 UNL     1      31.946   9.132  11.383  1.00  0.00     0.037 A
HETATM   30 CL2  UNL     1      33.651   9.560  11.300  1.00  0.00    -0.084 Cl
HETATM   31  C12 UNL     1      31.220   9.300  12.534  1.00  0.00     0.050 A
HETATM   32  C13 UNL     1      29.877   8.954  12.566  1.00  0.00     0.070 A
HETATM   33 CL3  UNL     1      29.021   9.194  14.051  1.00  0.00    -0.081 Cl
ENDBRANCH  24  25
ENDBRANCH   3  24
TORSDOF 8
ENDMDL