MODEL 3
REMARK VINA RESULT: -7.356499397      2.227      2.501
REMARK  8 active torsions:
REMARK  status: ('A' for Active; 'I' for Inactive)
REMARK    1  A    between atoms: C2_2  and  O1_4
REMARK    2  A    between atoms: C2_2  and  C4_6
REMARK    3  A    between atoms: C4_6  and  C5_7
REMARK       I    between atoms: C5_7  and  N1_9
REMARK    4  A    between atoms: N1_9  and  C6_10
REMARK    5  A    between atoms: N2_13  and  C9_14
REMARK    6  A    between atoms: C9_14  and  C10_15
REMARK    7  A    between atoms: C10_15  and  C11_19
REMARK    8  A    between atoms: C11_19  and  N4_20
ROOT
HETATM    1  C6  UNL     1      24.513   5.033  13.314  1.00  0.00     0.188 C
HETATM    2  C7  UNL     1      25.176   6.239  12.621  1.00  0.00     0.071 C
HETATM    3  C8  UNL     1      25.768   7.085  13.725  1.00  0.00     0.276 C
HETATM    4  N2  UNL     1      24.653   7.815  14.308  1.00  0.00     0.095 N
HETATM    5  C15 UNL     1      23.515   6.957  14.511  1.00  0.00     0.296 C
HETATM    6  C16 UNL     1      23.773   5.504  14.566  1.00  0.00     0.146 C
HETATM    7 CL2  UNL     1      24.638   5.112  16.054  1.00  0.00    -0.120 Cl
ENDROOT
BRANCH   4   8
HETATM    8  C9  UNL     1      25.043   8.521  15.495  1.00  0.00     0.326 C
BRANCH   8   9
HETATM    9  C10 UNL     1      25.023   9.993  15.192  1.00  0.00     0.026 C
HETATM   10  N3  UNL     1      26.148  10.548  14.950  1.00  0.00    -0.403 N
ATOM     11  H32 UNL     1      27.028  10.032  14.935  1.00  0.00     0.155 HD
ATOM     12  H31 UNL     1      26.135  11.548  14.745  1.00  0.00     0.155 HD
BRANCH   9  13
HETATM   13  C11 UNL     1      23.731  10.750  15.215  1.00  0.00     0.184 C
BRANCH  13  14
HETATM   14  N4  UNL     1      23.915  12.134  15.569  1.00  0.00    -0.329 N
HETATM   15  C12 UNL     1      24.328  12.613  16.753  1.00  0.00     0.136 A
HETATM   16  C13 UNL     1      24.392  14.006  16.624  1.00  0.00     0.121 A
HETATM   17 CL1  UNL     1      24.872  15.091  17.884  1.00  0.00    -0.063 Cl
HETATM   18  N5  UNL     1      24.012  14.272  15.370  1.00  0.00    -0.326 N
HETATM   19  C14 UNL     1      23.713  13.166  14.700  1.00  0.00     0.157 A
ATOM     20  H5  UNL     1      23.959  15.212  14.976  1.00  0.00     0.169 HD
HETATM   21 BR1  UNL     1      23.110  12.974  12.874  1.00  0.00    -0.010 Br
ENDBRANCH  13  14
ENDBRANCH   9  13
ENDBRANCH   8   9
ENDBRANCH   4   8
BRANCH   1  22
HETATM   22  N1  UNL     1      23.773   4.272  12.532  1.00  0.00    -0.408 NA
HETATM   23  C5  UNL     1      22.997   3.471  11.710  1.00  0.00     0.289 C
HETATM   24  O2  UNL     1      22.152   2.601  12.024  1.00  0.00    -0.257 OA
BRANCH  23  25
HETATM   25  C4  UNL     1      23.224   3.709  10.213  1.00  0.00     0.155 C
BRANCH  25  26
HETATM   26  C2  UNL     1      24.161   2.658   9.725  1.00  0.00     0.060 C
HETATM   27  C1  UNL     1      23.872   2.394   8.246  1.00  0.00     0.046 C
HETATM   28  C3  UNL     1      25.586   3.184   9.878  1.00  0.00     0.046 C
BRANCH  26  29
HETATM   29  O1  UNL     1      23.981   1.466  10.404  1.00  0.00    -0.390 OA
ATOM     30  H1  UNL     1      23.749   0.805   9.764  1.00  0.00     0.210 HD
ENDBRANCH  26  29
ENDBRANCH  25  26
ENDBRANCH  23  25
ENDBRANCH   1  22
TORSDOF 8
ENDMDL