MODEL 4
REMARK VINA RESULT: -7.433414972      0.807      1.218
REMARK  11 active torsions:
REMARK  status: ('A' for Active; 'I' for Inactive)
REMARK    1  A    between atoms: C5_10  and  C6_11
REMARK    2  A    between atoms: C6_11  and  N4_12
REMARK    3  A    between atoms: C6_11  and  C18_30
REMARK       I    between atoms: N4_12  and  C7_13
REMARK    4  A    between atoms: C7_13  and  C8_15
REMARK    5  A    between atoms: C8_15  and  C9_16
REMARK    6  A    between atoms: C9_16  and  C10_17
REMARK    7  A    between atoms: C10_17  and  N5_18
REMARK       I    between atoms: N5_18  and  C12_20
REMARK    8  A    between atoms: C12_20  and  C13_22
REMARK    9  A    between atoms: C13_22  and  C14_23
REMARK   10  A    between atoms: C14_23  and  C17_26
REMARK   11  A    between atoms: C21_35  and  N7_36
ROOT
HETATM    1  C6  UNL     1      24.694   6.101  14.541  1.00  0.00     0.238 C
ENDROOT
BRANCH   1   2
HETATM    2  C5  UNL     1      24.666   5.265  13.244  1.00  0.00     0.121 A
HETATM    3  N3  UNL     1      25.704   5.291  12.394  1.00  0.00    -0.327 N
HETATM    4  C4  UNL     1      25.673   4.583  11.234  1.00  0.00     0.139 A
ATOM      5  H3  UNL     1      26.526   5.849  12.621  1.00  0.00     0.169 HD
HETATM    6  N2  UNL     1      26.547   4.439  10.217  1.00  0.00    -0.280 N
HETATM    7  C22 UNL     1      24.582   3.818  10.895  1.00  0.00     0.077 A
HETATM    8  N1  UNL     1      26.044   3.641   9.304  1.00  0.00    -0.301 N
HETATM    9  C3  UNL     1      27.841   5.079  10.165  1.00  0.00     0.179 C
HETATM   10  C2  UNL     1      24.811   3.211   9.661  1.00  0.00     0.040 A
ATOM     11  H1  UNL     1      26.519   3.380   8.441  1.00  0.00     0.187 HD
HETATM   12  C1  UNL     1      23.898   2.309   8.914  1.00  0.00     0.071 C
HETATM   13  C21 UNL     1      23.524   3.801  11.785  1.00  0.00     0.116 A
HETATM   14  N6  UNL     1      23.598   4.526  12.935  1.00  0.00    -0.329 N
ATOM     15  H6  UNL     1      22.809   4.505  13.583  1.00  0.00     0.168 HD
BRANCH  13  16
HETATM   16  N7  UNL     1      22.507   3.082  11.467  1.00  0.00    -0.385 N
ATOM     17  H72 UNL     1      21.603   3.551  11.432  1.00  0.00     0.157 HD
ATOM     18  H71 UNL     1      22.570   2.087  11.252  1.00  0.00     0.157 HD
ENDBRANCH  13  16
ENDBRANCH   1   2
BRANCH   1  19
HETATM   19  N4  UNL     1      25.716   6.789  14.748  1.00  0.00    -0.391 NA
HETATM   20  C7  UNL     1      26.906   7.589  14.989  1.00  0.00     0.367 C
HETATM   21  O1  UNL     1      28.063   7.161  14.950  1.00  0.00    -0.242 OA
BRANCH  20  22
HETATM   22  C8  UNL     1      26.788   9.011  15.301  1.00  0.00     0.011 C
BRANCH  22  23
HETATM   23  C9  UNL     1      26.678  10.174  15.598  1.00  0.00    -0.075 C
BRANCH  23  24
HETATM   24  C10 UNL     1      26.516  11.571  16.001  1.00  0.00     0.220 C
BRANCH  24  25
HETATM   25  N5  UNL     1      25.216  11.777  16.540  1.00  0.00    -0.346 N
HETATM   26  C11 UNL     1      24.914  11.160  17.828  1.00  0.00     0.153 C
HETATM   27  C12 UNL     1      24.258  12.553  15.844  1.00  0.00     0.221 C
HETATM   28  O2  UNL     1      23.117  12.677  16.350  1.00  0.00    -0.273 OA
BRANCH  27  29
HETATM   29  C13 UNL     1      24.596  13.198  14.576  1.00  0.00     0.120 C
BRANCH  29  30
HETATM   30  C14 UNL     1      24.105  12.358  13.405  1.00  0.00     0.059 C
HETATM   31  C15 UNL     1      23.393  11.128  13.942  1.00  0.00     0.024 C
HETATM   32  C16 UNL     1      25.213  11.958  12.494  1.00  0.00     0.024 C
BRANCH  30  33
HETATM   33  C17 UNL     1      23.050  13.187  12.670  1.00  0.00     0.395 C
HETATM   34  F1  UNL     1      21.821  12.592  12.722  1.00  0.00    -0.170 F
HETATM   35  F2  UNL     1      23.091  14.454  13.215  1.00  0.00    -0.170 F
HETATM   36  F3  UNL     1      23.512  13.280  11.363  1.00  0.00    -0.170 F
ENDBRANCH  30  33
ENDBRANCH  29  30
ENDBRANCH  27  29
ENDBRANCH  24  25
ENDBRANCH  23  24
ENDBRANCH  22  23
ENDBRANCH  20  22
ENDBRANCH   1  19
BRANCH   1  37
HETATM   37  C18 UNL     1      24.312   5.099  15.636  1.00  0.00     0.021 C
HETATM   38  C19 UNL     1      25.474   4.355  16.172  1.00  0.00     0.013 C
HETATM   39  C20 UNL     1      23.420   5.705  16.677  1.00  0.00     0.013 C
ENDBRANCH   1  37
TORSDOF 11
ENDMDL