MODEL 2
REMARK VINA RESULT: -7.720787858      1.091      1.359
REMARK  12 active torsions:
REMARK  status: ('A' for Active; 'I' for Inactive)
REMARK    1  A    between atoms: C2_2  and  O2_4
REMARK    2  A    between atoms: O2_4  and  C3_5
REMARK    3  A    between atoms: C6_8  and  C7_9
REMARK    4  A    between atoms: C7_9  and  O3_11
REMARK    5  A    between atoms: N1_16  and  C11_17
REMARK    6  A    between atoms: C11_17  and  C14_25
REMARK    7  A    between atoms: N2_18  and  C12_20
REMARK    8  A    between atoms: C12_20  and  C13_21
REMARK    9  A    between atoms: C14_25  and  O4_26
REMARK   10  A    between atoms: C14_25  and  N3_28
REMARK   11  A    between atoms: N3_28  and  C15_30
REMARK   12  A    between atoms: C15_30  and  C16_31
ROOT
HETATM    1  C11 UNL     1      24.976   7.103  13.865  1.00  0.00     0.126 C
HETATM    2  N2  UNL     1      23.870   6.589  14.114  1.00  0.00    -0.368 N
ATOM      3  H2  UNL     1      23.511   6.067  13.315  1.00  0.00     0.161 HD
ENDROOT
BRANCH   1   4
HETATM    4  N1  UNL     1      25.597   6.922  12.562  1.00  0.00    -0.349 N
HETATM    5  C10 UNL     1      25.024   7.585  11.392  1.00  0.00     0.199 C
HETATM    6  S1  UNL     1      26.558   7.935  10.432  1.00  0.00    -0.141 SA
HETATM    7  C9  UNL     1      27.741   7.161  11.597  1.00  0.00     0.083 C
HETATM    8  C6  UNL     1      28.695   6.224  10.920  1.00  0.00     0.034 C
HETATM    9  C20 UNL     1      26.748   6.156  12.232  1.00  0.00     0.132 C
HETATM   10  C5  UNL     1      27.765   5.277  10.209  1.00  0.00     0.046 C
HETATM   11  C4  UNL     1      26.545   5.229  11.099  1.00  0.00    -0.033 C
HETATM   12  C3  UNL     1      25.509   4.460  10.826  1.00  0.00     0.150 C
BRANCH   8  13
HETATM   13  C7  UNL     1      29.710   6.894  10.063  1.00  0.00     0.119 C
HETATM   14  C8  UNL     1      29.782   6.401   8.646  1.00  0.00     0.040 C
BRANCH  13  15
HETATM   15  O3  UNL     1      30.982   6.787  10.620  1.00  0.00    -0.396 OA
ATOM     16  H3  UNL     1      31.162   7.516  11.201  1.00  0.00     0.210 HD
ENDBRANCH  13  15
ENDBRANCH   8  13
BRANCH  12  17
HETATM   17  O2  UNL     1      25.437   3.629   9.712  1.00  0.00    -0.291 OA
BRANCH  17  18
HETATM   18  C2  UNL     1      24.387   2.715   9.555  1.00  0.00     0.259 C
HETATM   19  C1  UNL     1      24.561   1.255   9.604  1.00  0.00     0.126 C
HETATM   20  O1  UNL     1      23.241   3.191   9.364  1.00  0.00    -0.265 OA
ENDBRANCH  17  18
ENDBRANCH  12  17
ENDBRANCH   1   4
BRANCH   1  21
HETATM   21  C14 UNL     1      25.695   7.920  14.916  1.00  0.00     0.285 C
BRANCH  21  22
HETATM   22  O4  UNL     1      26.736   7.141  15.454  1.00  0.00    -0.370 OA
ATOM     23  H4  UNL     1      27.559   7.590  15.301  1.00  0.00     0.212 HD
ENDBRANCH  21  22
BRANCH  21  24
HETATM   24  N3  UNL     1      26.319   9.054  14.338  1.00  0.00    -0.370 N
ATOM     25  H3  UNL     1      27.064   8.910  13.657  1.00  0.00     0.161 HD
BRANCH  24  26
HETATM   26  C15 UNL     1      25.951  10.359  14.667  1.00  0.00     0.067 C
BRANCH  26  27
HETATM   27  C16 UNL     1      25.030  11.139  13.814  1.00  0.00    -0.019 C
HETATM   28  C17 UNL     1      25.249  11.119  12.337  1.00  0.00     0.020 C
HETATM   29  C18 UNL     1      25.023  12.580  14.370  1.00  0.00     0.020 C
HETATM   30  C19 UNL     1      23.567  10.691  14.029  1.00  0.00     0.020 C
ENDBRANCH  26  27
ENDBRANCH  24  26
ENDBRANCH  21  24
ENDBRANCH   1  21
BRANCH   2  31
HETATM   31  C12 UNL     1      22.986   6.536  15.203  1.00  0.00     0.238 C
BRANCH  31  32
HETATM   32  C13 UNL     1      23.166   5.148  15.871  1.00  0.00     0.403 C
HETATM   33  F1  UNL     1      23.619   4.219  14.967  1.00  0.00    -0.169 F
HETATM   34  F2  UNL     1      24.107   5.214  16.878  1.00  0.00    -0.169 F
HETATM   35  F3  UNL     1      21.946   4.720  16.354  1.00  0.00    -0.169 F
ENDBRANCH  31  32
ENDBRANCH   2  31
TORSDOF 12
ENDMDL