MODEL 4
REMARK VINA RESULT: -7.875284924      1.153      1.261
REMARK  13 active torsions:
REMARK  status: ('A' for Active; 'I' for Inactive)
REMARK    1  A    between atoms: C2_2  and  C3_3
REMARK    2  A    between atoms: C3_3  and  C4_4
REMARK    3  A    between atoms: C3_3  and  N1_6
REMARK    4  A    between atoms: C6_7  and  C7_8
REMARK    5  A    between atoms: C7_8  and  N2_9
REMARK    6  A    between atoms: N3_15  and  C13_16
REMARK    7  A    between atoms: C13_16  and  O1_17
REMARK    8  A    between atoms: C13_16  and  N4_19
REMARK    9  A    between atoms: N4_19  and  C14_21
REMARK   10  A    between atoms: C14_21  and  O2_22
REMARK   11  A    between atoms: C14_21  and  N5_24
REMARK   12  A    between atoms: N5_24  and  C15_26
REMARK   13  A    between atoms: C15_26  and  C16_27
ROOT
HETATM    1  N2  UNL     1      27.608   9.515  12.199  1.00  0.00    -0.386 N
HETATM    2  C8  UNL     1      26.783   8.897  11.242  1.00  0.00     0.123 C
HETATM    3  C9  UNL     1      25.485   8.681  12.033  1.00  0.00     0.033 C
HETATM    4  C10 UNL     1      26.031   8.264  13.369  1.00  0.00    -0.002 C
HETATM    5  C11 UNL     1      25.092   8.583  14.516  1.00  0.00     0.057 C
HETATM    6  C12 UNL     1      24.195   7.382  14.572  1.00  0.00     0.068 C
HETATM    7  N3  UNL     1      24.860   6.274  14.008  1.00  0.00    -0.326 N
HETATM    8  C17 UNL     1      26.146   6.788  13.460  1.00  0.00     0.143 C
HETATM    9  C18 UNL     1      27.340   8.985  13.497  1.00  0.00     0.133 C
ENDROOT
BRANCH   7  10
HETATM   10  C13 UNL     1      24.537   4.919  13.894  1.00  0.00     0.226 C
BRANCH  10  11
HETATM   11  O1  UNL     1      25.446   4.183  14.581  1.00  0.00    -0.332 OA
ATOM     12  H1  UNL     1      26.069   3.806  13.971  1.00  0.00     0.221 HD
ENDBRANCH  10  11
BRANCH  10  13
HETATM   13  N4  UNL     1      23.571   4.175  13.287  1.00  0.00    -0.288 N
ATOM     14  H4  UNL     1      22.885   3.866  13.975  1.00  0.00     0.173 HD
BRANCH  13  15
HETATM   15  C14 UNL     1      23.227   3.708  12.036  1.00  0.00     0.220 C
BRANCH  15  16
HETATM   16  O2  UNL     1      22.390   2.660  12.128  1.00  0.00    -0.332 OA
ATOM     17  H2  UNL     1      22.385   2.157  11.322  1.00  0.00     0.220 HD
ENDBRANCH  15  16
BRANCH  15  18
HETATM   18  N5  UNL     1      23.553   4.081  10.736  1.00  0.00    -0.348 N
ATOM     19  H5  UNL     1      23.979   4.997  10.591  1.00  0.00     0.163 HD
BRANCH  18  20
HETATM   20  C15 UNL     1      23.321   3.240   9.572  1.00  0.00     0.240 C
BRANCH  20  21
HETATM   21  C16 UNL     1      24.401   2.291   9.221  1.00  0.00     0.403 C
HETATM   22  F1  UNL     1      24.463   1.093   9.815  1.00  0.00    -0.169 F
HETATM   23  F2  UNL     1      25.631   2.943   9.492  1.00  0.00    -0.169 F
HETATM   24  F3  UNL     1      24.368   2.169   7.818  1.00  0.00    -0.169 F
ENDBRANCH  20  21
ENDBRANCH  18  20
ENDBRANCH  15  18
ENDBRANCH  13  15
ENDBRANCH  10  13
ENDBRANCH   7  10
BRANCH   1  25
HETATM   25  C7  UNL     1      28.938   9.785  11.876  1.00  0.00     0.136 C
BRANCH  25  26
HETATM   26  C6  UNL     1      29.437   9.208  10.628  1.00  0.00     0.142 A
HETATM   27  N1  UNL     1      29.785   7.904  10.500  1.00  0.00    -0.277 N
HETATM   28  C19 UNL     1      30.203   7.675   9.242  1.00  0.00     0.343 A
HETATM   29  N7  UNL     1      30.115   8.844   8.581  1.00  0.00    -0.249 N
HETATM   30  O3  UNL     1      30.614   6.579   8.727  1.00  0.00    -0.245 OA
HETATM   31  N6  UNL     1      29.660   9.739   9.420  1.00  0.00    -0.280 N
ATOM     32  H7  UNL     1      30.360   9.003   7.603  1.00  0.00     0.192 HD
ATOM     33  H6  UNL     1      29.496  10.718   9.183  1.00  0.00     0.188 HD
BRANCH  27  34
HETATM   34  C3  UNL     1      29.739   6.853  11.527  1.00  0.00     0.095 C
BRANCH  34  35
HETATM   35  C2  UNL     1      29.301   5.610  10.853  1.00  0.00     0.021 C
HETATM   36  C1  UNL     1      27.840   5.362  10.751  1.00  0.00     0.007 C
ENDBRANCH  34  35
BRANCH  34  37
HETATM   37  C4  UNL     1      30.992   6.800  12.318  1.00  0.00     0.021 C
HETATM   38  C5  UNL     1      30.889   7.162  13.757  1.00  0.00     0.007 C
ENDBRANCH  34  37
ENDBRANCH  27  34
ENDBRANCH  25  26
ENDBRANCH   1  25
TORSDOF 13
ENDMDL