MODEL 4
REMARK VINA RESULT: -8.163009894      2.909      5.772
REMARK  9 active torsions:
REMARK  status: ('A' for Active; 'I' for Inactive)
REMARK    1  A    between atoms: C2_2  and  O1_5
REMARK    2  A    between atoms: O1_5  and  C5_6
REMARK       I    between atoms: C5_6  and  N1_8
REMARK    3  A    between atoms: N1_8  and  C6_10
REMARK    4  A    between atoms: C6_10  and  C9_13
REMARK       I    between atoms: C9_13  and  N2_15
REMARK    5  A    between atoms: N2_15  and  C10_17
REMARK    6  A    between atoms: C10_17  and  C11_18
REMARK    7  A    between atoms: C10_17  and  N5_30
REMARK       I    between atoms: C11_18  and  N3_20
REMARK    8  A    between atoms: N3_20  and  C12_22
REMARK    9  A    between atoms: C12_22  and  C13_23
ROOT
HETATM    1  C10 UNL     1      24.463   4.912  10.593  1.00  0.00     0.417 C
ENDROOT
BRANCH   1   2
HETATM    2  N2  UNL     1      25.678   5.608  10.161  1.00  0.00    -0.321 N
HETATM    3  C9  UNL     1      25.825   6.970  10.444  1.00  0.00     0.247 C
HETATM    4  O3  UNL     1      24.911   7.607  11.075  1.00  0.00    -0.271 OA
ATOM      5  H2  UNL     1      26.409   5.104   9.660  1.00  0.00     0.165 HD
BRANCH   3   6
HETATM    6  C6  UNL     1      27.017   7.771  10.050  1.00  0.00     0.108 C
HETATM    7  C7  UNL     1      26.540   9.117   9.518  1.00  0.00     0.049 C
HETATM    8  C8  UNL     1      27.722   7.056   8.926  1.00  0.00     0.049 C
BRANCH   6   9
HETATM    9  N1  UNL     1      27.881   8.020  11.176  1.00  0.00    -0.319 N
HETATM   10  C5  UNL     1      28.419   6.921  11.885  1.00  0.00     0.362 C
HETATM   11  O2  UNL     1      28.159   5.743  11.548  1.00  0.00    -0.238 OA
ATOM     12  H1  UNL     1      28.102   8.976  11.457  1.00  0.00     0.166 HD
BRANCH  10  13
HETATM   13  O1  UNL     1      29.238   7.124  12.960  1.00  0.00    -0.294 OA
BRANCH  13  14
HETATM   14  C2  UNL     1      30.586   7.517  12.919  1.00  0.00     0.061 C
HETATM   15  C1  UNL     1      31.342   6.997  11.736  1.00  0.00     0.046 C
HETATM   16  C3  UNL     1      31.240   6.945  14.176  1.00  0.00     0.046 C
HETATM   17  C4  UNL     1      30.721   9.026  13.018  1.00  0.00     0.046 C
ENDBRANCH  13  14
ENDBRANCH  10  13
ENDBRANCH   6   9
ENDBRANCH   3   6
ENDBRANCH   1   2
BRANCH   1  18
HETATM   18  C11 UNL     1      24.439   4.790  12.065  1.00  0.00     0.271 C
HETATM   19  O4  UNL     1      23.305   4.537  12.617  1.00  0.00    -0.269 OA
HETATM   20  N3  UNL     1      25.513   4.913  12.944  1.00  0.00    -0.353 N
ATOM     21  H3  UNL     1      26.434   5.106  12.551  1.00  0.00     0.162 HD
BRANCH  20  22
HETATM   22  C12 UNL     1      25.403   4.783  14.382  1.00  0.00     0.172 C
BRANCH  22  23
HETATM   23  C13 UNL     1      24.976   6.084  14.992  1.00  0.00     0.040 A
HETATM   24  S1  UNL     1      25.743   7.623  14.948  1.00  0.00    -0.084 SA
HETATM   25  C14 UNL     1      24.606   8.499  15.870  1.00  0.00     0.139 A
HETATM   26  N4  UNL     1      23.709   7.571  16.157  1.00  0.00    -0.350 N
HETATM   27  C15 UNL     1      23.863   6.359  15.736  1.00  0.00     0.118 A
ATOM     28  H4  UNL     1      22.890   7.814  16.716  1.00  0.00     0.166 HD
HETATM   29 CL1  UNL     1      22.690   5.051  16.088  1.00  0.00    -0.063 Cl
ENDBRANCH  22  23
ENDBRANCH  20  22
ENDBRANCH   1  18
BRANCH   1  30
HETATM   30  N5  UNL     1      24.385   3.728   9.846  1.00  0.00     0.132 N
HETATM   31  C16 UNL     1      23.570   2.632  10.123  1.00  0.00     0.356 C
HETATM   32  C17 UNL     1      24.502   1.789   9.239  1.00  0.00     0.296 C
HETATM   33  F1  UNL     1      24.278   1.897   7.899  1.00  0.00    -0.203 F
HETATM   34  F2  UNL     1      24.757   0.553   9.745  1.00  0.00    -0.203 F
HETATM   35  C18 UNL     1      25.508   2.878   9.665  1.00  0.00     0.356 C
ENDBRANCH   1  30
TORSDOF 9
ENDMDL