MODEL 1
REMARK VINA RESULT: -7.768104112      0.000      0.000
REMARK  8 active torsions:
REMARK  status: ('A' for Active; 'I' for Inactive)
REMARK    1  A    between atoms: N1_1  and  N2_4
REMARK    2  A    between atoms: N3_6  and  C1_8
REMARK    3  A    between atoms: C4_11  and  C5_12
REMARK    4  A    between atoms: N4_14  and  C7_15
REMARK    5  A    between atoms: C10_20  and  C11_21
REMARK    6  A    between atoms: C12_24  and  O3_25
REMARK    7  A    between atoms: C12_24  and  C13_27
REMARK    8  A    between atoms: N5_28  and  N6_30
ROOT
HETATM    1  C7  UNL     1      25.806   6.198  11.724  1.00  0.00     0.192 C
HETATM    2  C8  UNL     1      26.049   5.110  10.708  1.00  0.00     0.058 C
HETATM    3 CL1  UNL     1      27.455   5.089   9.662  1.00  0.00    -0.085 Cl
HETATM    4  C9  UNL     1      25.049   4.226  10.760  1.00  0.00     0.049 C
HETATM    5 CL2  UNL     1      24.972   2.813   9.728  1.00  0.00    -0.086 Cl
HETATM    6  C10 UNL     1      24.072   4.674  11.821  1.00  0.00     0.175 C
HETATM    7  C12 UNL     1      25.012   5.368  12.777  1.00  0.00     0.136 C
ENDROOT
BRANCH   1   8
HETATM    8  N4  UNL     1      27.017   6.710  12.280  1.00  0.00    -0.271 N
HETATM    9  C6  UNL     1      28.165   6.983  11.647  1.00  0.00     0.140 A
HETATM   10  C5  UNL     1      29.076   7.460  12.554  1.00  0.00     0.073 A
HETATM   11  N9  UNL     1      28.453   7.465  13.738  1.00  0.00    -0.282 N
HETATM   12  N8  UNL     1      27.203   7.008  13.556  1.00  0.00    -0.019 NA
ATOM     13  H9  UNL     1      28.857   7.764  14.625  1.00  0.00     0.184 HD
BRANCH  10  14
HETATM   14  C4  UNL     1      30.447   7.876  12.296  1.00  0.00    -0.007 A
HETATM   15  C3  UNL     1      31.481   7.441  13.110  1.00  0.00     0.016 A
HETATM   16  C2  UNL     1      32.768   7.841  12.854  1.00  0.00     0.032 A
HETATM   17  C1  UNL     1      33.066   8.669  11.802  1.00  0.00     0.049 A
HETATM   18  C15 UNL     1      32.051   9.110  10.985  1.00  0.00     0.032 A
HETATM   19  C14 UNL     1      30.769   8.702  11.253  1.00  0.00     0.016 A
BRANCH  17  20
HETATM   20  N3  UNL     1      34.416   9.053  11.580  1.00  0.00    -0.287 N
HETATM   21  N2  UNL     1      35.334   8.234  11.546  1.00  0.00    -0.249 N
ATOM     22  H2  UNL     1      35.250   7.863  10.600  1.00  0.00     0.207 HD
ATOM     23  H3  UNL     1      34.631  10.041  11.446  1.00  0.00     0.188 HD
BRANCH  21  24
HETATM   24  N1  UNL     1      36.304   7.594  11.989  1.00  0.00    -0.331 N
ATOM     25  H12 UNL     1      35.805   6.818  12.425  1.00  0.00     0.178 HD
ATOM     26  H11 UNL     1      37.290   7.398  12.167  1.00  0.00     0.178 HD
ENDBRANCH  21  24
ENDBRANCH  17  20
ENDBRANCH  10  14
ENDBRANCH   1   8
BRANCH   7  27
HETATM   27  O3  UNL     1      25.928   4.524  13.342  1.00  0.00    -0.380 OA
ATOM     28  H3  UNL     1      25.574   3.651  13.224  1.00  0.00     0.211 HD
ENDBRANCH   7  27
BRANCH   7  29
HETATM   29  C13 UNL     1      24.329   6.262  13.708  1.00  0.00     0.123 C
HETATM   30  N5  UNL     1      24.298   6.217  14.974  1.00  0.00    -0.299 N
ATOM     31  H5  UNL     1      23.748   6.959  15.409  1.00  0.00     0.187 HD
BRANCH  30  32
HETATM   32  N6  UNL     1      24.871   5.352  15.853  1.00  0.00    -0.250 N
HETATM   33  N7  UNL     1      24.431   4.175  16.024  1.00  0.00    -0.331 N
ATOM     34  H72 UNL     1      23.622   3.884  15.476  1.00  0.00     0.178 HD
ATOM     35  H71 UNL     1      24.861   3.526  16.683  1.00  0.00     0.178 HD
ATOM     36  H6  UNL     1      25.679   5.660  16.393  1.00  0.00     0.207 HD
ENDBRANCH  30  32
ENDBRANCH   7  29
BRANCH   6  37
HETATM   37  C11 UNL     1      23.270   3.601  12.375  1.00  0.00     0.186 C
HETATM   38  O1  UNL     1      23.171   3.475  13.621  1.00  0.00    -0.647 OA
HETATM   39  O2  UNL     1      22.600   2.698  11.577  1.00  0.00    -0.647 OA
ENDBRANCH   6  37
TORSDOF 8
ENDMDL