MODEL 2
REMARK VINA RESULT: -8.186199815      2.741      3.468
REMARK  8 active torsions:
REMARK  status: ('A' for Active; 'I' for Inactive)
REMARK    1  A    between atoms: O1_2  and  C2_3
REMARK    2  A    between atoms: C4_5  and  C5_6
REMARK    3  A    between atoms: C6_10  and  O2_11
REMARK    4  A    between atoms: O2_11  and  C7_12
REMARK    5  A    between atoms: C7_12  and  C8_13
REMARK    6  A    between atoms: C12_18  and  C13_19
REMARK    7  A    between atoms: C15_23  and  N2_24
REMARK    8  A    between atoms: C18_31  and  N4_32
REMARK       I    between atoms: N4_32  and  C19_34
REMARK       I    between atoms: C19_34  and  N5_36
ROOT
HETATM    1  C2  UNL     1      25.521   5.857  14.298  1.00  0.00     0.144 C
HETATM    2  C3  UNL     1      24.980   4.736  13.445  1.00  0.00     0.050 C
HETATM    3  C4  UNL     1      24.788   5.268  12.034  1.00  0.00     0.125 C
HETATM    4  C6  UNL     1      25.984   6.121  11.711  1.00  0.00     0.136 C
HETATM    5  C17 UNL     1      25.616   7.504  12.388  1.00  0.00     0.060 C
HETATM    6  C18 UNL     1      25.043   7.178  13.735  1.00  0.00     0.117 C
ENDROOT
BRANCH   4   7
HETATM    7  O2  UNL     1      26.269   6.302  10.442  1.00  0.00    -0.385 OA
BRANCH   7   8
HETATM    8  C7  UNL     1      27.408   6.063   9.840  1.00  0.00     0.175 C
BRANCH   8   9
HETATM    9  C8  UNL     1      28.259   7.048   9.150  1.00  0.00     0.042 C
HETATM   10  C9  UNL     1      29.541   6.534   8.587  1.00  0.00     0.174 C
HETATM   11  O3  UNL     1      30.296   6.021   9.644  1.00  0.00    -0.391 OA
HETATM   12  C10 UNL     1      30.822   7.019  10.436  1.00  0.00     0.168 C
HETATM   13  C11 UNL     1      29.910   8.136  10.745  1.00  0.00     0.036 C
HETATM   14  C12 UNL     1      28.579   8.171  10.118  1.00  0.00     0.031 C
BRANCH  14  15
HETATM   15  C13 UNL     1      28.235   9.510   9.514  1.00  0.00    -0.021 A
HETATM   16  C14 UNL     1      26.998   9.740   8.911  1.00  0.00     0.115 A
HETATM   17  N1  UNL     1      26.704  10.941   8.387  1.00  0.00    -0.202 N
HETATM   18  C15 UNL     1      27.591  11.934   8.434  1.00  0.00     0.675 A
ATOM     19  H1  UNL     1      25.795  11.094   7.950  1.00  0.00     0.183 HD
HETATM   20  N3  UNL     1      28.778  11.746   9.002  1.00  0.00    -0.202 N
HETATM   21  C16 UNL     1      29.115  10.567   9.538  1.00  0.00     0.115 A
ATOM     22  H3  UNL     1      29.445  12.517   9.030  1.00  0.00     0.183 HD
BRANCH  18  23
HETATM   23  N2  UNL     1      27.218  13.067   7.899  1.00  0.00    -0.234 N
ATOM     24  H22 UNL     1      26.614  13.131   7.079  1.00  0.00     0.174 HD
ATOM     25  H21 UNL     1      27.568  13.914   8.347  1.00  0.00     0.174 HD
ENDBRANCH  18  23
ENDBRANCH  14  15
ENDBRANCH   8   9
ENDBRANCH   7   8
ENDBRANCH   4   7
BRANCH   3  26
HETATM   26  C5  UNL     1      24.415   4.234  11.041  1.00  0.00     0.393 C
HETATM   27  F1  UNL     1      25.401   3.463  10.534  1.00  0.00    -0.171 F
HETATM   28  F2  UNL     1      23.643   4.835  10.059  1.00  0.00    -0.171 F
HETATM   29  F3  UNL     1      23.523   3.364  11.692  1.00  0.00    -0.171 F
ENDBRANCH   3  26
BRANCH   6  30
HETATM   30  N4  UNL     1      25.363   8.241  14.707  1.00  0.00    -0.336 N
HETATM   31  C19 UNL     1      24.563   9.403  14.823  1.00  0.00     0.317 C
HETATM   32  O4  UNL     1      23.559   9.504  14.064  1.00  0.00    -0.247 OA
HETATM   33  N5  UNL     1      24.813  10.444  15.723  1.00  0.00    -0.343 N
HETATM   34  C20 UNL     1      23.972  11.623  15.809  1.00  0.00     0.154 C
HETATM   35  C21 UNL     1      25.956  10.382  16.634  1.00  0.00     0.154 C
ATOM     36  H4  UNL     1      26.180   8.136  15.308  1.00  0.00     0.164 HD
ENDBRANCH   6  30
BRANCH   1  37
HETATM   37  O1  UNL     1      25.132   5.741  15.628  1.00  0.00    -0.389 OA
HETATM   38  C1  UNL     1      25.006   4.425  16.051  1.00  0.00     0.202 C
ENDBRANCH   1  37
TORSDOF 8
ENDMDL