MODEL 2
REMARK VINA RESULT: -4.953101269      2.509      3.233
REMARK  2 active torsions:
REMARK  status: ('A' for Active; 'I' for Inactive)
REMARK    1  A    between atoms: N1_1  and  C1_4
REMARK    2  A    between atoms: N4_13  and  N5_14
REMARK       I    between atoms: N5_14  and  C4_16
ROOT
HETATM    1  C1  UNL     1       3.030 -14.312  -1.399  1.00  0.00     0.705 A
HETATM    2  N2  UNL     1       2.516 -14.250  -2.645  1.00  0.00    -0.139 N
ATOM      3  H2  UNL     1       2.504 -13.346  -3.116  1.00  0.00     0.189 HD
HETATM    4  C2  UNL     1       2.022 -15.308  -3.298  1.00  0.00     0.342 A
HETATM    5  O1  UNL     1       1.546 -15.239  -4.460  1.00  0.00    -0.246 OA
HETATM    6  N3  UNL     1       2.043 -16.482  -2.675  1.00  0.00    -0.258 N
ATOM      7  H3  UNL     1       1.675 -17.309  -3.145  1.00  0.00     0.175 HD
HETATM    8  C3  UNL     1       2.553 -16.592  -1.415  1.00  0.00     0.364 A
HETATM    9  O2  UNL     1       2.520 -17.750  -0.929  1.00  0.00    -0.244 OA
HETATM   10  N4  UNL     1       3.046 -15.538  -0.762  1.00  0.00    -0.028 N
ENDROOT
BRANCH  10  11
HETATM   11  N5  UNL     1       3.576 -15.565   0.504  1.00  0.00    -0.229 N
HETATM   12  C4  UNL     1       4.825 -15.330   1.043  1.00  0.00     0.348 C
HETATM   13  N6  UNL     1       5.040 -15.454   2.485  1.00  0.00    -0.038 NA
HETATM   14  O3  UNL     1       5.837 -15.007   0.403  1.00  0.00    -0.249 OA
ATOM     15  H5  UNL     1       2.886 -15.818   1.212  1.00  0.00     0.192 HD
ENDBRANCH  10  11
BRANCH   1  16
HETATM   16  N1  UNL     1       3.457 -13.233  -0.913  1.00  0.00    -0.233 N
ATOM     17  H12 UNL     1       2.878 -12.440  -0.638  1.00  0.00     0.174 HD
ATOM     18  H11 UNL     1       4.467 -13.157  -0.791  1.00  0.00     0.174 HD
ENDBRANCH   1  16
TORSDOF 2
ENDMDL