MODEL 5
REMARK VINA RESULT: -4.408880250      2.429      4.476
REMARK  3 active torsions:
REMARK  status: ('A' for Active; 'I' for Inactive)
REMARK    1  A    between atoms: C4_11  and  C5_12
REMARK    2  A    between atoms: C5_12  and  N4_13
REMARK    3  A    between atoms: C5_12  and  N5_17
ROOT
HETATM    1  N1  UNL     1       0.881 -15.262  -3.004  1.00  0.00    -0.082 NA
HETATM    2  C1  UNL     1       0.655 -14.917  -1.648  1.00  0.00     0.135 A
HETATM    3  N2  UNL     1      -0.589 -15.059  -1.109  1.00  0.00    -0.296 N
ATOM      4  H2  UNL     1      -1.366 -15.411  -1.669  1.00  0.00     0.171 HD
HETATM    5  C2  UNL     1      -0.763 -14.721   0.180  1.00  0.00     0.328 A
HETATM    6  O1  UNL     1      -1.912 -14.841   0.713  1.00  0.00    -0.247 OA
HETATM    7  N3  UNL     1       0.261 -14.255   0.924  1.00  0.00    -0.275 N
ATOM      8  H3  UNL     1       0.092 -14.009   1.899  1.00  0.00     0.173 HD
HETATM    9  C3  UNL     1       1.500 -14.107   0.416  1.00  0.00     0.262 A
HETATM   10  O2  UNL     1       2.469 -13.673   1.099  1.00  0.00    -0.267 OA
HETATM   11  C4  UNL     1       1.710 -14.445  -0.904  1.00  0.00     0.108 A
ENDROOT
BRANCH  11  12
HETATM   12  C5  UNL     1       3.060 -14.293  -1.495  1.00  0.00     0.419 C
BRANCH  12  13
HETATM   13  N4  UNL     1       4.009 -15.231  -0.926  1.00  0.00    -0.046 N
ATOM     14  H43 UNL     1       4.473 -14.839  -0.107  1.00  0.00     0.277 HD
ATOM     15  H42 UNL     1       3.533 -16.016  -0.481  1.00  0.00     0.277 HD
ATOM     16  H41 UNL     1       4.687 -15.552  -1.617  1.00  0.00     0.277 HD
ENDBRANCH  12  13
BRANCH  12  17
HETATM   17  N5  UNL     1       3.618 -12.986  -1.362  1.00  0.00    -0.046 N
ATOM     18  H53 UNL     1       4.510 -13.029  -0.869  1.00  0.00     0.277 HD
ATOM     19  H52 UNL     1       3.935 -12.640  -2.267  1.00  0.00     0.277 HD
ATOM     20  H51 UNL     1       2.999 -12.307  -0.918  1.00  0.00     0.277 HD
ENDBRANCH  12  17
ENDBRANCH  11  12
TORSDOF 3
ENDMDL