MODEL 1
REMARK VINA RESULT: -5.566480811      0.000      0.000
REMARK  2 active torsions:
REMARK  status: ('A' for Active; 'I' for Inactive)
REMARK    1  A    between atoms: N1_1  and  N2_4
REMARK       I    between atoms: N2_4  and  C1_5
REMARK    2  A    between atoms: C1_5  and  C2_7
ROOT
HETATM    1  C2  UNL     1       3.731 -14.770   0.129  1.00  0.00     0.157 A
HETATM    2  C3  UNL     1       3.784 -14.623  -1.222  1.00  0.00     0.141 A
HETATM    3  N3  UNL     1       2.718 -14.134  -2.016  1.00  0.00    -0.081 NA
HETATM    4  N4  UNL     1       4.954 -14.949  -1.848  1.00  0.00    -0.318 N
ATOM      5  H4  UNL     1       5.032 -14.851  -2.860  1.00  0.00     0.169 HD
HETATM    6  C4  UNL     1       6.003 -15.398  -1.136  1.00  0.00     0.196 A
HETATM    7  N5  UNL     1       7.196 -15.712  -1.859  1.00  0.00    -0.063 NA
HETATM    8  N6  UNL     1       5.928 -15.536   0.196  1.00  0.00    -0.296 N
ATOM      9  H6  UNL     1       6.739 -15.879   0.712  1.00  0.00     0.171 HD
HETATM   10  C5  UNL     1       4.786 -15.225   0.871  1.00  0.00     0.268 A
HETATM   11  O2  UNL     1       4.760 -15.372   2.139  1.00  0.00    -0.267 OA
ENDROOT
BRANCH   1  12
HETATM   12  C1  UNL     1       2.453 -14.428   0.835  1.00  0.00     0.354 C
HETATM   13  N2  UNL     1       1.502 -15.351   1.054  1.00  0.00    -0.288 NA
HETATM   14  O1  UNL     1       2.420 -13.185   1.181  1.00  0.00    -0.249 OA
BRANCH  13  15
HETATM   15  N1  UNL     1       0.569 -16.257   1.268  1.00  0.00    -0.276 N
ATOM     16  H12 UNL     1       1.315 -15.588   1.084  1.00  0.00     0.191 HD
ATOM     17  H11 UNL     1      -0.154 -16.958   1.434  1.00  0.00     0.191 HD
ENDBRANCH  13  15
ENDBRANCH   1  12
TORSDOF 2
ENDMDL