MODEL 2
REMARK VINA RESULT: -5.186132141      1.033      1.033
REMARK  4 active torsions:
REMARK  status: ('A' for Active; 'I' for Inactive)
REMARK    1  A    between atoms: N1_1  and  C1_4
REMARK    2  A    between atoms: C2_7  and  C3_8
REMARK    3  A    between atoms: C4_13  and  N5_14
REMARK    4  A    between atoms: N5_14  and  N6_16
ROOT
HETATM    1  C1  UNL     1       1.420 -14.387  -0.130  1.00  0.00     0.692 A
HETATM    2  N2  UNL     1       2.672 -14.544   0.289  1.00  0.00    -0.171 N
ATOM      3  H2  UNL     1       2.865 -14.565   1.290  1.00  0.00     0.186 HD
HETATM    4  C2  UNL     1       3.693 -14.678  -0.583  1.00  0.00     0.201 A
HETATM    5  N4  UNL     1       3.409 -14.648  -1.889  1.00  0.00    -0.169 N
ATOM      6  H4  UNL     1       4.176 -14.749  -2.555  1.00  0.00     0.186 HD
HETATM    7  C4  UNL     1       2.160 -14.492  -2.367  1.00  0.00     0.712 A
HETATM    8  N7  UNL     1       1.168 -14.362  -1.466  1.00  0.00    -0.021 N
ATOM      9  H7  UNL     1       0.208 -14.243  -1.791  1.00  0.00     0.203 HD
ENDROOT
BRANCH   7  10
HETATM   10  N5  UNL     1       1.869 -14.462  -3.620  1.00  0.00    -0.138 N
ATOM     11  H5  UNL     1       2.619 -14.215  -4.267  1.00  0.00     0.205 HD
BRANCH  10  12
HETATM   12  N6  UNL     1       0.640 -14.733  -4.161  1.00  0.00    -0.331 N
ATOM     13  H62 UNL     1       0.229 -13.995  -4.733  1.00  0.00     0.177 HD
ATOM     14  H61 UNL     1       0.115 -15.598  -4.037  1.00  0.00     0.177 HD
ENDBRANCH  10  12
ENDBRANCH   7  10
BRANCH   4  15
HETATM   15  C3  UNL     1       5.068 -14.850  -0.089  1.00  0.00     0.299 C
HETATM   16  N3  UNL     1       6.078 -15.392  -0.919  1.00  0.00    -0.054 NA
HETATM   17  O1  UNL     1       5.348 -14.515   1.078  1.00  0.00    -0.268 OA
ENDBRANCH   4  15
BRANCH   1  18
HETATM   18  N1  UNL     1       0.486 -14.264   0.751  1.00  0.00    -0.234 N
ATOM     19  H12 UNL     1       0.685 -14.115   1.741  1.00  0.00     0.174 HD
ATOM     20  H11 UNL     1      -0.485 -14.318   0.443  1.00  0.00     0.174 HD
ENDBRANCH   1  18
TORSDOF 4
ENDMDL