MODEL 4
REMARK VINA RESULT: -5.152983516      3.045      3.732
REMARK  3 active torsions:
REMARK  status: ('A' for Active; 'I' for Inactive)
REMARK    1  A    between atoms: N1_1  and  N2_4
REMARK    2  A    between atoms: N2_4  and  C1_6
REMARK    3  A    between atoms: C1_6  and  O1_7
ROOT
HETATM    1  C1  UNL     1       0.548 -14.202   0.476  1.00  0.00     0.173 C
HETATM    2  C2  UNL     1       0.935 -14.496  -0.870  1.00  0.00     0.125 A
HETATM    3  C3  UNL     1       2.233 -14.197  -1.311  1.00  0.00     0.140 A
HETATM    4  N3  UNL     1       3.134 -13.604  -0.397  1.00  0.00    -0.081 NA
HETATM    5  N4  UNL     1       2.617 -14.463  -2.562  1.00  0.00    -0.296 N
ATOM      6  H4  UNL     1       3.566 -14.237  -2.859  1.00  0.00     0.171 HD
HETATM    7  C4  UNL     1       1.763 -15.026  -3.433  1.00  0.00     0.328 A
HETATM    8  O2  UNL     1       2.114 -15.286  -4.628  1.00  0.00    -0.247 OA
HETATM    9  N5  UNL     1       0.508 -15.336  -3.072  1.00  0.00    -0.275 N
ATOM     10  H5  UNL     1      -0.132 -15.764  -3.742  1.00  0.00     0.173 HD
HETATM   11  C5  UNL     1       0.097 -15.069  -1.787  1.00  0.00     0.267 A
HETATM   12  O3  UNL     1      -1.081 -15.375  -1.497  1.00  0.00    -0.267 OA
ENDROOT
BRANCH   1  13
HETATM   13  N2  UNL     1      -0.670 -14.408   1.126  1.00  0.00    -0.286 N
ATOM     14  H2  UNL     1      -1.324 -13.637   1.263  1.00  0.00     0.188 HD
BRANCH  13  15
HETATM   15  N1  UNL     1      -0.982 -15.724   1.595  1.00  0.00    -0.343 N
ATOM     16  H12 UNL     1      -0.297 -16.473   1.495  1.00  0.00     0.176 HD
ATOM     17  H11 UNL     1      -1.894 -15.885   2.023  1.00  0.00     0.176 HD
ENDBRANCH  13  15
ENDBRANCH   1  13
BRANCH   1  18
HETATM   18  O1  UNL     1       1.479 -13.656   1.209  1.00  0.00    -0.344 OA
ATOM     19  H1  UNL     1       2.293 -13.475   0.754  1.00  0.00     0.219 HD
ENDBRANCH   1  18
TORSDOF 3
ENDMDL