MODEL 1
REMARK VINA RESULT: -4.339448748      0.000      0.000
REMARK  6 active torsions:
REMARK  status: ('A' for Active; 'I' for Inactive)
REMARK    1  A    between atoms: N2_4  and  C1_6
REMARK    2  A    between atoms: C2_7  and  C3_8
REMARK    3  A    between atoms: C3_8  and  N3_9
REMARK    4  A    between atoms: C3_8  and  N4_13
REMARK    5  A    between atoms: C5_22  and  N7_23
REMARK    6  A    between atoms: N7_23  and  N8_25
ROOT
HETATM    1  C1  UNL     1       1.501 -14.274  -0.448  1.00  0.00     0.119 A
HETATM    2  C2  UNL     1       0.259 -14.818  -0.823  1.00  0.00     0.100 A
HETATM    3  N5  UNL     1       0.086 -15.102  -2.122  1.00  0.00    -0.351 N
ATOM      4  H5  UNL     1      -0.805 -15.499  -2.421  1.00  0.00     0.166 HD
HETATM    5  C4  UNL     1       1.036 -14.888  -3.048  1.00  0.00     0.182 A
HETATM    6  N6  UNL     1       2.225 -14.371  -2.718  1.00  0.00    -0.336 N
ATOM      7  H6  UNL     1       2.941 -14.210  -3.427  1.00  0.00     0.168 HD
HETATM    8  C5  UNL     1       2.458 -14.060  -1.394  1.00  0.00     0.151 A
ENDROOT
BRANCH   2   9
HETATM    9  C3  UNL     1      -0.793 -15.063   0.168  1.00  0.00     0.429 C
BRANCH   9  10
HETATM   10  N3  UNL     1      -0.667 -16.335   0.848  1.00  0.00    -0.045 N
ATOM     11  H33 UNL     1       0.201 -16.801   0.582  1.00  0.00     0.277 HD
ATOM     12  H32 UNL     1      -0.487 -16.195   1.842  1.00  0.00     0.277 HD
ATOM     13  H31 UNL     1      -1.466 -16.955   0.710  1.00  0.00     0.277 HD
ENDBRANCH   9  10
BRANCH   9  14
HETATM   14  N4  UNL     1      -2.083 -15.010  -0.527  1.00  0.00    -0.045 N
ATOM     15  H43 UNL     1      -2.305 -14.079  -0.879  1.00  0.00     0.277 HD
ATOM     16  H42 UNL     1      -2.070 -15.494  -1.424  1.00  0.00     0.277 HD
ATOM     17  H41 UNL     1      -2.794 -15.372   0.109  1.00  0.00     0.277 HD
ENDBRANCH   9  14
ENDBRANCH   2   9
BRANCH   1  18
HETATM   18  N2  UNL     1       1.736 -13.955   0.909  1.00  0.00    -0.302 N
HETATM   19  N1  UNL     1       2.378 -14.763   1.618  1.00  0.00    -0.345 N
ATOM     20  H12 UNL     1       2.719 -15.633   1.208  1.00  0.00     0.176 HD
ATOM     21  H11 UNL     1       2.547 -14.534   2.597  1.00  0.00     0.176 HD
ATOM     22  H2  UNL     1       1.388 -13.082   1.304  1.00  0.00     0.186 HD
ENDBRANCH   1  18
BRANCH   8  23
HETATM   23  N7  UNL     1       3.601 -13.572  -1.133  1.00  0.00    -0.290 N
ATOM     24  H7  UNL     1       3.653 -12.566  -0.969  1.00  0.00     0.188 HD
BRANCH  23  25
HETATM   25  N8  UNL     1       4.771 -14.279  -1.051  1.00  0.00    -0.344 N
ATOM     26  H82 UNL     1       4.734 -15.146  -0.514  1.00  0.00     0.176 HD
ATOM     27  H81 UNL     1       5.657 -14.012  -1.477  1.00  0.00     0.176 HD
ENDBRANCH  23  25
ENDBRANCH   8  23
TORSDOF 6
ENDMDL