MODEL 5
REMARK VINA RESULT: -4.699945039      1.808      2.979
REMARK  4 active torsions:
REMARK  status: ('A' for Active; 'I' for Inactive)
REMARK    1  A    between atoms: N1_1  and  N2_4
REMARK    2  A    between atoms: N2_4  and  C1_6
REMARK    3  A    between atoms: C2_9  and  C3_10
REMARK       I    between atoms: C3_10  and  N4_12
REMARK    4  A    between atoms: N4_12  and  N5_14
ROOT
HETATM    1  C1  UNL     1       1.573 -14.243   0.159  1.00  0.00     0.711 A
HETATM    2  N3  UNL     1       2.799 -14.546   0.626  1.00  0.00    -0.178 N
ATOM      3  H3  UNL     1       2.953 -14.567   1.633  1.00  0.00     0.185 HD
HETATM    4  C2  UNL     1       3.829 -14.823  -0.200  1.00  0.00     0.187 A
HETATM    5  C4  UNL     1       3.574 -14.785  -1.548  1.00  0.00     0.293 A
HETATM    6  O2  UNL     1       4.533 -15.044  -2.332  1.00  0.00    -0.264 OA
HETATM    7  N6  UNL     1       2.342 -14.480  -1.981  1.00  0.00    -0.250 N
ATOM      8  H6  UNL     1       2.171 -14.456  -2.986  1.00  0.00     0.191 HD
HETATM    9  N7  UNL     1       1.341 -14.210  -1.162  1.00  0.00    -0.128 N
ATOM     10  H7  UNL     1       0.417 -13.981  -1.525  1.00  0.00     0.205 HD
ENDROOT
BRANCH   4  11
HETATM   11  C3  UNL     1       5.156 -15.151   0.336  1.00  0.00     0.292 C
HETATM   12  O1  UNL     1       5.574 -14.454   1.287  1.00  0.00    -0.264 OA
HETATM   13  N4  UNL     1       5.929 -16.200  -0.190  1.00  0.00    -0.271 N
ATOM     14  H4  UNL     1       5.578 -16.762  -0.966  1.00  0.00     0.189 HD
BRANCH  13  15
HETATM   15  N5  UNL     1       7.185 -16.466   0.362  1.00  0.00    -0.342 N
ATOM     16  H52 UNL     1       8.020 -16.084  -0.085  1.00  0.00     0.176 HD
ATOM     17  H51 UNL     1       7.249 -17.039   1.204  1.00  0.00     0.176 HD
ENDBRANCH  13  15
ENDBRANCH   4  11
BRANCH   1  18
HETATM   18  N2  UNL     1       0.668 -13.995   1.041  1.00  0.00    -0.137 N
ATOM     19  H2  UNL     1       0.936 -13.401   1.826  1.00  0.00     0.205 HD
BRANCH  18  20
HETATM   20  N1  UNL     1      -0.624 -14.458   1.020  1.00  0.00    -0.331 N
ATOM     21  H12 UNL     1      -1.280 -13.923   0.451  1.00  0.00     0.177 HD
ATOM     22  H11 UNL     1      -0.974 -15.277   1.518  1.00  0.00     0.177 HD
ENDBRANCH  18  20
ENDBRANCH   1  18
TORSDOF 4
ENDMDL