MODEL 4
REMARK VINA RESULT: -4.926886400      1.487      2.442
REMARK  3 active torsions:
REMARK  status: ('A' for Active; 'I' for Inactive)
REMARK       I    between atoms: C1_4  and  N3_6
REMARK    1  A    between atoms: N3_6  and  N4_8
REMARK    2  A    between atoms: N4_8  and  C2_10
REMARK    3  A    between atoms: N6_17  and  N7_18
ROOT
HETATM    1  C2  UNL     1       1.748 -14.378  -1.850  1.00  0.00     0.720 A
HETATM    2  N5  UNL     1       1.046 -14.448  -0.684  1.00  0.00    -0.199 N
ATOM      3  H5  UNL     1       1.473 -14.152   0.193  1.00  0.00     0.183 HD
HETATM    4  C3  UNL     1      -0.214 -14.909  -0.702  1.00  0.00     0.112 A
HETATM    5  C4  UNL     1      -0.827 -15.316  -1.861  1.00  0.00     0.094 A
HETATM    6  C5  UNL     1      -0.099 -15.235  -3.023  1.00  0.00     0.283 A
HETATM    7  O1  UNL     1      -0.568 -15.584  -4.147  1.00  0.00    -0.266 OA
HETATM    8  N6  UNL     1       1.166 -14.771  -2.996  1.00  0.00    -0.053 N
ENDROOT
BRANCH   1   9
HETATM    9  N4  UNL     1       2.939 -13.929  -1.756  1.00  0.00    -0.128 N
ATOM     10  H4  UNL     1       3.385 -13.675  -2.637  1.00  0.00     0.205 HD
BRANCH   9  11
HETATM   11  N3  UNL     1       3.698 -13.742  -0.634  1.00  0.00    -0.259 N
HETATM   12  C1  UNL     1       4.533 -14.750  -0.083  1.00  0.00     0.201 C
HETATM   13  N1  UNL     1       4.562 -15.937  -0.620  1.00  0.00    -0.372 N
HETATM   14  N2  UNL     1       5.359 -14.545   1.043  1.00  0.00    -0.062 NA
ATOM     15  H12 UNL     1       5.162 -16.661  -0.224  1.00  0.00     0.158 HD
ATOM     16  H11 UNL     1       3.966 -16.085  -1.434  1.00  0.00     0.158 HD
ATOM     17  H3  UNL     1       3.663 -12.835  -0.170  1.00  0.00     0.190 HD
ENDBRANCH   9  11
ENDBRANCH   1   9
BRANCH   8  18
HETATM   18  N7  UNL     1       1.917 -14.687  -4.180  1.00  0.00    -0.321 N
ATOM     19  H72 UNL     1       1.728 -15.320  -4.958  1.00  0.00     0.178 HD
ATOM     20  H71 UNL     1       2.649 -13.978  -4.234  1.00  0.00     0.178 HD
ENDBRANCH   8  18
TORSDOF 3
ENDMDL