MODEL 1
REMARK VINA RESULT: -5.316060049      0.000      0.000
REMARK  3 active torsions:
REMARK  status: ('A' for Active; 'I' for Inactive)
REMARK    1  A    between atoms: N1_1  and  N2_4
REMARK       I    between atoms: N2_4  and  C1_6
REMARK       I    between atoms: C1_6  and  N3_8
REMARK    2  A    between atoms: N3_8  and  N4_10
REMARK    3  A    between atoms: N4_10  and  C2_12
ROOT
HETATM    1  N4  UNL     1       3.860 -13.737  -0.413  1.00  0.00    -0.127 N
ATOM      2  H4  UNL     1       4.252 -13.036   0.215  1.00  0.00     0.206 HD
ENDROOT
BRANCH   1   3
HETATM    3  N3  UNL     1       4.688 -14.345  -1.329  1.00  0.00    -0.236 N
HETATM    4  C1  UNL     1       5.816 -15.090  -0.905  1.00  0.00     0.353 C
HETATM    5  N2  UNL     1       6.695 -15.733  -1.828  1.00  0.00    -0.257 N
HETATM    6  O1  UNL     1       6.048 -15.186   0.314  1.00  0.00    -0.244 OA
ATOM      7  H2  UNL     1       6.521 -15.666  -2.830  1.00  0.00     0.191 HD
ATOM      8  H3  UNL     1       4.486 -14.258  -2.325  1.00  0.00     0.192 HD
BRANCH   5   9
HETATM    9  N1  UNL     1       7.784 -16.448  -1.360  1.00  0.00    -0.341 N
ATOM     10  H12 UNL     1       7.808 -17.459  -1.497  1.00  0.00     0.177 HD
ATOM     11  H11 UNL     1       8.547 -15.964  -0.887  1.00  0.00     0.177 HD
ENDBRANCH   5   9
ENDBRANCH   1   3
BRANCH   1  12
HETATM   12  C2  UNL     1       2.593 -14.025  -0.319  1.00  0.00     0.711 A
HETATM   13  N5  UNL     1       1.892 -14.469  -1.379  1.00  0.00    -0.196 N
HETATM   14  C3  UNL     1       0.606 -14.751  -1.246  1.00  0.00     0.152 A
ATOM     15  H5  UNL     1       2.351 -14.587  -2.282  1.00  0.00     0.183 HD
HETATM   16  C4  UNL     1      -0.019 -14.587  -0.005  1.00  0.00     0.147 A
HETATM   17  N6  UNL     1      -1.384 -14.873   0.190  1.00  0.00    -0.080 NA
HETATM   18  N7  UNL     1       0.726 -14.139   1.030  1.00  0.00    -0.272 N
HETATM   19  N8  UNL     1       2.012 -13.859   0.889  1.00  0.00    -0.129 N
ATOM     20  H7  UNL     1       0.286 -14.014   1.941  1.00  0.00     0.189 HD
ATOM     21  H8  UNL     1       2.557 -13.522   1.683  1.00  0.00     0.205 HD
ENDBRANCH   1  12
TORSDOF 3
ENDMDL