MODEL 1
REMARK VINA RESULT: -5.403147884      0.000      0.000
REMARK  3 active torsions:
REMARK  status: ('A' for Active; 'I' for Inactive)
REMARK    1  A    between atoms: N1_1  and  C1_4
REMARK    2  A    between atoms: C2_7  and  C3_8
REMARK       I    between atoms: C3_8  and  N3_10
REMARK    3  A    between atoms: N3_10  and  N4_12
ROOT
HETATM    1  C1  UNL     1       2.763 -14.486  -2.085  1.00  0.00     0.681 A
HETATM    2  N2  UNL     1       4.023 -14.947  -1.984  1.00  0.00    -0.171 N
ATOM      3  H2  UNL     1       4.466 -15.359  -2.806  1.00  0.00     0.186 HD
HETATM    4  C2  UNL     1       4.723 -14.881  -0.825  1.00  0.00     0.195 A
HETATM    5  N5  UNL     1       4.157 -14.349   0.249  1.00  0.00    -0.289 N
ATOM      6  H5  UNL     1       4.668 -14.291   1.130  1.00  0.00     0.172 HD
HETATM    7  C4  UNL     1       2.896 -13.886   0.158  1.00  0.00     0.340 A
HETATM    8  O2  UNL     1       2.373 -13.384   1.187  1.00  0.00    -0.246 OA
HETATM    9  N6  UNL     1       2.188 -13.950  -1.005  1.00  0.00    -0.141 N
ATOM     10  H6  UNL     1       1.234 -13.594  -1.050  1.00  0.00     0.189 HD
ENDROOT
BRANCH   4  11
HETATM   11  C3  UNL     1       6.096 -15.402  -0.780  1.00  0.00     0.304 C
HETATM   12  O1  UNL     1       6.661 -15.574   0.326  1.00  0.00    -0.263 OA
HETATM   13  N3  UNL     1       6.755 -15.701  -2.001  1.00  0.00    -0.270 N
ATOM     14  H3  UNL     1       6.283 -15.556  -2.893  1.00  0.00     0.189 HD
BRANCH  13  15
HETATM   15  N4  UNL     1       8.060 -16.196  -1.961  1.00  0.00    -0.342 N
ATOM     16  H42 UNL     1       8.440 -16.542  -1.080  1.00  0.00     0.176 HD
ATOM     17  H41 UNL     1       8.612 -16.203  -2.819  1.00  0.00     0.176 HD
ENDBRANCH  13  15
ENDBRANCH   4  11
BRANCH   1  18
HETATM   18  N1  UNL     1       2.145 -14.575  -3.215  1.00  0.00    -0.234 N
ATOM     19  H12 UNL     1       1.654 -15.423  -3.496  1.00  0.00     0.174 HD
ATOM     20  H11 UNL     1       2.145 -13.776  -3.849  1.00  0.00     0.174 HD
ENDBRANCH   1  18
TORSDOF 3
ENDMDL