MODEL 4
REMARK VINA RESULT: -6.360730451      1.331      1.970
REMARK  14 active torsions:
REMARK  status: ('A' for Active; 'I' for Inactive)
REMARK    1  A    between atoms: C2_2  and  O1_3
REMARK    2  A    between atoms: C3_6  and  N1_7
REMARK    3  A    between atoms: C5_11  and  N3_12
REMARK       I    between atoms: N3_12  and  C6_14
REMARK    4  A    between atoms: C6_14  and  C7_16
REMARK    5  A    between atoms: C7_16  and  N4_17
REMARK    6  A    between atoms: C7_16  and  C8_21
REMARK    7  A    between atoms: C8_21  and  C9_22
REMARK    8  A    between atoms: C9_22  and  C10_23
REMARK    9  A    between atoms: C10_23  and  N5_24
REMARK   10  A    between atoms: C11_31  and  O5_32
REMARK   11  A    between atoms: C11_31  and  C12_34
REMARK   12  A    between atoms: C12_34  and  N9_40
REMARK   13  A    between atoms: N7_35  and  N8_37
REMARK   14  A    between atoms: N9_40  and  N10_42
ROOT
HETATM    1  N1  UNL     1     -14.508 -19.145  36.163  1.00  0.00    -0.220 N
HETATM    2  C4  UNL     1     -14.400 -18.185  37.099  1.00  0.00     0.223 A
HETATM    3  N2  UNL     1     -15.457 -17.348  37.003  1.00  0.00    -0.185 N
ATOM      4  H2  UNL     1     -15.636 -16.530  37.586  1.00  0.00     0.185 HD
HETATM    5  C5  UNL     1     -16.230 -17.792  35.997  1.00  0.00     0.700 A
HETATM    6  N6  UNL     1     -15.626 -18.880  35.510  1.00  0.00    -0.125 N
ATOM      7  H6  UNL     1     -15.983 -19.437  34.733  1.00  0.00     0.206 HD
ENDROOT
BRANCH   1   8
HETATM    8  C3  UNL     1     -13.557 -20.214  35.969  1.00  0.00     0.400 C
HETATM    9  O2  UNL     1     -12.601 -19.903  35.006  1.00  0.00    -0.300 OA
HETATM   10  C2  UNL     1     -11.367 -20.334  35.513  1.00  0.00     0.228 C
HETATM   11  C1  UNL     1     -10.635 -19.137  35.994  1.00  0.00     0.085 C
HETATM   12  C11 UNL     1     -11.812 -21.298  36.577  1.00  0.00     0.287 C
HETATM   13  O4  UNL     1     -12.874 -20.538  37.141  1.00  0.00    -0.294 OA
BRANCH  10  14
HETATM   14  O1  UNL     1     -10.643 -20.996  34.545  1.00  0.00    -0.361 OA
ATOM     15  H1  UNL     1     -11.221 -21.426  33.926  1.00  0.00     0.213 HD
ENDBRANCH  10  14
BRANCH  12  16
HETATM   16  O5  UNL     1     -12.387 -22.383  35.961  1.00  0.00    -0.355 OA
ATOM     17  H5  UNL     1     -12.629 -23.012  36.631  1.00  0.00     0.213 HD
ENDBRANCH  12  16
BRANCH  12  18
HETATM   18  C12 UNL     1     -10.802 -21.646  37.555  1.00  0.00     0.179 C
HETATM   19  N7  UNL     1      -9.861 -22.488  37.336  1.00  0.00    -0.290 N
ATOM     20  H7  UNL     1      -9.181 -22.686  38.071  1.00  0.00     0.188 HD
BRANCH  19  21
HETATM   21  N8  UNL     1      -9.754 -23.130  36.119  1.00  0.00    -0.344 N
ATOM     22  H82 UNL     1     -10.355 -23.935  35.938  1.00  0.00     0.176 HD
ATOM     23  H81 UNL     1      -9.090 -22.810  35.414  1.00  0.00     0.176 HD
ENDBRANCH  19  21
BRANCH  18  24
HETATM   24  N9  UNL     1     -10.764 -21.066  38.864  1.00  0.00    -0.290 N
ATOM     25  H9  UNL     1     -11.633 -20.923  39.379  1.00  0.00     0.188 HD
BRANCH  24  26
HETATM   26  N10 UNL     1      -9.557 -20.697  39.437  1.00  0.00    -0.344 N
ATOM     27 2H10 UNL     1      -8.893 -20.161  38.879  1.00  0.00     0.176 HD
ATOM     28 1H10 UNL     1      -9.338 -20.957  40.399  1.00  0.00     0.176 HD
ENDBRANCH  24  26
ENDBRANCH  18  24
ENDBRANCH  12  18
ENDBRANCH   1   8
BRANCH   5  29
HETATM   29  N3  UNL     1     -17.346 -17.226  35.614  1.00  0.00    -0.156 N
HETATM   30  C6  UNL     1     -18.210 -17.889  34.679  1.00  0.00     0.266 C
HETATM   31  O3  UNL     1     -18.546 -19.076  34.882  1.00  0.00    -0.270 OA
ATOM     32  H3  UNL     1     -17.604 -16.310  35.981  1.00  0.00     0.187 HD
BRANCH  30  33
HETATM   33  C7  UNL     1     -18.652 -17.123  33.511  1.00  0.00     0.275 C
BRANCH  33  34
HETATM   34  N4  UNL     1     -18.920 -18.180  32.480  1.00  0.00    -0.066 N
ATOM     35  H43 UNL     1     -19.154 -19.095  32.864  1.00  0.00     0.275 HD
ATOM     36  H42 UNL     1     -19.790 -18.055  31.963  1.00  0.00     0.275 HD
ATOM     37  H41 UNL     1     -18.080 -18.167  31.902  1.00  0.00     0.275 HD
ENDBRANCH  33  34
BRANCH  33  38
HETATM   38  C8  UNL     1     -19.877 -16.331  33.689  1.00  0.00     0.044 C
BRANCH  38  39
HETATM   39  C9  UNL     1     -19.832 -14.870  33.567  1.00  0.00     0.030 C
BRANCH  39  40
HETATM   40  C10 UNL     1     -18.566 -14.138  33.733  1.00  0.00     0.230 C
BRANCH  40  41
HETATM   41  N5  UNL     1     -18.150 -13.696  32.375  1.00  0.00    -0.079 N
ATOM     42  H53 UNL     1     -18.565 -14.251  31.626  1.00  0.00     0.274 HD
ATOM     43  H52 UNL     1     -18.548 -12.797  32.104  1.00  0.00     0.274 HD
ATOM     44  H51 UNL     1     -17.131 -13.705  32.366  1.00  0.00     0.274 HD
ENDBRANCH  40  41
ENDBRANCH  39  40
ENDBRANCH  38  39
ENDBRANCH  33  38
ENDBRANCH  30  33
ENDBRANCH   5  29
TORSDOF 14
ENDMDL