MODEL 2
REMARK VINA RESULT: -6.189897910      3.895      7.754
REMARK  12 active torsions:
REMARK  status: ('A' for Active; 'I' for Inactive)
REMARK    1  A    between atoms: N1_1  and  N2_4
REMARK    2  A    between atoms: N2_4  and  N3_5
REMARK    3  A    between atoms: N3_5  and  C1_7
REMARK    4  A    between atoms: C1_7  and  C2_8
REMARK    5  A    between atoms: C2_8  and  N4_9
REMARK    6  A    between atoms: N5_11  and  C4_13
REMARK    7  A    between atoms: C5_17  and  C6_18
REMARK    8  A    between atoms: C6_18  and  O1_19
REMARK    9  A    between atoms: C7_21  and  O2_22
REMARK   10  A    between atoms: C8_24  and  O3_25
REMARK   11  A    between atoms: C9_29  and  N8_30
REMARK   12  A    between atoms: C12_38  and  N10_39
ROOT
HETATM    1  N4  UNL     1     -16.231 -20.071  35.184  1.00  0.00    -0.165 N
HETATM    2  C3  UNL     1     -15.131 -19.451  35.706  1.00  0.00     0.685 A
HETATM    3  N5  UNL     1     -14.030 -20.079  35.672  1.00  0.00    -0.194 N
ATOM      4  H5  UNL     1     -14.045 -21.009  35.253  1.00  0.00     0.180 HD
HETATM    5  N7  UNL     1     -15.210 -18.218  36.238  1.00  0.00    -0.176 N
ATOM      6  H7  UNL     1     -14.367 -17.787  36.618  1.00  0.00     0.186 HD
HETATM    7  C9  UNL     1     -16.369 -17.539  36.281  1.00  0.00     0.134 A
HETATM    8  C10 UNL     1     -17.499 -18.133  35.763  1.00  0.00     0.122 A
HETATM    9  C11 UNL     1     -18.697 -17.473  35.789  1.00  0.00     0.277 A
HETATM   10  O4  UNL     1     -18.744 -16.328  36.288  1.00  0.00    -0.266 OA
HETATM   11  N9  UNL     1     -19.772 -18.094  35.270  1.00  0.00    -0.155 N
ATOM     12  H9  UNL     1     -20.673 -17.617  35.279  1.00  0.00     0.187 HD
HETATM   13  C12 UNL     1     -19.691 -19.319  34.741  1.00  0.00     0.680 A
HETATM   14  N11 UNL     1     -18.526 -19.980  34.709  1.00  0.00    -0.175 N
ATOM     15  H11 UNL     1     -18.481 -20.914  34.302  1.00  0.00     0.186 HD
HETATM   16  C13 UNL     1     -17.422 -19.415  35.209  1.00  0.00     0.158 A
ENDROOT
BRANCH   1  17
HETATM   17  C2  UNL     1     -16.090 -21.391  34.626  1.00  0.00     0.171 C
BRANCH  17  18
HETATM   18  C1  UNL     1     -15.887 -21.357  33.125  1.00  0.00     0.176 C
BRANCH  18  19
HETATM   19  N3  UNL     1     -16.667 -22.385  32.462  1.00  0.00    -0.251 N
ATOM     20  H3  UNL     1     -16.308 -22.874  31.642  1.00  0.00     0.197 HD
BRANCH  19  21
HETATM   21  N2  UNL     1     -17.782 -22.645  32.926  1.00  0.00    -0.249 NA
BRANCH  21  22
HETATM   22  N1  UNL     1     -18.920 -22.956  33.255  1.00  0.00    -0.261 N
ATOM     23  H12 UNL     1     -19.029 -21.956  33.422  1.00  0.00     0.193 HD
ATOM     24  H11 UNL     1     -19.836 -23.329  33.504  1.00  0.00     0.193 HD
ENDBRANCH  21  22
ENDBRANCH  19  21
ENDBRANCH  18  19
ENDBRANCH  17  18
ENDBRANCH   1  17
BRANCH   3  25
HETATM   25  C4  UNL     1     -12.773 -19.616  36.161  1.00  0.00     0.331 C
HETATM   26  N6  UNL     1     -12.426 -18.314  35.571  1.00  0.00    -0.042 N
HETATM   27  C5  UNL     1     -10.997 -18.180  35.786  1.00  0.00     0.242 C
ATOM     28  H62 UNL     1     -12.709 -18.210  34.597  1.00  0.00     0.280 HD
ATOM     29  H61 UNL     1     -12.975 -17.534  35.935  1.00  0.00     0.280 HD
HETATM   30  C7  UNL     1     -10.459 -19.573  35.732  1.00  0.00     0.183 C
HETATM   31  C8  UNL     1     -11.660 -20.480  35.599  1.00  0.00     0.199 C
BRANCH  27  32
HETATM   32  C6  UNL     1     -10.460 -17.274  34.718  1.00  0.00     0.199 C
BRANCH  32  33
HETATM   33  O1  UNL     1     -11.099 -17.510  33.500  1.00  0.00    -0.399 OA
ATOM     34  H1  UNL     1     -11.529 -16.723  33.186  1.00  0.00     0.209 HD
ENDBRANCH  32  33
ENDBRANCH  27  32
BRANCH  30  35
HETATM   35  O2  UNL     1      -9.561 -19.727  34.692  1.00  0.00    -0.391 OA
ATOM     36  H2  UNL     1      -9.233 -18.888  34.389  1.00  0.00     0.210 HD
ENDBRANCH  30  35
BRANCH  31  37
HETATM   37  O3  UNL     1     -11.918 -20.804  34.269  1.00  0.00    -0.389 OA
ATOM     38  H3  UNL     1     -12.085 -21.735  34.180  1.00  0.00     0.210 HD
ENDBRANCH  31  37
ENDBRANCH   3  25
BRANCH   7  39
HETATM   39  N8  UNL     1     -16.492 -16.357  36.781  1.00  0.00    -0.384 N
ATOM     40  H82 UNL     1     -15.643 -15.887  37.098  1.00  0.00     0.157 HD
ATOM     41  H81 UNL     1     -17.383 -15.870  36.877  1.00  0.00     0.157 HD
ENDBRANCH   7  39
BRANCH  13  42
HETATM   42  N10 UNL     1     -20.791 -19.837  34.263  1.00  0.00    -0.234 N
ATOM     43 2H10 UNL     1     -21.518 -19.261  33.839  1.00  0.00     0.174 HD
ATOM     44 1H10 UNL     1     -20.898 -20.849  34.331  1.00  0.00     0.174 HD
ENDBRANCH  13  42
TORSDOF 12
ENDMDL