MODEL 5
REMARK VINA RESULT: -7.218523465      2.225      3.040
REMARK  10 active torsions:
REMARK  status: ('A' for Active; 'I' for Inactive)
REMARK    1  A    between atoms: N1_1  and  C1_5
REMARK    2  A    between atoms: C2_6  and  C3_7
REMARK    3  A    between atoms: C3_7  and  C4_8
REMARK    4  A    between atoms: C4_8  and  C5_10
REMARK    5  A    between atoms: C5_10  and  C6_11
REMARK       I    between atoms: C6_11  and  N2_13
REMARK    6  A    between atoms: N2_13  and  C7_15
REMARK    7  A    between atoms: C8_18  and  O3_19
REMARK    8  A    between atoms: C10_28  and  O6_29
REMARK    9  A    between atoms: C10_28  and  C11_31
REMARK   10  A    between atoms: C12_34  and  O9_35
ROOT
HETATM    1  C4  UNL     1     -14.836 -20.048  37.892  1.00  0.00     0.138 C
HETATM    2  O1  UNL     1     -14.975 -21.141  38.371  1.00  0.00    -0.297 OA
ENDROOT
BRANCH   1   3
HETATM    3  C3  UNL     1     -13.643 -19.483  37.256  1.00  0.00     0.113 C
BRANCH   3   4
HETATM    4  C2  UNL     1     -12.781 -20.414  36.478  1.00  0.00     0.165 C
HETATM    5  C1  UNL     1     -11.409 -20.631  37.027  1.00  0.00     0.247 C
HETATM    6  C12 UNL     1     -10.585 -20.788  35.764  1.00  0.00     0.225 C
HETATM    7  C10 UNL     1     -11.355 -19.916  34.809  1.00  0.00     0.283 C
HETATM    8  O5  UNL     1     -12.666 -19.908  35.187  1.00  0.00    -0.337 OA
BRANCH   5   9
HETATM    9  N1  UNL     1     -11.275 -21.815  37.864  1.00  0.00    -0.070 N
ATOM     10  H13 UNL     1     -12.013 -21.838  38.568  1.00  0.00     0.274 HD
ATOM     11  H12 UNL     1     -11.514 -22.653  37.335  1.00  0.00     0.274 HD
ATOM     12  H11 UNL     1     -10.361 -21.920  38.303  1.00  0.00     0.274 HD
ENDBRANCH   5   9
BRANCH   6  13
HETATM   13  O9  UNL     1     -10.597 -22.122  35.356  1.00  0.00    -0.387 OA
ATOM     14  H9  UNL     1     -11.493 -22.433  35.300  1.00  0.00     0.210 HD
ENDBRANCH   6  13
BRANCH   7  15
HETATM   15  O6  UNL     1     -11.198 -20.411  33.496  1.00  0.00    -0.355 OA
ATOM     16  H6  UNL     1     -10.530 -19.930  33.021  1.00  0.00     0.213 HD
ENDBRANCH   7  15
BRANCH   7  17
HETATM   17  C11 UNL     1     -10.694 -18.569  34.850  1.00  0.00     0.241 C
HETATM   18  O7  UNL     1      -9.518 -18.420  35.304  1.00  0.00    -0.644 OA
HETATM   19  O8  UNL     1     -11.327 -17.425  34.396  1.00  0.00    -0.644 OA
ENDBRANCH   7  17
ENDBRANCH   3   4
ENDBRANCH   1   3
BRANCH   1  20
HETATM   20  C5  UNL     1     -16.056 -19.151  37.961  1.00  0.00     0.181 C
BRANCH  20  21
HETATM   21  C6  UNL     1     -16.567 -18.911  36.568  1.00  0.00     0.242 C
HETATM   22  O2  UNL     1     -16.182 -17.836  36.019  1.00  0.00    -0.272 OA
HETATM   23  N2  UNL     1     -17.420 -19.817  35.910  1.00  0.00    -0.159 N
ATOM     24  H2  UNL     1     -18.397 -19.837  36.201  1.00  0.00     0.187 HD
BRANCH  23  25
HETATM   25  C7  UNL     1     -17.068 -20.616  34.979  1.00  0.00     0.692 A
HETATM   26  N3  UNL     1     -15.766 -20.637  34.570  1.00  0.00    -0.154 N
HETATM   27  C8  UNL     1     -15.373 -21.469  33.594  1.00  0.00     0.239 A
ATOM     28  H3  UNL     1     -15.087 -20.017  35.010  1.00  0.00     0.188 HD
HETATM   29  N4  UNL     1     -16.239 -22.286  33.005  1.00  0.00    -0.273 N
HETATM   30  C9  UNL     1     -17.527 -22.278  33.396  1.00  0.00     0.341 A
ATOM     31  H4  UNL     1     -15.931 -22.915  32.263  1.00  0.00     0.174 HD
HETATM   32  O4  UNL     1     -18.316 -23.066  32.815  1.00  0.00    -0.246 OA
HETATM   33  N5  UNL     1     -17.927 -21.448  34.373  1.00  0.00    -0.141 N
ATOM     34  H5  UNL     1     -18.906 -21.450  34.661  1.00  0.00     0.189 HD
BRANCH  27  35
HETATM   35  O3  UNL     1     -14.040 -21.496  33.169  1.00  0.00    -0.332 OA
ATOM     36  H3  UNL     1     -13.671 -20.772  32.677  1.00  0.00     0.221 HD
ENDBRANCH  27  35
ENDBRANCH  23  25
ENDBRANCH  20  21
ENDBRANCH   1  20
TORSDOF 10
ENDMDL