MODEL 5
REMARK VINA RESULT: -6.010012662      3.532      6.362
REMARK  13 active torsions:
REMARK  status: ('A' for Active; 'I' for Inactive)
REMARK    1  A    between atoms: N1_1  and  O1_4
REMARK    2  A    between atoms: O1_4  and  C1_5
REMARK    3  A    between atoms: C1_5  and  O2_6
REMARK    4  A    between atoms: C1_5  and  C2_8
REMARK    5  A    between atoms: C2_8  and  O3_9
REMARK    6  A    between atoms: C2_8  and  C3_11
REMARK    7  A    between atoms: C3_11  and  O4_12
REMARK    8  A    between atoms: C3_11  and  C4_14
REMARK    9  A    between atoms: C4_14  and  N2_15
REMARK   10  A    between atoms: C10_25  and  N4_26
REMARK   11  A    between atoms: N4_26  and  C11_28
REMARK   12  A    between atoms: C12_29  and  N5_30
REMARK   13  A    between atoms: C13_34  and  O7_35
ROOT
HETATM    1  N2  UNL     1     -14.421 -20.610  35.463  1.00  0.00    -0.339 N
HETATM    2  C5  UNL     1     -14.081 -21.773  34.835  1.00  0.00     0.096 A
HETATM    3  C6  UNL     1     -14.834 -22.420  33.922  1.00  0.00     0.073 A
HETATM    4  C7  UNL     1     -16.051 -21.904  33.563  1.00  0.00     0.192 A
HETATM    5  O5  UNL     1     -16.801 -22.453  32.720  1.00  0.00    -0.287 OA
HETATM    6  C8  UNL     1     -16.428 -20.725  34.184  1.00  0.00     0.127 A
HETATM    7  C9  UNL     1     -17.661 -20.216  33.852  1.00  0.00     0.277 A
HETATM    8  O6  UNL     1     -18.387 -20.813  32.985  1.00  0.00    -0.266 OA
HETATM    9  N3  UNL     1     -18.083 -19.095  34.447  1.00  0.00    -0.155 N
ATOM     10  H3  UNL     1     -18.997 -18.709  34.206  1.00  0.00     0.187 HD
HETATM   11  C10 UNL     1     -17.322 -18.475  35.352  1.00  0.00     0.683 A
HETATM   12  N6  UNL     1     -16.121 -18.982  35.666  1.00  0.00    -0.175 N
ATOM     13  H6  UNL     1     -15.563 -18.486  36.361  1.00  0.00     0.186 HD
HETATM   14  C14 UNL     1     -15.605 -20.093  35.129  1.00  0.00     0.143 A
ENDROOT
BRANCH   1  15
HETATM   15  C4  UNL     1     -13.511 -19.975  36.351  1.00  0.00     0.164 C
BRANCH  15  16
HETATM   16  C3  UNL     1     -12.362 -19.224  35.708  1.00  0.00     0.170 C
BRANCH  16  17
HETATM   17  C2  UNL     1     -11.034 -19.697  36.114  1.00  0.00     0.205 C
BRANCH  17  18
HETATM   18  C1  UNL     1     -10.417 -20.703  35.168  1.00  0.00     0.316 C
BRANCH  18  19
HETATM   19  O1  UNL     1     -10.792 -21.996  35.418  1.00  0.00    -0.252 OA
BRANCH  19  20
HETATM   20  N1  UNL     1      -9.969 -22.660  36.247  1.00  0.00    -0.308 N
ATOM     21  H12 UNL     1     -10.282 -23.467  36.787  1.00  0.00     0.184 HD
ATOM     22  H11 UNL     1      -9.020 -22.288  36.285  1.00  0.00     0.184 HD
ENDBRANCH  19  20
ENDBRANCH  18  19
BRANCH  18  23
HETATM   23  O2  UNL     1     -10.909 -20.378  33.882  1.00  0.00    -0.367 OA
ATOM     24  H2  UNL     1     -11.786 -20.034  34.004  1.00  0.00     0.212 HD
ENDBRANCH  18  23
ENDBRANCH  17  18
BRANCH  17  25
HETATM   25  O3  UNL     1     -11.099 -20.327  37.350  1.00  0.00    -0.388 OA
ATOM     26  H3  UNL     1     -11.412 -19.670  37.961  1.00  0.00     0.210 HD
ENDBRANCH  17  25
ENDBRANCH  16  17
BRANCH  16  27
HETATM   27  O4  UNL     1     -12.547 -17.847  36.070  1.00  0.00    -0.391 OA
ATOM     28  H4  UNL     1     -12.153 -17.272  35.424  1.00  0.00     0.210 HD
ENDBRANCH  16  27
ENDBRANCH  15  16
ENDBRANCH   1  15
BRANCH  11  29
HETATM   29  N4  UNL     1     -17.758 -17.413  35.896  1.00  0.00    -0.217 N
ATOM     30  H4  UNL     1     -18.277 -17.514  36.768  1.00  0.00     0.178 HD
BRANCH  29  31
HETATM   31  C11 UNL     1     -17.582 -16.084  35.383  1.00  0.00     0.163 A
HETATM   32  C12 UNL     1     -18.723 -15.132  35.722  1.00  0.00     0.239 A
HETATM   33  C13 UNL     1     -18.469 -15.620  34.290  1.00  0.00     0.176 A
BRANCH  32  34
HETATM   34  N5  UNL     1     -19.894 -15.677  36.386  1.00  0.00    -0.070 N
ATOM     35  H53 UNL     1     -19.770 -16.681  36.511  1.00  0.00     0.274 HD
ATOM     36  H52 UNL     1     -19.905 -15.361  37.356  1.00  0.00     0.274 HD
ATOM     37  H51 UNL     1     -20.808 -15.503  35.968  1.00  0.00     0.274 HD
ENDBRANCH  32  34
BRANCH  33  38
HETATM   38  O7  UNL     1     -18.105 -14.626  33.416  1.00  0.00    -0.391 OA
ATOM     39  H7  UNL     1     -18.446 -13.742  33.478  1.00  0.00     0.210 HD
ENDBRANCH  33  38
ENDBRANCH  29  31
ENDBRANCH  11  29
TORSDOF 13
ENDMDL