MODEL 1
REMARK VINA RESULT: -7.217579418      0.000      0.000
REMARK  11 active torsions:
REMARK  status: ('A' for Active; 'I' for Inactive)
REMARK    1  A    between atoms: C3_3  and  O1_4
REMARK    2  A    between atoms: C4_6  and  C5_7
REMARK       I    between atoms: C5_7  and  N1_9
REMARK    3  A    between atoms: N1_9  and  N2_11
REMARK    4  A    between atoms: C6_14  and  N3_15
REMARK    5  A    between atoms: N3_15  and  C7_17
REMARK    6  A    between atoms: C8_22  and  C9_23
REMARK    7  A    between atoms: C10_24  and  C11_25
REMARK    8  A    between atoms: C10_24  and  C12_28
REMARK    9  A    between atoms: C11_25  and  O3_26
REMARK   10  A    between atoms: C12_28  and  O4_29
REMARK   11  A    between atoms: N8_38  and  O6_39
ROOT
HETATM    1  C1  UNL     1     -15.261 -19.192  38.357  1.00  0.00     0.017 C
HETATM    2  C2  UNL     1     -14.620 -19.473  37.375  1.00  0.00    -0.053 C
HETATM    3  C3  UNL     1     -13.821 -19.792  36.152  1.00  0.00     0.243 C
HETATM    4  C4  UNL     1     -12.373 -19.599  36.491  1.00  0.00     0.218 C
HETATM    5  C6  UNL     1     -11.820 -20.840  37.051  1.00  0.00     0.117 C
HETATM    6  N7  UNL     1     -12.339 -21.991  36.839  1.00  0.00    -0.339 N
ATOM      7  H7  UNL     1     -11.896 -22.805  37.265  1.00  0.00     0.168 HD
HETATM    8  C14 UNL     1     -13.514 -22.204  36.030  1.00  0.00     0.213 C
HETATM    9  N8  UNL     1     -14.229 -21.047  35.672  1.00  0.00    -0.207 N
ENDROOT
BRANCH   3  10
HETATM   10  O1  UNL     1     -14.173 -18.847  35.147  1.00  0.00    -0.358 OA
ATOM     11  H1  UNL     1     -13.706 -19.082  34.354  1.00  0.00     0.213 HD
ENDBRANCH   3  10
BRANCH   4  12
HETATM   12  C5  UNL     1     -11.561 -19.043  35.380  1.00  0.00     0.253 C
HETATM   13  O2  UNL     1     -11.279 -19.838  34.417  1.00  0.00    -0.271 OA
HETATM   14  N1  UNL     1     -11.076 -17.745  35.282  1.00  0.00    -0.276 N
ATOM     15  H1  UNL     1     -11.270 -17.070  36.023  1.00  0.00     0.189 HD
BRANCH  14  16
HETATM   16  N2  UNL     1     -10.317 -17.363  34.162  1.00  0.00    -0.343 N
ATOM     17  H22 UNL     1     -10.324 -17.957  33.333  1.00  0.00     0.176 HD
ATOM     18  H21 UNL     1      -9.771 -16.503  34.189  1.00  0.00     0.176 HD
ENDBRANCH  14  16
ENDBRANCH   4  12
BRANCH   9  19
HETATM   19  O6  UNL     1     -14.597 -21.054  34.398  1.00  0.00    -0.283 OA
ATOM     20  H6  UNL     1     -15.035 -21.850  34.120  1.00  0.00     0.245 HD
ENDBRANCH   9  19
BRANCH   5  21
HETATM   21  N3  UNL     1     -10.646 -20.736  37.852  1.00  0.00    -0.178 N
ATOM     22  H3  UNL     1     -10.050 -19.919  37.718  1.00  0.00     0.185 HD
BRANCH  21  23
HETATM   23  C7  UNL     1     -10.248 -21.694  38.823  1.00  0.00     0.701 A
HETATM   24  N4  UNL     1      -9.483 -22.763  38.470  1.00  0.00    -0.131 N
HETATM   25  N5  UNL     1      -9.111 -23.667  39.350  1.00  0.00    -0.281 N
ATOM     26  H4  UNL     1      -9.192 -22.866  37.498  1.00  0.00     0.205 HD
HETATM   27  C8  UNL     1      -9.424 -23.653  40.648  1.00  0.00     0.117 A
ATOM     28  H5  UNL     1      -8.538 -24.441  39.013  1.00  0.00     0.187 HD
HETATM   29  C13 UNL     1     -10.217 -22.547  41.016  1.00  0.00     0.287 A
HETATM   30  O5  UNL     1     -10.552 -22.465  42.230  1.00  0.00    -0.265 OA
HETATM   31  N6  UNL     1     -10.596 -21.623  40.119  1.00  0.00    -0.153 N
ATOM     32  H6  UNL     1     -11.169 -20.840  40.432  1.00  0.00     0.187 HD
BRANCH  27  33
HETATM   33  C9  UNL     1      -9.037 -24.632  41.630  1.00  0.00     0.044 C
HETATM   34  C10 UNL     1      -9.460 -25.861  41.664  1.00  0.00    -0.031 C
BRANCH  34  35
HETATM   35  C11 UNL     1     -10.410 -26.411  40.679  1.00  0.00     0.200 C
BRANCH  35  36
HETATM   36  O3  UNL     1      -9.743 -26.757  39.486  1.00  0.00    -0.397 OA
ATOM     37  H3  UNL     1     -10.063 -26.234  38.760  1.00  0.00     0.209 HD
ENDBRANCH  35  36
ENDBRANCH  34  35
BRANCH  34  38
HETATM   38  C12 UNL     1      -8.962 -26.784  42.769  1.00  0.00     0.200 C
BRANCH  38  39
HETATM   39  O4  UNL     1      -8.654 -27.993  42.184  1.00  0.00    -0.397 OA
ATOM     40  H4  UNL     1      -7.816 -28.270  42.534  1.00  0.00     0.209 HD
ENDBRANCH  38  39
ENDBRANCH  34  38
ENDBRANCH  27  33
ENDBRANCH  21  23
ENDBRANCH   5  21
TORSDOF 11
ENDMDL