MODEL 2
REMARK VINA RESULT: -6.305888782      2.191      2.522
REMARK  11 active torsions:
REMARK  status: ('A' for Active; 'I' for Inactive)
REMARK    1  A    between atoms: N1_1  and  C1_4
REMARK    2  A    between atoms: C2_7  and  O1_8
REMARK    3  A    between atoms: C3_10  and  C4_11
REMARK    4  A    between atoms: C6_15  and  O4_16
REMARK    5  A    between atoms: C6_15  and  C7_18
REMARK    6  A    between atoms: C9_25  and  N5_26
REMARK    7  A    between atoms: N5_26  and  C10_28
REMARK    8  A    between atoms: C10_28  and  C11_29
REMARK    9  A    between atoms: C10_28  and  C13_35
REMARK   10  A    between atoms: C11_29  and  C12_30
REMARK   11  A    between atoms: C12_30  and  N6_31
ROOT
HETATM    1  C1  UNL     1     -14.824 -19.664  37.489  1.00  0.00     0.145 A
HETATM    2  N2  UNL     1     -16.120 -20.035  37.733  1.00  0.00    -0.319 N
ATOM      3  H2  UNL     1     -16.334 -20.544  38.590  1.00  0.00     0.169 HD
HETATM    4  C2  UNL     1     -17.115 -19.750  36.880  1.00  0.00     0.166 A
HETATM    5  C3  UNL     1     -16.881 -19.063  35.705  1.00  0.00     0.083 A
HETATM    6  N4  UNL     1     -15.641 -18.698  35.454  1.00  0.00    -0.338 N
ATOM      7  H4  UNL     1     -15.443 -18.190  34.592  1.00  0.00     0.167 HD
HETATM    8  C9  UNL     1     -14.594 -18.979  36.318  1.00  0.00     0.146 A
ENDROOT
BRANCH   5   9
HETATM    9  C4  UNL     1     -18.045 -18.797  34.832  1.00  0.00     0.215 C
HETATM   10  C5  UNL     1     -18.140 -17.371  34.439  1.00  0.00     0.280 C
HETATM   11  O2  UNL     1     -17.988 -16.337  35.144  1.00  0.00    -0.264 OA
HETATM   12  O3  UNL     1     -18.443 -17.317  33.086  1.00  0.00    -0.267 OA
HETATM   13  C6  UNL     1     -18.638 -18.595  32.547  1.00  0.00     0.315 C
HETATM   14  C8  UNL     1     -17.955 -19.478  33.521  1.00  0.00     0.218 C
HETATM   15  O6  UNL     1     -17.425 -20.543  33.312  1.00  0.00    -0.290 OA
BRANCH  13  16
HETATM   16  O4  UNL     1     -18.088 -18.719  31.276  1.00  0.00    -0.352 OA
ATOM     17  H4  UNL     1     -18.745 -18.915  30.618  1.00  0.00     0.214 HD
ENDBRANCH  13  16
BRANCH  13  18
HETATM   18  C7  UNL     1     -20.081 -18.955  32.469  1.00  0.00     0.302 C
HETATM   19  N3  UNL     1     -21.061 -17.995  32.136  1.00  0.00    -0.057 NA
HETATM   20  O5  UNL     1     -20.407 -20.132  32.705  1.00  0.00    -0.270 OA
ENDBRANCH  13  18
ENDBRANCH   5   9
BRANCH   4  21
HETATM   21  O1  UNL     1     -18.389 -20.168  37.214  1.00  0.00    -0.345 OA
ATOM     22  H1  UNL     1     -18.996 -20.350  36.507  1.00  0.00     0.219 HD
ENDBRANCH   4  21
BRANCH   8  23
HETATM   23  N5  UNL     1     -13.497 -18.580  35.958  1.00  0.00    -0.360 N
ATOM     24  H5  UNL     1     -13.672 -17.675  35.521  1.00  0.00     0.162 HD
BRANCH  23  25
HETATM   25  C10 UNL     1     -12.146 -18.767  35.862  1.00  0.00     0.174 C
BRANCH  25  26
HETATM   26  C11 UNL     1     -11.473 -17.909  34.774  1.00  0.00     0.061 C
BRANCH  26  27
HETATM   27  C12 UNL     1     -10.009 -17.728  35.077  1.00  0.00     0.232 C
BRANCH  27  28
HETATM   28  N6  UNL     1      -9.222 -18.627  34.254  1.00  0.00    -0.079 N
ATOM     29  H63 UNL     1      -9.073 -19.529  34.706  1.00  0.00     0.274 HD
ATOM     30  H62 UNL     1      -9.740 -18.953  33.439  1.00  0.00     0.274 HD
ATOM     31  H61 UNL     1      -8.342 -18.179  33.996  1.00  0.00     0.274 HD
ENDBRANCH  27  28
ENDBRANCH  26  27
ENDBRANCH  25  26
BRANCH  25  32
HETATM   32  C13 UNL     1     -11.704 -20.159  35.549  1.00  0.00     0.254 C
HETATM   33  N7  UNL     1     -11.344 -21.099  36.546  1.00  0.00    -0.060 NA
HETATM   34  O7  UNL     1     -11.656 -20.495  34.344  1.00  0.00    -0.275 OA
ENDBRANCH  25  32
ENDBRANCH  23  25
ENDBRANCH   8  23
BRANCH   1  35
HETATM   35  N1  UNL     1     -13.952 -19.984  38.364  1.00  0.00    -0.382 N
ATOM     36  H12 UNL     1     -13.806 -19.533  39.267  1.00  0.00     0.157 HD
ATOM     37  H11 UNL     1     -13.338 -20.767  38.143  1.00  0.00     0.157 HD
ENDBRANCH   1  35
TORSDOF 11
ENDMDL