MODEL 2
REMARK VINA RESULT: -5.866074882      1.179      1.615
REMARK  12 active torsions:
REMARK  status: ('A' for Active; 'I' for Inactive)
REMARK    1  A    between atoms: N1_1  and  N2_4
REMARK    2  A    between atoms: N3_7  and  C2_8
REMARK    3  A    between atoms: C2_8  and  C3_9
REMARK    4  A    between atoms: C3_9  and  O1_10
REMARK    5  A    between atoms: C3_9  and  C4_12
REMARK    6  A    between atoms: C4_12  and  O3_14
REMARK    7  A    between atoms: O3_14  and  O4_15
REMARK    8  A    between atoms: C6_18  and  N4_19
REMARK    9  A    between atoms: C7_23  and  O5_24
REMARK   10  A    between atoms: C8_26  and  O6_27
REMARK   11  A    between atoms: C8_26  and  C9_29
REMARK       I    between atoms: C9_29  and  N5_31
REMARK   12  A    between atoms: N5_31  and  C10_33
ROOT
HETATM    1  N2  UNL     1     -16.072 -20.948  36.033  1.00  0.00    -0.292 N
ATOM      2  H2  UNL     1     -16.523 -21.501  35.304  1.00  0.00     0.187 HD
HETATM    3  C1  UNL     1     -16.268 -19.673  36.029  1.00  0.00     0.145 C
HETATM    4  N3  UNL     1     -17.102 -19.195  34.990  1.00  0.00    -0.341 N
HETATM    5  C5  UNL     1     -17.941 -18.025  35.330  1.00  0.00     0.165 C
HETATM    6  C6  UNL     1     -17.274 -17.083  36.268  1.00  0.00     0.234 C
HETATM    7  C7  UNL     1     -15.840 -17.374  36.569  1.00  0.00     0.202 C
HETATM    8  C8  UNL     1     -15.649 -18.800  37.059  1.00  0.00     0.226 C
ENDROOT
BRANCH   8   9
HETATM    9  O6  UNL     1     -16.228 -18.990  38.310  1.00  0.00    -0.371 OA
ATOM     10  H6  UNL     1     -16.530 -18.171  38.685  1.00  0.00     0.211 HD
ENDBRANCH   8   9
BRANCH   8  11
HETATM   11  C9  UNL     1     -14.190 -19.061  37.087  1.00  0.00     0.263 C
HETATM   12  O7  UNL     1     -13.629 -19.652  38.062  1.00  0.00    -0.270 OA
HETATM   13  N5  UNL     1     -13.349 -18.662  36.015  1.00  0.00    -0.353 N
ATOM     14  H5  UNL     1     -13.768 -18.187  35.216  1.00  0.00     0.163 HD
BRANCH  13  15
HETATM   15  C10 UNL     1     -11.920 -18.901  36.010  1.00  0.00     0.087 C
HETATM   16  C11 UNL     1     -11.635 -20.155  35.249  1.00  0.00     0.052 C
HETATM   17  C12 UNL     1     -10.208 -20.319  34.829  1.00  0.00     0.234 C
HETATM   18  N6  UNL     1      -9.482 -19.080  34.733  1.00  0.00    -0.075 N
HETATM   19  C13 UNL     1     -10.384 -18.069  34.248  1.00  0.00     0.234 C
ATOM     20  H62 UNL     1      -9.032 -18.818  35.611  1.00  0.00     0.277 HD
ATOM     21  H61 UNL     1      -8.638 -19.160  34.166  1.00  0.00     0.277 HD
HETATM   22  C14 UNL     1     -11.261 -17.678  35.432  1.00  0.00     0.052 C
ENDBRANCH  13  15
ENDBRANCH   8  11
BRANCH   7  23
HETATM   23  O5  UNL     1     -15.389 -16.448  37.498  1.00  0.00    -0.389 OA
ATOM     24  H5  UNL     1     -16.126 -16.167  38.027  1.00  0.00     0.210 HD
ENDBRANCH   7  23
BRANCH   1  25
HETATM   25  N1  UNL     1     -15.285 -21.622  36.968  1.00  0.00    -0.344 N
ATOM     26  H12 UNL     1     -14.998 -21.093  37.791  1.00  0.00     0.176 HD
ATOM     27  H11 UNL     1     -14.987 -22.593  36.878  1.00  0.00     0.176 HD
ENDBRANCH   1  25
BRANCH   4  28
HETATM   28  C2  UNL     1     -17.231 -19.699  33.686  1.00  0.00     0.107 C
BRANCH  28  29
HETATM   29  C3  UNL     1     -18.207 -20.751  33.354  1.00  0.00     0.258 C
BRANCH  29  30
HETATM   30  O1  UNL     1     -19.053 -21.089  34.411  1.00  0.00    -0.380 OA
ATOM     31  H1  UNL     1     -19.682 -21.769  34.198  1.00  0.00     0.211 HD
ENDBRANCH  29  30
BRANCH  29  32
HETATM   32  C4  UNL     1     -17.434 -21.981  33.049  1.00  0.00     0.322 C
HETATM   33  O2  UNL     1     -17.981 -23.071  32.743  1.00  0.00    -0.259 OA
BRANCH  32  34
HETATM   34  O3  UNL     1     -16.059 -21.950  33.095  1.00  0.00    -0.158 OA
BRANCH  34  35
HETATM   35  O4  UNL     1     -15.333 -22.784  33.861  1.00  0.00    -0.242 OA
ATOM     36  H4  UNL     1     -14.465 -22.569  34.182  1.00  0.00     0.254 HD
ENDBRANCH  34  35
ENDBRANCH  32  34
ENDBRANCH  29  32
ENDBRANCH  28  29
ENDBRANCH   4  28
BRANCH   6  37
HETATM   37  N4  UNL     1     -18.012 -16.909  37.511  1.00  0.00    -0.071 N
ATOM     38  H43 UNL     1     -18.958 -16.571  37.331  1.00  0.00     0.274 HD
ATOM     39  H42 UNL     1     -18.236 -17.810  37.933  1.00  0.00     0.274 HD
ATOM     40  H41 UNL     1     -17.528 -16.304  38.175  1.00  0.00     0.274 HD
ENDBRANCH   6  37
TORSDOF 12
ENDMDL