MODEL 1
REMARK VINA RESULT: -6.144444979      0.000      0.000
REMARK  9 active torsions:
REMARK  status: ('A' for Active; 'I' for Inactive)
REMARK       I    between atoms: N1_2  and  C3_4
REMARK    1  A    between atoms: C3_4  and  C4_6
REMARK    2  A    between atoms: C4_6  and  O2_7
REMARK    3  A    between atoms: N2_10  and  C6_12
REMARK    4  A    between atoms: C6_12  and  O3_13
REMARK    5  A    between atoms: C6_12  and  C7_15
REMARK    6  A    between atoms: C7_15  and  N3_16
REMARK    7  A    between atoms: C7_15  and  O4_20
REMARK    8  A    between atoms: C9_27  and  N6_28
REMARK    9  A    between atoms: C13_36  and  C14_37
ROOT
HETATM    1  C4  UNL     1     -14.689 -19.777  35.996  1.00  0.00     0.227 C
HETATM    2  C5  UNL     1     -13.204 -19.710  36.276  1.00  0.00     0.131 C
HETATM    3  N2  UNL     1     -12.513 -18.883  35.618  1.00  0.00    -0.347 N
ATOM      4  H2  UNL     1     -13.017 -18.315  34.937  1.00  0.00     0.163 HD
HETATM    5  N4  UNL     1     -12.685 -20.579  37.255  1.00  0.00    -0.328 N
ATOM      6  H4  UNL     1     -11.689 -20.799  37.291  1.00  0.00     0.169 HD
HETATM    7  C8  UNL     1     -13.593 -21.137  38.188  1.00  0.00     0.139 A
HETATM    8  N5  UNL     1     -13.117 -22.115  39.005  1.00  0.00    -0.176 N
ATOM      9  H5  UNL     1     -12.116 -22.308  39.002  1.00  0.00     0.186 HD
HETATM   10  C9  UNL     1     -13.904 -22.834  39.814  1.00  0.00     0.682 A
HETATM   11  N7  UNL     1     -15.220 -22.584  39.821  1.00  0.00    -0.151 N
HETATM   12  C10 UNL     1     -16.158 -23.308  40.655  1.00  0.00     0.179 C
HETATM   13  C11 UNL     1     -15.761 -21.606  39.019  1.00  0.00     0.276 A
HETATM   14  O5  UNL     1     -16.981 -21.414  39.052  1.00  0.00    -0.266 OA
HETATM   15  C12 UNL     1     -14.982 -20.854  38.189  1.00  0.00     0.088 A
HETATM   16  C13 UNL     1     -15.382 -19.733  37.401  1.00  0.00     0.026 C
ENDROOT
BRANCH   1  17
HETATM   17  C3  UNL     1     -15.077 -20.892  35.183  1.00  0.00     0.266 C
HETATM   18  N1  UNL     1     -16.103 -20.880  34.189  1.00  0.00    -0.358 N
HETATM   19  C1  UNL     1     -16.351 -22.113  33.468  1.00  0.00     0.152 C
HETATM   20  C2  UNL     1     -16.891 -19.719  33.876  1.00  0.00     0.152 C
HETATM   21  O1  UNL     1     -14.469 -22.005  35.341  1.00  0.00    -0.269 OA
ENDBRANCH   1  17
BRANCH   1  22
HETATM   22  O2  UNL     1     -15.031 -18.571  35.401  1.00  0.00    -0.369 OA
ATOM     23  H2  UNL     1     -14.441 -18.358  34.687  1.00  0.00     0.212 HD
ENDBRANCH   1  22
BRANCH   3  24
HETATM   24  C6  UNL     1     -11.098 -18.651  35.718  1.00  0.00     0.275 C
BRANCH  24  25
HETATM   25  O3  UNL     1     -10.425 -19.857  35.884  1.00  0.00    -0.372 OA
ATOM     26  H3  UNL     1     -10.020 -19.890  36.743  1.00  0.00     0.212 HD
ENDBRANCH  24  25
BRANCH  24  27
HETATM   27  C7  UNL     1     -10.538 -17.868  34.545  1.00  0.00     0.365 C
BRANCH  27  28
HETATM   28  N3  UNL     1      -9.238 -18.417  34.228  1.00  0.00    -0.049 N
ATOM     29  H33 UNL     1      -8.470 -17.861  34.605  1.00  0.00     0.277 HD
ATOM     30  H32 UNL     1      -9.040 -19.281  34.733  1.00  0.00     0.277 HD
ATOM     31  H31 UNL     1      -9.186 -18.529  33.216  1.00  0.00     0.277 HD
ENDBRANCH  27  28
BRANCH  27  32
HETATM   32  O4  UNL     1     -10.420 -16.519  34.946  1.00  0.00    -0.367 OA
ATOM     33  H4  UNL     1     -11.068 -16.017  34.466  1.00  0.00     0.212 HD
ENDBRANCH  27  32
ENDBRANCH  24  27
ENDBRANCH   3  24
BRANCH  16  34
HETATM   34  C14 UNL     1     -16.696 -19.192  37.201  1.00  0.00     0.112 C
HETATM   35  N8  UNL     1     -16.945 -17.847  37.638  1.00  0.00    -0.114 NA
ENDBRANCH  16  34
BRANCH  10  36
HETATM   36  N6  UNL     1     -13.466 -23.764  40.595  1.00  0.00    -0.234 N
ATOM     37  H62 UNL     1     -13.298 -23.522  41.572  1.00  0.00     0.174 HD
ATOM     38  H61 UNL     1     -13.282 -24.719  40.287  1.00  0.00     0.174 HD
ENDBRANCH  10  36
TORSDOF 9
ENDMDL