MODEL 1
REMARK VINA RESULT: -6.673650855      0.000      0.000
REMARK  7 active torsions:
REMARK  status: ('A' for Active; 'I' for Inactive)
REMARK    1  A    between atoms: N1_1  and  C1_4
REMARK    2  A    between atoms: N4_15  and  C6_16
REMARK    3  A    between atoms: C6_16  and  C7_17
REMARK    4  A    between atoms: N5_20  and  C8_21
REMARK    5  A    between atoms: C9_23  and  C10_24
REMARK    6  A    between atoms: C10_24  and  N6_25
REMARK       I    between atoms: N6_25  and  C11_27
REMARK    7  A    between atoms: C12_33  and  O7_34
ROOT
HETATM    1  C1  UNL     1     -16.590 -21.782  33.326  1.00  0.00     0.684 A
HETATM    2  N2  UNL     1     -15.500 -22.495  33.607  1.00  0.00    -0.154 N
ATOM      3  H2  UNL     1     -15.379 -23.427  33.210  1.00  0.00     0.187 HD
HETATM    4  C2  UNL     1     -14.567 -21.985  34.410  1.00  0.00     0.290 A
HETATM    5  O1  UNL     1     -13.556 -22.684  34.650  1.00  0.00    -0.265 OA
HETATM    6  C3  UNL     1     -14.703 -20.729  34.962  1.00  0.00     0.153 A
HETATM    7  C4  UNL     1     -15.851 -20.043  34.634  1.00  0.00     0.163 A
HETATM    8  N3  UNL     1     -15.749 -18.869  35.281  1.00  0.00    -0.292 N
ATOM      9  H3  UNL     1     -16.438 -18.118  35.254  1.00  0.00     0.172 HD
HETATM   10  C5  UNL     1     -14.593 -18.842  35.969  1.00  0.00     0.329 A
HETATM   11  O2  UNL     1     -14.147 -17.900  36.701  1.00  0.00    -0.246 OA
HETATM   12  N4  UNL     1     -13.918 -20.012  35.781  1.00  0.00    -0.281 N
HETATM   13  N5  UNL     1     -16.789 -20.531  33.839  1.00  0.00    -0.134 N
ENDROOT
BRANCH  13  14
HETATM   14  C8  UNL     1     -17.988 -19.846  33.480  1.00  0.00     0.306 C
HETATM   15  O5  UNL     1     -17.829 -18.532  33.113  1.00  0.00    -0.327 OA
HETATM   16  C9  UNL     1     -19.124 -18.032  33.059  1.00  0.00     0.344 C
HETATM   17  N8  UNL     1     -19.903 -18.729  34.030  1.00  0.00    -0.017 N
HETATM   18  C12 UNL     1     -19.031 -19.793  34.547  1.00  0.00     0.372 C
ATOM     19  H82 UNL     1     -20.286 -18.125  34.757  1.00  0.00     0.283 HD
ATOM     20  H81 UNL     1     -20.795 -19.069  33.672  1.00  0.00     0.283 HD
BRANCH  16  21
HETATM   21  C10 UNL     1     -19.611 -18.206  31.642  1.00  0.00     0.185 C
BRANCH  21  22
HETATM   22  N6  UNL     1     -21.035 -18.038  31.525  1.00  0.00    -0.341 N
HETATM   23  C11 UNL     1     -21.912 -19.148  31.544  1.00  0.00     0.328 C
HETATM   24  N7  UNL     1     -23.313 -19.019  31.431  1.00  0.00    -0.040 NA
HETATM   25  O6  UNL     1     -21.429 -20.301  31.667  1.00  0.00    -0.251 OA
ATOM     26  H6  UNL     1     -21.420 -17.098  31.425  1.00  0.00     0.163 HD
ENDBRANCH  21  22
ENDBRANCH  16  21
BRANCH  18  27
HETATM   27  O7  UNL     1     -18.566 -19.531  35.809  1.00  0.00    -0.366 OA
ATOM     28  H7  UNL     1     -18.511 -20.283  36.387  1.00  0.00     0.212 HD
ENDBRANCH  18  27
ENDBRANCH  13  14
BRANCH   1  29
HETATM   29  N1  UNL     1     -17.506 -22.267  32.546  1.00  0.00    -0.234 N
ATOM     30  H12 UNL     1     -17.241 -23.026  31.919  1.00  0.00     0.174 HD
ATOM     31  H11 UNL     1     -18.453 -21.890  32.570  1.00  0.00     0.174 HD
ENDBRANCH   1  29
BRANCH  12  32
HETATM   32  C6  UNL     1     -12.642 -20.357  36.369  1.00  0.00     0.247 C
BRANCH  32  33
HETATM   33  C7  UNL     1     -11.479 -19.926  35.560  1.00  0.00     0.192 C
HETATM   34  O3  UNL     1     -10.559 -19.175  35.968  1.00  0.00    -0.647 OA
HETATM   35  O4  UNL     1     -11.341 -20.360  34.226  1.00  0.00    -0.647 OA
ENDBRANCH  32  33
ENDBRANCH  12  32
TORSDOF 7
ENDMDL