MODEL 1
REMARK VINA RESULT: -6.473406514      0.000      0.000
REMARK  12 active torsions:
REMARK  status: ('A' for Active; 'I' for Inactive)
REMARK    1  A    between atoms: N1_1  and  C1_4
REMARK    2  A    between atoms: C2_7  and  N3_8
REMARK    3  A    between atoms: N3_8  and  O1_10
REMARK    4  A    between atoms: C3_14  and  N5_15
REMARK       I    between atoms: N5_15  and  C4_17
REMARK    5  A    between atoms: C4_17  and  C5_19
REMARK    6  A    between atoms: N8_24  and  C7_25
REMARK    7  A    between atoms: C7_25  and  C8_26
REMARK    8  A    between atoms: C8_26  and  N9_27
REMARK    9  A    between atoms: C10_32  and  O3_33
REMARK   10  A    between atoms: C11_35  and  C12_36
REMARK   11  A    between atoms: C12_36  and  O4_37
REMARK   12  A    between atoms: O4_37  and  N10_38
ROOT
HETATM    1  C5  UNL     1     -15.515 -19.686  36.660  1.00  0.00     0.185 C
HETATM    2  N6  UNL     1     -15.211 -20.258  35.334  1.00  0.00    -0.351 N
ATOM      3  H6  UNL     1     -14.239 -20.418  35.069  1.00  0.00     0.163 HD
HETATM    4  C6  UNL     1     -16.167 -20.564  34.489  1.00  0.00     0.187 C
HETATM    5  N7  UNL     1     -15.739 -21.112  33.234  1.00  0.00    -0.064 NA
HETATM    6  N8  UNL     1     -17.580 -20.428  34.644  1.00  0.00    -0.352 N
HETATM    7  C9  UNL     1     -18.250 -20.116  35.889  1.00  0.00     0.157 C
HETATM    8  C10 UNL     1     -17.864 -18.827  36.512  1.00  0.00     0.144 C
HETATM    9  C11 UNL     1     -16.372 -18.510  36.425  1.00  0.00     0.074 C
ENDROOT
BRANCH   1  10
HETATM   10  C4  UNL     1     -14.288 -19.516  37.414  1.00  0.00     0.259 C
HETATM   11  N5  UNL     1     -13.147 -18.952  36.782  1.00  0.00    -0.157 N
ATOM     12  H5  UNL     1     -13.157 -17.943  36.630  1.00  0.00     0.187 HD
HETATM   13  O2  UNL     1     -14.155 -19.841  38.622  1.00  0.00    -0.270 OA
BRANCH  11  14
HETATM   14  C3  UNL     1     -12.120 -19.579  36.388  1.00  0.00     0.714 A
HETATM   15  N4  UNL     1     -11.296 -18.924  35.529  1.00  0.00    -0.019 N
HETATM   16  C2  UNL     1     -10.188 -19.493  35.055  1.00  0.00     0.731 A
ATOM     17  H4  UNL     1     -11.531 -17.974  35.241  1.00  0.00     0.203 HD
HETATM   18  N2  UNL     1      -9.852 -20.734  35.409  1.00  0.00    -0.020 N
HETATM   19  C1  UNL     1     -10.647 -21.405  36.255  1.00  0.00     0.705 A
ATOM     20  H2  UNL     1      -9.004 -21.166  35.042  1.00  0.00     0.203 HD
HETATM   21  N11 UNL     1     -11.764 -20.826  36.731  1.00  0.00    -0.021 N
ATOM     22  H11 UNL     1     -12.358 -21.351  37.373  1.00  0.00     0.203 HD
BRANCH  16  23
HETATM   23  N3  UNL     1      -9.418 -18.853  34.240  1.00  0.00    -0.098 N
ATOM     24  H3  UNL     1      -8.803 -19.368  33.609  1.00  0.00     0.213 HD
BRANCH  23  25
HETATM   25  O1  UNL     1      -9.425 -17.494  34.223  1.00  0.00    -0.276 OA
ATOM     26  H1  UNL     1      -8.649 -17.018  33.953  1.00  0.00     0.245 HD
ENDBRANCH  23  25
ENDBRANCH  16  23
BRANCH  19  27
HETATM   27  N1  UNL     1     -10.283 -22.604  36.570  1.00  0.00    -0.234 N
ATOM     28  H12 UNL     1      -9.560 -22.804  37.261  1.00  0.00     0.174 HD
ATOM     29  H11 UNL     1     -10.758 -23.370  36.092  1.00  0.00     0.174 HD
ENDBRANCH  19  27
ENDBRANCH  11  14
ENDBRANCH   1  10
BRANCH   9  30
HETATM   30  C12 UNL     1     -16.135 -17.295  37.252  1.00  0.00     0.210 C
BRANCH  30  31
HETATM   31  O4  UNL     1     -16.353 -16.102  36.536  1.00  0.00    -0.287 OA
BRANCH  31  32
HETATM   32  N10 UNL     1     -17.249 -15.319  37.182  1.00  0.00    -0.311 N
ATOM     33 2H10 UNL     1     -18.050 -15.679  37.702  1.00  0.00     0.184 HD
ATOM     34 1H10 UNL     1     -17.005 -14.334  37.072  1.00  0.00     0.184 HD
ENDBRANCH  31  32
ENDBRANCH  30  31
ENDBRANCH   9  30
BRANCH   8  35
HETATM   35  O3  UNL     1     -18.532 -17.773  35.848  1.00  0.00    -0.393 OA
ATOM     36  H3  UNL     1     -18.703 -17.073  36.467  1.00  0.00     0.210 HD
ENDBRANCH   8  35
BRANCH   6  37
HETATM   37  C7  UNL     1     -18.414 -20.620  33.463  1.00  0.00     0.152 C
BRANCH  37  38
HETATM   38  C8  UNL     1     -18.806 -19.309  32.840  1.00  0.00     0.249 C
BRANCH  38  39
HETATM   39  N9  UNL     1     -17.679 -18.405  32.712  1.00  0.00    -0.078 N
ATOM     40  H93 UNL     1     -16.841 -18.796  33.143  1.00  0.00     0.274 HD
ATOM     41  H92 UNL     1     -17.356 -18.352  31.747  1.00  0.00     0.274 HD
ATOM     42  H91 UNL     1     -17.886 -17.478  33.083  1.00  0.00     0.274 HD
ENDBRANCH  38  39
ENDBRANCH  37  38
ENDBRANCH   6  37
TORSDOF 12
ENDMDL