MODEL 5
REMARK VINA RESULT: -9.451998990      3.448      4.713
REMARK  7 active torsions:
REMARK  status: ('A' for Active; 'I' for Inactive)
REMARK    1  A    between atoms: C2_2  and  C3_3
REMARK    2  A    between atoms: C2_2  and  C13_16
REMARK    3  A    between atoms: C4_4  and  C5_5
REMARK    4  A    between atoms: C9_9  and  O1_10
REMARK    5  A    between atoms: C13_16  and  O3_17
REMARK    6  A    between atoms: C13_16  and  C14_19
REMARK    7  A    between atoms: C17_23  and  C18_24
ROOT
HETATM    1  C14 UNL     1       0.945  10.948  25.142  1.00  0.00     0.162 C
HETATM    2  O4  UNL     1       2.250  10.494  25.323  1.00  0.00    -0.365 OA
HETATM    3  C15 UNL     1       3.078  11.340  24.691  1.00  0.00     0.128 A
HETATM    4  C16 UNL     1       4.490  11.545  24.841  1.00  0.00     0.087 A
HETATM    5  C17 UNL     1       3.978  10.965  23.582  1.00  0.00     0.110 A
HETATM    6  O6  UNL     1       3.139  11.625  22.718  1.00  0.00    -0.361 OA
HETATM    7  C25 UNL     1       2.320  12.176  23.702  1.00  0.00     0.098 C
HETATM    8  C26 UNL     1       2.534  13.653  23.801  1.00  0.00     0.050 C
HETATM    9  C27 UNL     1       0.932  11.661  23.805  1.00  0.00     0.051 C
HETATM   10  C28 UNL     1      -0.108  12.758  23.880  1.00  0.00     0.016 C
ENDROOT
BRANCH   1  11
HETATM   11  C13 UNL     1      -0.018   9.795  25.039  1.00  0.00     0.179 C
BRANCH  11  12
HETATM   12  C2  UNL     1      -0.125   9.053  26.319  1.00  0.00    -0.037 C
HETATM   13  C1  UNL     1      -0.446   9.768  27.385  1.00  0.00     0.021 C
BRANCH  12  14
HETATM   14  C3  UNL     1       0.049   7.628  26.480  1.00  0.00     0.006 C
HETATM   15  C4  UNL     1       0.717   6.815  25.696  1.00  0.00    -0.013 C
BRANCH  15  16
HETATM   16  C5  UNL     1       0.757   5.371  26.062  1.00  0.00     0.015 C
HETATM   17  C6  UNL     1      -0.489   4.840  26.691  1.00  0.00     0.023 C
HETATM   18  C7  UNL     1       1.275   4.479  24.923  1.00  0.00     0.073 C
HETATM   19  C8  UNL     1       1.910   3.631  26.037  1.00  0.00     0.052 C
HETATM   20  C12 UNL     1       2.402   5.103  24.207  1.00  0.00     0.132 C
HETATM   21  C9  UNL     1       1.984   4.941  26.836  1.00  0.00     0.070 C
HETATM   22  C10 UNL     1       3.257   5.666  26.473  1.00  0.00     0.046 C
HETATM   23  C11 UNL     1       3.544   5.616  25.008  1.00  0.00     0.081 C
HETATM   24  O2  UNL     1       2.432   5.212  23.003  1.00  0.00    -0.298 OA
BRANCH  21  25
HETATM   25  O1  UNL     1       1.797   4.707  28.176  1.00  0.00    -0.389 OA
ATOM     26  H1  UNL     1       0.903   4.533  28.447  1.00  0.00     0.210 HD
ENDBRANCH  21  25
ENDBRANCH  15  16
ENDBRANCH  12  14
ENDBRANCH  11  12
BRANCH  11  27
HETATM   27  O3  UNL     1      -1.311  10.286  24.752  1.00  0.00    -0.388 OA
ATOM     28  H3  UNL     1      -1.265  10.673  23.885  1.00  0.00     0.210 HD
ENDBRANCH  11  27
ENDBRANCH   1  11
BRANCH   5  29
HETATM   29  C18 UNL     1       4.371   9.536  23.302  1.00  0.00     0.009 C
HETATM   30  C19 UNL     1       3.159   8.634  23.184  1.00  0.00     0.023 C
HETATM   31  C20 UNL     1       5.249   8.974  24.331  1.00  0.00    -0.011 C
HETATM   32  C21 UNL     1       6.537   8.837  24.191  1.00  0.00     0.047 C
HETATM   33  C22 UNL     1       7.200   9.245  22.970  1.00  0.00     0.149 C
HETATM   34  O5  UNL     1       8.386   8.900  22.700  1.00  0.00    -0.293 OA
HETATM   35  C23 UNL     1       6.439  10.098  22.017  1.00  0.00     0.084 C
HETATM   36  C24 UNL     1       5.029   9.546  21.916  1.00  0.00     0.024 C
ENDBRANCH   5  29
TORSDOF 7
ENDMDL