MODEL 1
REMARK VINA RESULT: -9.224042738      0.000      0.000
REMARK  5 active torsions:
REMARK  status: ('A' for Active; 'I' for Inactive)
REMARK    1  A    between atoms: C19_22  and  C20_23
REMARK    2  A    between atoms: C20_23  and  C21_24
REMARK    3  A    between atoms: C21_24  and  C22_25
REMARK    4  A    between atoms: C22_25  and  N1_26
REMARK    5  A    between atoms: C22_25  and  O4_30
ROOT
HETATM    1  C1  UNL     1       4.350  13.091  24.406  1.00  0.00     0.044 C
HETATM    2  C2  UNL     1       3.345  12.025  24.132  1.00  0.00    -0.074 C
HETATM    3  C3  UNL     1       2.036  12.217  24.328  1.00  0.00     0.085 C
HETATM    4  C4  UNL     1       1.062  11.126  24.046  1.00  0.00     0.284 C
HETATM    5  O1  UNL     1       0.017  11.600  23.454  1.00  0.00    -0.260 OA
HETATM    6  O2  UNL     1       1.338   9.923  24.392  1.00  0.00    -0.303 OA
HETATM    7  C5  UNL     1       1.270   8.691  24.939  1.00  0.00     0.106 C
HETATM    8  C6  UNL     1      -0.150   8.603  25.575  1.00  0.00     0.074 C
HETATM    9  C7  UNL     1      -0.392   7.183  25.746  1.00  0.00     0.130 C
HETATM   10  O3  UNL     1       0.426   6.612  24.732  1.00  0.00    -0.377 OA
HETATM   11  C8  UNL     1       0.934   7.598  23.968  1.00  0.00     0.154 C
HETATM   12  C9  UNL     1       1.794   7.208  22.882  1.00  0.00     0.042 C
HETATM   13  C10 UNL     1      -0.442   6.459  26.986  1.00  0.00     0.031 A
HETATM   14  C11 UNL     1       0.228   6.175  28.122  1.00  0.00     0.008 A
HETATM   15  C12 UNL     1       1.321   6.739  28.879  1.00  0.00    -0.013 C
HETATM   16  C13 UNL     1       0.686   7.228  30.218  1.00  0.00     0.010 C
HETATM   17  C14 UNL     1       2.294   7.746  28.465  1.00  0.00     0.005 C
HETATM   18  C15 UNL     1       1.834   8.695  27.402  1.00  0.00     0.013 C
HETATM   19  C16 UNL     1       2.337   8.394  25.980  1.00  0.00    -0.003 C
HETATM   20  C17 UNL     1       3.339   9.591  25.816  1.00  0.00     0.013 C
HETATM   21  C18 UNL     1       4.162   9.703  24.648  1.00  0.00     0.010 C
HETATM   22  C19 UNL     1       3.882  10.745  23.613  1.00  0.00     0.014 C
HETATM   23  C23 UNL     1       3.164   7.208  25.881  1.00  0.00     0.053 C
HETATM   24  C24 UNL     1       2.955   5.831  26.282  1.00  0.00     0.085 A
HETATM   25  C25 UNL     1       4.365   5.128  26.450  1.00  0.00     0.049 C
HETATM   26  O5  UNL     1       2.344   4.792  25.582  1.00  0.00    -0.369 OA
HETATM   27  C26 UNL     1       1.906   5.287  26.918  1.00  0.00     0.166 A
HETATM   28  C27 UNL     1       0.491   5.376  26.875  1.00  0.00    -0.004 A
HETATM   29  C28 UNL     1      -0.190   4.014  26.623  1.00  0.00     0.019 C
ENDROOT
BRANCH  22  30
HETATM   30  C20 UNL     1       5.183  10.998  22.838  1.00  0.00     0.013 C
BRANCH  30  31
HETATM   31  C21 UNL     1       6.308  10.161  23.338  1.00  0.00     0.061 C
BRANCH  31  32
HETATM   32  C22 UNL     1       7.177   9.801  22.121  1.00  0.00     0.316 C
BRANCH  32  33
HETATM   33  N1  UNL     1       7.993   8.645  22.469  1.00  0.00    -0.053 N
ATOM     34  H13 UNL     1       8.478   8.759  23.360  1.00  0.00     0.277 HD
ATOM     35  H12 UNL     1       7.434   7.829  22.720  1.00  0.00     0.277 HD
ATOM     36  H11 UNL     1       8.632   8.460  21.696  1.00  0.00     0.277 HD
ENDBRANCH  32  33
BRANCH  32  37
HETATM   37  O4  UNL     1       6.379   9.428  21.042  1.00  0.00    -0.370 OA
ATOM     38  H4  UNL     1       6.711   9.803  20.236  1.00  0.00     0.212 HD
ENDBRANCH  32  37
ENDBRANCH  31  32
ENDBRANCH  30  31
ENDBRANCH  22  30
TORSDOF 5
ENDMDL