MODEL 3
REMARK VINA RESULT: -8.665467625      2.189      7.825
REMARK  9 active torsions:
REMARK  status: ('A' for Active; 'I' for Inactive)
REMARK    1  A    between atoms: O1_2  and  C2_3
REMARK    2  A    between atoms: C2_3  and  C3_5
REMARK    3  A    between atoms: C3_5  and  C4_6
REMARK    4  A    between atoms: C4_6  and  C5_7
REMARK    5  A    between atoms: C5_7  and  C7_9
REMARK    6  A    between atoms: C17_20  and  O4_21
REMARK    7  A    between atoms: C22_27  and  C23_28
REMARK    8  A    between atoms: C24_29  and  C25_30
REMARK    9  A    between atoms: C25_30  and  O5_31
ROOT
HETATM    1  C7  UNL     1       1.373   9.472  26.378  1.00  0.00     0.005 C
HETATM    2  C8  UNL     1       0.230  10.467  26.418  1.00  0.00     0.006 C
HETATM    3  C9  UNL     1       0.155  10.975  24.991  1.00  0.00     0.007 C
HETATM    4  C10 UNL     1       1.542  10.747  24.424  1.00  0.00     0.006 C
HETATM    5  C11 UNL     1       2.516  11.722  25.048  1.00  0.00     0.001 C
HETATM    6  C12 UNL     1       2.143  13.068  24.483  1.00  0.00     0.033 C
HETATM    7  C13 UNL     1       3.190  14.082  24.658  1.00  0.00    -0.015 C
HETATM    8  C14 UNL     1       4.465  13.798  24.723  1.00  0.00    -0.007 C
HETATM    9  C15 UNL     1       5.399  14.886  24.895  1.00  0.00     0.158 C
HETATM   10  O3  UNL     1       5.121  16.056  24.545  1.00  0.00    -0.293 OA
HETATM   11  C16 UNL     1       6.724  14.593  25.509  1.00  0.00     0.115 C
HETATM   12  C17 UNL     1       6.426  13.391  26.403  1.00  0.00     0.126 C
HETATM   13  C18 UNL     1       6.176  12.242  25.480  1.00  0.00     0.046 C
HETATM   14  C19 UNL     1       4.933  12.416  24.595  1.00  0.00    -0.006 C
HETATM   15  C20 UNL     1       5.444  12.321  23.143  1.00  0.00     0.021 C
HETATM   16  C21 UNL     1       3.942  11.346  24.933  1.00  0.00     0.026 C
HETATM   17  C22 UNL     1       4.074  10.081  24.110  1.00  0.00     0.141 C
HETATM   18  C26 UNL     1       3.179   9.031  24.687  1.00  0.00     0.151 C
HETATM   19  O6  UNL     1       3.677   7.948  24.888  1.00  0.00    -0.296 OA
HETATM   20  C27 UNL     1       1.778   9.320  24.984  1.00  0.00     0.026 C
HETATM   21  C28 UNL     1       0.935   8.420  24.122  1.00  0.00     0.024 C
ENDROOT
BRANCH   1  22
HETATM   22  C5  UNL     1       1.002   8.286  27.191  1.00  0.00    -0.013 C
HETATM   23  C6  UNL     1      -0.271   8.410  27.981  1.00  0.00     0.010 C
BRANCH  22  24
HETATM   24  C4  UNL     1       2.041   7.626  27.998  1.00  0.00     0.014 C
BRANCH  24  25
HETATM   25  C3  UNL     1       1.985   8.196  29.428  1.00  0.00     0.111 C
BRANCH  25  26
HETATM   26  C2  UNL     1       1.992   7.084  30.415  1.00  0.00     0.258 C
HETATM   27  O2  UNL     1       3.047   6.447  30.657  1.00  0.00    -0.265 OA
BRANCH  26  28
HETATM   28  O1  UNL     1       0.818   6.751  31.064  1.00  0.00    -0.326 OA
HETATM   29  C1  UNL     1       0.570   6.996  32.429  1.00  0.00     0.213 C
ENDBRANCH  26  28
ENDBRANCH  25  26
ENDBRANCH  24  25
ENDBRANCH  22  24
ENDBRANCH   1  22
BRANCH  17  30
HETATM   30  C23 UNL     1       5.450   9.542  24.124  1.00  0.00    -0.091 C
HETATM   31  C24 UNL     1       6.584   9.081  24.110  1.00  0.00    -0.080 C
BRANCH  31  32
HETATM   32  C25 UNL     1       7.934   8.522  24.119  1.00  0.00     0.257 C
BRANCH  32  33
HETATM   33  O5  UNL     1       7.949   7.400  24.906  1.00  0.00    -0.389 OA
ATOM     34  H5  UNL     1       8.317   6.678  24.410  1.00  0.00     0.210 HD
ENDBRANCH  32  33
ENDBRANCH  31  32
ENDBRANCH  17  30
BRANCH  12  35
HETATM   35  O4  UNL     1       5.337  13.679  27.220  1.00  0.00    -0.395 OA
ATOM     36  H4  UNL     1       5.551  13.466  28.121  1.00  0.00     0.210 HD
ENDBRANCH  12  35
TORSDOF 9
ENDMDL