MODEL 3
REMARK VINA RESULT: -6.751540092      2.422      6.972
REMARK  6 active torsions:
REMARK  status: ('A' for Active; 'I' for Inactive)
REMARK    1  A    between atoms: O1_2  and  C2_3
REMARK    2  A    between atoms: C12_13  and  C13_14
REMARK    3  A    between atoms: C13_14  and  C15_16
REMARK    4  A    between atoms: C15_16  and  O2_19
REMARK    5  A    between atoms: C20_25  and  O5_26
REMARK    6  A    between atoms: C21_28  and  C22_29
ROOT
HETATM    1  C2  UNL     1       5.273   9.309  23.126  1.00  0.00     0.148 C
HETATM    2  C3  UNL     1       3.978   8.758  22.757  1.00  0.00     0.005 C
HETATM    3  C4  UNL     1       3.594   7.583  22.327  1.00  0.00    -0.001 C
HETATM    4  C5  UNL     1       4.348   6.378  22.063  1.00  0.00    -0.000 C
HETATM    5  C6  UNL     1       4.730   5.365  22.782  1.00  0.00     0.001 C
HETATM    6  C7  UNL     1       4.608   4.931  24.127  1.00  0.00     0.007 C
HETATM    7  C8  UNL     1       3.599   4.857  25.014  1.00  0.00    -0.062 C
HETATM    8  C9  UNL     1       4.028   4.272  26.373  1.00  0.00     0.048 C
HETATM    9  C10 UNL     1       2.225   5.222  24.876  1.00  0.00     0.005 C
HETATM   10  C11 UNL     1       1.428   6.212  25.135  1.00  0.00     0.006 C
HETATM   11  C12 UNL     1       1.698   7.541  25.788  1.00  0.00     0.161 C
HETATM   12  O3  UNL     1       0.813   8.501  25.352  1.00  0.00    -0.311 OA
HETATM   13  C18 UNL     1       0.873   9.740  24.846  1.00  0.00     0.262 C
HETATM   14  O4  UNL     1       0.357   9.901  23.679  1.00  0.00    -0.265 OA
HETATM   15  C19 UNL     1       1.458  10.958  25.454  1.00  0.00     0.147 C
HETATM   16  C20 UNL     1       1.423  12.199  24.672  1.00  0.00     0.163 C
HETATM   17  C21 UNL     1       2.037  12.280  23.349  1.00  0.00     0.005 C
HETATM   18  C23 UNL     1       3.250  12.063  22.977  1.00  0.00    -0.009 C
HETATM   19  C24 UNL     1       4.470  11.659  23.721  1.00  0.00     0.011 C
HETATM   20  C25 UNL     1       5.295  12.940  24.029  1.00  0.00     0.015 C
HETATM   21  C26 UNL     1       5.373  10.803  22.882  1.00  0.00     0.022 C
HETATM   22  C27 UNL     1       6.808  11.225  22.987  1.00  0.00     0.013 C
ENDROOT
BRANCH  11  23
HETATM   23  C13 UNL     1       1.724   7.378  27.283  1.00  0.00     0.048 C
HETATM   24  C14 UNL     1       2.398   8.540  28.013  1.00  0.00     0.016 C
BRANCH  23  25
HETATM   25  C15 UNL     1       0.484   7.053  27.994  1.00  0.00     0.056 C
HETATM   26  C16 UNL     1      -0.492   6.110  27.419  1.00  0.00     0.045 C
HETATM   27  C17 UNL     1      -0.293   8.315  28.418  1.00  0.00     0.045 C
BRANCH  25  28
HETATM   28  O2  UNL     1       0.882   6.498  29.248  1.00  0.00    -0.390 OA
ATOM     29  H2  UNL     1       0.079   6.263  29.698  1.00  0.00     0.210 HD
ENDBRANCH  25  28
ENDBRANCH  23  25
ENDBRANCH  11  23
BRANCH  16  30
HETATM   30  O5  UNL     1       1.939  13.260  25.474  1.00  0.00    -0.390 OA
ATOM     31  H5  UNL     1       2.343  13.904  24.904  1.00  0.00     0.210 HD
ENDBRANCH  16  30
BRANCH  17  32
HETATM   32  C22 UNL     1       1.081  12.717  22.272  1.00  0.00     0.268 C
HETATM   33  O6  UNL     1      -0.125  12.968  22.529  1.00  0.00    -0.302 OA
ENDBRANCH  17  32
BRANCH   1  34
HETATM   34  O1  UNL     1       5.586   9.045  24.449  1.00  0.00    -0.386 OA
HETATM   35  C1  UNL     1       6.585   8.087  24.607  1.00  0.00     0.202 C
ENDBRANCH   1  34
TORSDOF 6
ENDMDL