MODEL 3
REMARK VINA RESULT: -8.448263838      3.187      7.259
REMARK  6 active torsions:
REMARK  status: ('A' for Active; 'I' for Inactive)
REMARK    1  A    between atoms: C6_6  and  O1_7
REMARK    2  A    between atoms: O1_7  and  C7_8
REMARK    3  A    between atoms: C7_8  and  C8_10
REMARK    4  A    between atoms: C9_11  and  C10_12
REMARK       I    between atoms: C10_12  and  N1_14
REMARK    5  A    between atoms: C15_20  and  O4_21
REMARK    6  A    between atoms: C20_26  and  O5_27
ROOT
HETATM    1  C1  UNL     1       0.358   9.302  26.709  1.00  0.00     0.017 C
HETATM    2  C2  UNL     1       1.178   8.968  25.719  1.00  0.00    -0.060 C
HETATM    3  C3  UNL     1       2.225   9.918  25.271  1.00  0.00     0.036 C
HETATM    4  C4  UNL     1       2.428  10.038  23.817  1.00  0.00     0.014 C
HETATM    5  C5  UNL     1       3.892   9.898  23.378  1.00  0.00     0.054 C
HETATM    6  C6  UNL     1       4.173   8.553  22.779  1.00  0.00     0.143 C
HETATM    7  C12 UNL     1       4.989   7.612  23.539  1.00  0.00     0.019 C
HETATM    8  C13 UNL     1       4.339   6.793  24.616  1.00  0.00     0.010 C
HETATM    9  C14 UNL     1       3.222   5.922  24.185  1.00  0.00     0.033 C
HETATM   10  C15 UNL     1       2.310   5.487  25.283  1.00  0.00     0.131 C
HETATM   11  C17 UNL     1       1.439   6.474  25.939  1.00  0.00     0.008 C
HETATM   12  C18 UNL     1       2.045   6.890  27.268  1.00  0.00     0.020 C
HETATM   13  C19 UNL     1       0.169   5.686  26.344  1.00  0.00     0.020 C
HETATM   14  C20 UNL     1       0.961   7.622  25.129  1.00  0.00     0.156 C
HETATM   15  C21 UNL     1       6.241   8.192  24.165  1.00  0.00    -0.012 C
HETATM   16  C22 UNL     1       7.283   7.101  24.356  1.00  0.00     0.010 C
HETATM   17  C23 UNL     1       6.859   9.301  23.402  1.00  0.00     0.015 C
HETATM   18  C24 UNL     1       6.167  10.605  23.522  1.00  0.00     0.056 A
HETATM   19  C25 UNL     1       5.712  11.239  24.727  1.00  0.00     0.165 A
HETATM   20  O6  UNL     1       4.420  11.586  25.011  1.00  0.00    -0.368 OA
HETATM   21  C26 UNL     1       4.874  10.295  24.368  1.00  0.00     0.100 A
ENDROOT
BRANCH   6  22
HETATM   22  O1  UNL     1       4.755   8.681  21.468  1.00  0.00    -0.312 OA
BRANCH  22  23
HETATM   23  C7  UNL     1       4.400   7.896  20.397  1.00  0.00     0.283 C
HETATM   24  O2  UNL     1       4.412   8.474  19.257  1.00  0.00    -0.260 OA
BRANCH  23  25
HETATM   25  C8  UNL     1       4.030   6.492  20.525  1.00  0.00     0.088 C
HETATM   26  C9  UNL     1       3.737   5.790  19.465  1.00  0.00     0.080 C
BRANCH  26  27
HETATM   27  C10 UNL     1       3.370   4.411  19.547  1.00  0.00     0.240 C
HETATM   28  O3  UNL     1       3.003   3.936  20.654  1.00  0.00    -0.269 OA
HETATM   29  N1  UNL     1       3.403   3.549  18.427  1.00  0.00    -0.362 N
HETATM   30  C11 UNL     1       3.014   2.144  18.577  1.00  0.00     0.149 C
ATOM     31  H1  UNL     1       3.697   3.905  17.517  1.00  0.00     0.162 HD
ENDBRANCH  26  27
ENDBRANCH  23  25
ENDBRANCH  22  23
ENDBRANCH   6  22
BRANCH  10  32
HETATM   32  O4  UNL     1       1.585   4.393  24.765  1.00  0.00    -0.390 OA
HETATM   33  C16 UNL     1       2.369   3.490  24.094  1.00  0.00     0.202 C
ENDBRANCH  10  32
BRANCH  14  34
HETATM   34  O5  UNL     1      -0.432   7.568  24.856  1.00  0.00    -0.390 OA
ATOM     35  H5  UNL     1      -0.741   8.454  25.001  1.00  0.00     0.210 HD
ENDBRANCH  14  34
TORSDOF 6
ENDMDL