MODEL 1
REMARK VINA RESULT: -9.674955441      0.000      0.000
REMARK  7 active torsions:
REMARK  status: ('A' for Active; 'I' for Inactive)
REMARK    1  A    between atoms: C2_2  and  C4_4
REMARK    2  A    between atoms: C2_2  and  C11_13
REMARK    3  A    between atoms: C4_4  and  C5_5
REMARK    4  A    between atoms: C5_5  and  C6_6
REMARK    5  A    between atoms: C15_17  and  O1_18
REMARK    6  A    between atoms: C16_20  and  O2_21
REMARK    7  A    between atoms: C26_33  and  O4_34
ROOT
HETATM    1  C11 UNL     1       2.937  12.009  24.262  1.00  0.00     0.129 C
HETATM    2  C12 UNL     1       4.370  11.885  23.776  1.00  0.00     0.033 C
HETATM    3  C13 UNL     1       5.284  11.223  24.771  1.00  0.00     0.010 C
HETATM    4  C14 UNL     1       6.053  10.063  24.286  1.00  0.00     0.026 A
HETATM    5  C15 UNL     1       6.987  10.326  23.139  1.00  0.00     0.152 A
HETATM    6  C16 UNL     1       6.358   9.187  22.409  1.00  0.00     0.154 A
HETATM    7  C17 UNL     1       5.341   8.999  23.551  1.00  0.00     0.055 A
HETATM    8  C18 UNL     1       5.434   7.632  24.075  1.00  0.00     0.158 A
HETATM    9  O3  UNL     1       4.487   6.841  23.208  1.00  0.00    -0.374 OA
HETATM   10  C19 UNL     1       4.367   6.881  24.554  1.00  0.00     0.159 A
HETATM   11  C20 UNL     1       3.265   7.481  25.329  1.00  0.00     0.057 A
HETATM   12  C21 UNL     1       2.429   6.555  26.171  1.00  0.00     0.011 A
HETATM   13  C22 UNL     1       1.219   7.096  25.547  1.00  0.00     0.034 A
HETATM   14  C23 UNL     1       1.425   5.644  25.645  1.00  0.00    -0.036 A
HETATM   15  C24 UNL     1       0.547   4.963  26.706  1.00  0.00     0.015 C
HETATM   16  C25 UNL     1       1.548   4.808  24.430  1.00  0.00     0.015 C
HETATM   17  C26 UNL     1       2.070   7.966  24.646  1.00  0.00     0.071 A
HETATM   18  C27 UNL     1       1.779   9.442  24.973  1.00  0.00     0.065 C
HETATM   19  C28 UNL     1       1.426  10.251  23.797  1.00  0.00     0.171 C
HETATM   20  O5  UNL     1       2.159  11.295  23.418  1.00  0.00    -0.385 OA
ENDROOT
BRANCH   1  21
HETATM   21  C2  UNL     1       2.446  13.474  24.282  1.00  0.00    -0.021 C
HETATM   22  C1  UNL     1       1.207  13.683  25.042  1.00  0.00     0.017 C
HETATM   23  C3  UNL     1       1.922  13.641  22.787  1.00  0.00     0.017 C
BRANCH  21  24
HETATM   24  C4  UNL     1       3.522  14.468  24.318  1.00  0.00     0.016 C
BRANCH  24  25
HETATM   25  C5  UNL     1       4.063  15.066  25.532  1.00  0.00     0.041 C
BRANCH  25  26
HETATM   26  C6  UNL     1       5.506  14.887  25.743  1.00  0.00    -0.043 A
HETATM   27  C7  UNL     1       6.297  14.909  24.582  1.00  0.00     0.010 A
HETATM   28  C8  UNL     1       7.659  14.711  24.643  1.00  0.00     0.018 A
HETATM   29  C9  UNL     1       8.285  14.483  25.851  1.00  0.00     0.087 A
HETATM   30  N1  UNL     1       7.517  14.463  26.950  1.00  0.00    -0.375 N
HETATM   31  C10 UNL     1       6.168  14.658  26.906  1.00  0.00     0.094 A
ATOM     32  H1  UNL     1       7.960  14.296  27.854  1.00  0.00     0.164 HD
ENDBRANCH  25  26
ENDBRANCH  24  25
ENDBRANCH  21  24
ENDBRANCH   1  21
BRANCH   5  33
HETATM   33  O1  UNL     1       6.853  11.549  22.502  1.00  0.00    -0.393 OA
ATOM     34  H1  UNL     1       7.658  12.013  22.302  1.00  0.00     0.210 HD
ENDBRANCH   5  33
BRANCH  17  35
HETATM   35  O4  UNL     1       1.859   7.606  23.328  1.00  0.00    -0.389 OA
ATOM     36  H4  UNL     1       1.002   7.749  22.944  1.00  0.00     0.210 HD
ENDBRANCH  17  35
BRANCH   6  37
HETATM   37  O2  UNL     1       5.824   9.413  21.175  1.00  0.00    -0.393 OA
ATOM     38  H2  UNL     1       5.589   8.668  20.635  1.00  0.00     0.210 HD
ENDBRANCH   6  37
TORSDOF 7
ENDMDL