MODEL 4
REMARK VINA RESULT: -5.945707803      2.428      4.991
REMARK  7 active torsions:
REMARK  status: ('A' for Active; 'I' for Inactive)
REMARK    1  A    between atoms: O1_2  and  C2_3
REMARK    2  A    between atoms: C2_3  and  C3_5
REMARK    3  A    between atoms: C15_17  and  O3_18
REMARK    4  A    between atoms: C17_21  and  O4_22
REMARK    5  A    between atoms: C20_26  and  C21_27
REMARK    6  A    between atoms: C26_32  and  C27_33
REMARK    7  A    between atoms: C27_33  and  O5_34
ROOT
HETATM    1  C3  UNL     1       2.267   8.337  25.025  1.00  0.00     0.101 C
HETATM    2  C4  UNL     1       2.682   8.413  26.516  1.00  0.00     0.016 C
HETATM    3  C5  UNL     1       1.616   7.515  27.021  1.00  0.00     0.007 C
HETATM    4  C6  UNL     1       1.320   6.524  25.904  1.00  0.00     0.009 C
HETATM    5  C7  UNL     1       1.013   5.179  26.314  1.00  0.00    -0.040 C
HETATM    6  C8  UNL     1      -0.509   5.134  26.711  1.00  0.00     0.015 C
HETATM    7  C9  UNL     1       1.178   3.996  25.466  1.00  0.00     0.015 C
HETATM    8  C10 UNL     1       1.569   4.805  27.701  1.00  0.00     0.036 C
HETATM    9  C11 UNL     1       3.007   4.934  27.803  1.00  0.00    -0.025 C
HETATM   10  C12 UNL     1       4.054   5.171  27.036  1.00  0.00     0.004 C
HETATM   11  C13 UNL     1       4.222   5.428  25.612  1.00  0.00    -0.037 C
HETATM   12  C14 UNL     1       3.481   6.124  24.690  1.00  0.00    -0.032 C
HETATM   13  C15 UNL     1       4.067   6.091  23.358  1.00  0.00     0.153 C
HETATM   14  C16 UNL     1       5.532   5.905  23.210  1.00  0.00     0.109 C
HETATM   15  C17 UNL     1       6.336   5.396  24.318  1.00  0.00     0.276 C
HETATM   16  N1  UNL     1       6.866   4.077  24.018  1.00  0.00     0.127 N
HETATM   17  C19 UNL     1       7.247   3.807  22.675  1.00  0.00     0.314 C
HETATM   18  C20 UNL     1       5.539   3.575  24.420  1.00  0.00     0.247 C
HETATM   19  C24 UNL     1       5.461   4.724  25.342  1.00  0.00     0.076 C
HETATM   20  C25 UNL     1       6.357   4.437  26.527  1.00  0.00     0.028 C
HETATM   21  C26 UNL     1       2.221   6.865  24.723  1.00  0.00     0.024 C
ENDROOT
BRANCH   1  22
HETATM   22  C2  UNL     1       3.063   9.292  24.381  1.00  0.00     0.263 C
HETATM   23  O2  UNL     1       2.788   9.828  23.265  1.00  0.00    -0.265 OA
BRANCH  22  24
HETATM   24  O1  UNL     1       4.273   9.741  24.954  1.00  0.00    -0.326 OA
HETATM   25  C1  UNL     1       5.479   9.740  24.225  1.00  0.00     0.213 C
ENDBRANCH  22  24
ENDBRANCH   1  22
BRANCH  21  26
HETATM   26  C27 UNL     1       1.382   6.725  23.484  1.00  0.00     0.179 C
BRANCH  26  27
HETATM   27  O5  UNL     1       0.065   7.239  23.670  1.00  0.00    -0.400 OA
ATOM     28  H5  UNL     1      -0.293   7.600  22.868  1.00  0.00     0.209 HD
ENDBRANCH  26  27
ENDBRANCH  21  26
BRANCH  13  29
HETATM   29  O3  UNL     1       3.856   7.076  22.442  1.00  0.00    -0.391 OA
ATOM     30  H3  UNL     1       4.549   7.416  21.890  1.00  0.00     0.210 HD
ENDBRANCH  13  29
BRANCH  15  31
HETATM   31  O4  UNL     1       7.213   6.257  24.942  1.00  0.00    -0.356 OA
HETATM   32  C18 UNL     1       7.992   7.041  24.157  1.00  0.00     0.205 C
ENDBRANCH  15  31
BRANCH  18  33
HETATM   33  C21 UNL     1       5.720   2.197  25.017  1.00  0.00     0.012 C
HETATM   34  C22 UNL     1       6.053   1.174  23.917  1.00  0.00     0.012 C
HETATM   35  C23 UNL     1       4.388   1.758  25.582  1.00  0.00     0.012 C
ENDBRANCH  18  33
TORSDOF 7
ENDMDL