MODEL 1
REMARK VINA RESULT: -8.463923769      0.000      0.000
REMARK  7 active torsions:
REMARK  status: ('A' for Active; 'I' for Inactive)
REMARK    1  A    between atoms: O1_2  and  C2_3
REMARK    2  A    between atoms: C2_3  and  C3_5
REMARK    3  A    between atoms: C8_10  and  O3_11
REMARK    4  A    between atoms: C15_20  and  O5_22
REMARK    5  A    between atoms: C17_24  and  C18_25
REMARK    6  A    between atoms: C19_26  and  S1_27
REMARK    7  A    between atoms: S1_27  and  C20_29
ROOT
HETATM    1  C3  UNL     1       0.154  11.497  24.589  1.00  0.00     0.053 C
HETATM    2  C4  UNL     1       1.437  12.168  24.790  1.00  0.00     0.027 C
HETATM    3  C5  UNL     1      -0.661  11.214  25.860  1.00  0.00     0.005 C
HETATM    4  C6  UNL     1       0.176  10.559  26.921  1.00  0.00     0.015 C
HETATM    5  C7  UNL     1       1.106   9.518  26.463  1.00  0.00     0.045 C
HETATM    6  C8  UNL     1       0.897   8.220  27.203  1.00  0.00     0.107 A
HETATM    7  C9  UNL     1       1.509   8.071  28.502  1.00  0.00     0.026 A
HETATM    8  C10 UNL     1       2.325   7.082  28.805  1.00  0.00    -0.013 A
HETATM    9  C11 UNL     1       2.893   7.044  30.214  1.00  0.00     0.052 C
HETATM   10  C12 UNL     1       2.718   6.077  27.837  1.00  0.00     0.178 A
HETATM   11  O4  UNL     1       3.487   5.128  28.079  1.00  0.00    -0.288 OA
HETATM   12  C13 UNL     1       2.139   6.254  26.512  1.00  0.00     0.064 A
HETATM   13  C14 UNL     1       1.327   7.218  26.220  1.00  0.00    -0.003 A
HETATM   14  C15 UNL     1       0.677   7.696  24.903  1.00  0.00     0.093 C
HETATM   15  C16 UNL     1       1.378   6.983  23.765  1.00  0.00     0.052 C
HETATM   16  C17 UNL     1       0.961   9.167  24.979  1.00  0.00     0.025 C
HETATM   17  C24 UNL     1      -0.003  10.059  24.296  1.00  0.00     0.020 C
HETATM   18  C25 UNL     1      -1.354  10.203  24.973  1.00  0.00     0.013 C
ENDROOT
BRANCH  16  19
HETATM   19  C18 UNL     1       2.296   9.347  24.301  1.00  0.00    -0.003 C
HETATM   20  C19 UNL     1       3.362   9.624  25.001  1.00  0.00     0.080 C
BRANCH  20  21
HETATM   21  S1  UNL     1       4.936   9.835  24.194  1.00  0.00     0.063 S
HETATM   22  O6  UNL     1       4.878   9.168  22.678  1.00  0.00    -0.249 OA
BRANCH  21  23
HETATM   23  C20 UNL     1       5.349  11.519  24.205  1.00  0.00     0.085 C
HETATM   24  C21 UNL     1       6.616  11.875  24.097  1.00  0.00    -0.079 C
HETATM   25  C22 UNL     1       6.977  13.325  24.107  1.00  0.00     0.043 C
HETATM   26  C23 UNL     1       7.677  10.849  23.968  1.00  0.00     0.043 C
ENDBRANCH  21  23
ENDBRANCH  20  21
ENDBRANCH  16  19
BRANCH  14  27
HETATM   27  O5  UNL     1      -0.645   7.352  24.849  1.00  0.00    -0.384 OA
ATOM     28  H5  UNL     1      -0.950   7.294  23.951  1.00  0.00     0.211 HD
ENDBRANCH  14  27
BRANCH   6  29
HETATM   29  O3  UNL     1      -0.495   8.020  27.456  1.00  0.00    -0.381 OA
ATOM     30  H3  UNL     1      -0.756   7.153  27.169  1.00  0.00     0.211 HD
ENDBRANCH   6  29
BRANCH   1  31
HETATM   31  C2  UNL     1      -0.707  12.333  23.671  1.00  0.00     0.267 C
HETATM   32  O2  UNL     1      -1.941  12.487  23.850  1.00  0.00    -0.264 OA
BRANCH  31  33
HETATM   33  O1  UNL     1      -0.137  12.969  22.574  1.00  0.00    -0.326 OA
HETATM   34  C1  UNL     1      -0.698  13.002  21.300  1.00  0.00     0.213 C
ENDBRANCH  31  33
ENDBRANCH   1  31
TORSDOF 7
ENDMDL