MODEL 5
REMARK VINA RESULT: -6.572961091      3.767      7.063
REMARK  6 active torsions:
REMARK  status: ('A' for Active; 'I' for Inactive)
REMARK    1  A    between atoms: C3_4  and  C4_5
REMARK    2  A    between atoms: C4_5  and  O2_6
REMARK    3  A    between atoms: C5_8  and  O3_9
REMARK    4  A    between atoms: C13_20  and  C14_21
REMARK    5  A    between atoms: C18_25  and  N1_26
REMARK       I    between atoms: N1_26  and  C20_28
REMARK    6  A    between atoms: C20_28  and  C21_30
ROOT
HETATM    1  C1  UNL     1       4.282   1.718  21.573  1.00  0.00     0.047 C
HETATM    2  C2  UNL     1       3.954   2.972  21.304  1.00  0.00     0.050 C
HETATM    3  O1  UNL     1       4.018   3.460  19.976  1.00  0.00    -0.345 OA
HETATM    4  C3  UNL     1       4.055   4.862  19.978  1.00  0.00     0.181 C
HETATM    5  C5  UNL     1       3.289   5.214  21.207  1.00  0.00     0.165 C
HETATM    6  C6  UNL     1       3.498   4.045  22.186  1.00  0.00     0.046 C
HETATM    7  C7  UNL     1       4.535   4.541  23.167  1.00  0.00     0.022 C
HETATM    8  C8  UNL     1       5.934   4.345  22.594  1.00  0.00     0.015 C
HETATM    9  C9  UNL     1       4.506   3.859  24.451  1.00  0.00    -0.023 C
HETATM   10  C10 UNL     1       4.196   4.196  25.646  1.00  0.00     0.004 C
HETATM   11  C11 UNL     1       3.724   5.445  26.292  1.00  0.00     0.184 C
HETATM   12  O4  UNL     1       3.924   5.134  27.701  1.00  0.00    -0.309 OA
HETATM   13  C12 UNL     1       2.826   4.341  27.989  1.00  0.00     0.270 C
HETATM   14  O5  UNL     1       2.596   3.247  28.456  1.00  0.00    -0.264 OA
HETATM   15  C13 UNL     1       1.721   5.324  27.501  1.00  0.00     0.145 C
HETATM   16  C18 UNL     1       2.293   5.636  26.086  1.00  0.00     0.081 C
HETATM   17  C23 UNL     1       1.751   4.524  25.172  1.00  0.00     0.036 C
HETATM   18  C24 UNL     1       1.762   4.888  23.752  1.00  0.00     0.008 C
HETATM   19  C25 UNL     1       2.172   3.763  22.794  1.00  0.00    -0.000 C
HETATM   20  C26 UNL     1       1.917   2.417  23.355  1.00  0.00     0.011 C
ENDROOT
BRANCH   5  21
HETATM   21  O3  UNL     1       1.972   5.533  21.012  1.00  0.00    -0.392 OA
ATOM     22  H3  UNL     1       1.739   6.439  21.179  1.00  0.00     0.210 HD
ENDBRANCH   5  21
BRANCH   4  23
HETATM   23  C4  UNL     1       3.496   5.436  18.704  1.00  0.00     0.199 C
BRANCH  23  24
HETATM   24  O2  UNL     1       3.622   6.829  18.774  1.00  0.00    -0.398 OA
ATOM     25  H2  UNL     1       3.536   7.082  19.685  1.00  0.00     0.209 HD
ENDBRANCH  23  24
ENDBRANCH   4  23
BRANCH  16  26
HETATM   26  N1  UNL     1       1.759   6.879  25.667  1.00  0.00    -0.343 N
HETATM   27  C19 UNL     1       2.777   7.920  25.352  1.00  0.00     0.153 C
HETATM   28  C20 UNL     1       0.445   7.359  25.535  1.00  0.00     0.219 C
HETATM   29  O6  UNL     1      -0.552   6.631  25.711  1.00  0.00    -0.273 OA
BRANCH  28  30
HETATM   30  C21 UNL     1       0.138   8.780  25.170  1.00  0.00     0.098 C
HETATM   31  C22 UNL     1      -0.247   9.536  26.410  1.00  0.00     0.014 C
ENDBRANCH  28  30
ENDBRANCH  16  26
BRANCH  15  32
HETATM   32  C14 UNL     1       1.830   6.344  28.521  1.00  0.00    -0.072 C
HETATM   33  C15 UNL     1       0.488   6.764  29.128  1.00  0.00     0.044 C
HETATM   34  C16 UNL     1       2.855   6.968  29.013  1.00  0.00    -0.028 C
HETATM   35  C17 UNL     1       2.736   8.018  30.089  1.00  0.00     0.036 C
ENDBRANCH  15  32
TORSDOF 6
ENDMDL