MODEL 1
REMARK VINA RESULT: -8.347780384      0.000      0.000
REMARK  5 active torsions:
REMARK  status: ('A' for Active; 'I' for Inactive)
REMARK    1  A    between atoms: C2_2  and  C4_4
REMARK    2  A    between atoms: C15_17  and  C16_18
REMARK    3  A    between atoms: C17_20  and  C18_21
REMARK    4  A    between atoms: C18_21  and  C19_22
REMARK    5  A    between atoms: N1_24  and  N2_26
REMARK       I    between atoms: N2_26  and  C21_28
ROOT
HETATM    1  C4  UNL     1       0.443   8.062  26.155  1.00  0.00     0.030 C
HETATM    2  C5  UNL     1      -0.483   6.956  25.758  1.00  0.00     0.037 C
HETATM    3  C6  UNL     1       0.037   5.598  25.859  1.00  0.00    -0.020 C
HETATM    4  C7  UNL     1       1.231   5.304  26.291  1.00  0.00    -0.049 C
HETATM    5  C8  UNL     1       1.647   3.856  26.348  1.00  0.00     0.046 C
HETATM    6  C9  UNL     1       2.181   6.296  26.719  1.00  0.00     0.131 A
HETATM    7  O1  UNL     1       3.440   6.071  27.171  1.00  0.00    -0.351 OA
HETATM    8  C10 UNL     1       3.444   6.473  25.858  1.00  0.00     0.135 A
HETATM    9  C11 UNL     1       3.575   5.468  24.778  1.00  0.00     0.026 C
HETATM   10  C12 UNL     1       2.882   5.916  23.746  1.00  0.00    -0.016 C
HETATM   11  C13 UNL     1       2.790   5.138  22.452  1.00  0.00     0.052 C
HETATM   12  C14 UNL     1       2.264   7.201  24.016  1.00  0.00     0.170 C
HETATM   13  O2  UNL     1       1.431   7.747  23.262  1.00  0.00    -0.292 OA
HETATM   14  C15 UNL     1       2.816   7.687  25.314  1.00  0.00     0.101 C
HETATM   15  C25 UNL     1       1.830   7.721  26.466  1.00  0.00     0.023 C
HETATM   16  C26 UNL     1       2.375   8.544  27.632  1.00  0.00     0.021 C
ENDROOT
BRANCH  14  17
HETATM   17  C16 UNL     1       3.652   8.923  25.113  1.00  0.00     0.154 C
HETATM   18  O3  UNL     1       2.777   9.929  24.735  1.00  0.00    -0.365 OA
HETATM   19  C17 UNL     1       3.310  10.605  23.643  1.00  0.00     0.238 C
HETATM   20  C22 UNL     1       4.147   9.641  22.936  1.00  0.00     0.167 C
HETATM   21  O5  UNL     1       4.439   9.500  21.761  1.00  0.00    -0.294 OA
HETATM   22  C23 UNL     1       4.664   8.725  24.017  1.00  0.00     0.085 C
HETATM   23  C24 UNL     1       6.036   9.176  24.398  1.00  0.00     0.020 C
BRANCH  19  24
HETATM   24  C18 UNL     1       3.909  11.888  24.002  1.00  0.00     0.039 C
HETATM   25  N1  UNL     1       5.137  12.084  23.639  1.00  0.00    -0.302 N
ATOM     26  H1  UNL     1       5.612  11.340  23.129  1.00  0.00     0.186 HD
BRANCH  24  27
HETATM   27  C19 UNL     1       3.214  12.951  24.736  1.00  0.00     0.053 C
HETATM   28  C20 UNL     1       2.216  13.739  23.966  1.00  0.00     0.011 C
ENDBRANCH  24  27
BRANCH  25  29
HETATM   29  N2  UNL     1       5.838  13.240  23.902  1.00  0.00    -0.254 N
HETATM   30  C21 UNL     1       7.230  13.289  24.161  1.00  0.00     0.347 C
HETATM   31  N3  UNL     1       7.883  14.522  24.423  1.00  0.00    -0.038 NA
HETATM   32  O4  UNL     1       7.876  12.231  24.157  1.00  0.00    -0.249 OA
ATOM     33  H2  UNL     1       5.322  14.120  23.910  1.00  0.00     0.191 HD
ENDBRANCH  25  29
ENDBRANCH  19  24
ENDBRANCH  14  17
BRANCH   1  34
HETATM   34  C2  UNL     1      -0.236   8.871  27.224  1.00  0.00    -0.088 C
HETATM   35  C1  UNL     1      -0.509   8.342  28.410  1.00  0.00     0.014 C
HETATM   36  C3  UNL     1      -0.583  10.290  26.990  1.00  0.00     0.043 C
ENDBRANCH   1  34
TORSDOF 5
ENDMDL