MODEL 4
REMARK VINA RESULT: -7.307454039      2.687      7.463
REMARK  11 active torsions:
REMARK  status: ('A' for Active; 'I' for Inactive)
REMARK    1  A    between atoms: N1_1  and  N2_4
REMARK    2  A    between atoms: C1_6  and  N3_7
REMARK    3  A    between atoms: C1_6  and  C2_12
REMARK    4  A    between atoms: N3_7  and  N4_9
REMARK    5  A    between atoms: C2_12  and  N5_13
REMARK    6  A    between atoms: C2_12  and  C4_17
REMARK    7  A    between atoms: N5_13  and  C3_15
REMARK       I    between atoms: C4_17  and  N6_19
REMARK       I    between atoms: N6_19  and  C5_21
REMARK    8  A    between atoms: C5_21  and  C6_23
REMARK    9  A    between atoms: C6_23  and  N7_24
REMARK   10  A    between atoms: C6_23  and  C7_28
REMARK   11  A    between atoms: C7_28  and  C8_29
ROOT
HETATM    1  C4  UNL     1      42.314 -65.913  33.377  1.00  0.00     0.254 C
HETATM    2  O2  UNL     1      43.065 -65.718  34.397  1.00  0.00    -0.270 OA
HETATM    3  N6  UNL     1      42.074 -67.234  32.982  1.00  0.00    -0.294 N
ATOM      4  H6  UNL     1      42.456 -67.969  33.576  1.00  0.00     0.171 HD
HETATM    5  C5  UNL     1      41.343 -67.654  31.824  1.00  0.00     0.255 C
HETATM    6  O3  UNL     1      40.844 -66.840  31.040  1.00  0.00    -0.271 OA
ENDROOT
BRANCH   1   7
HETATM    7  C2  UNL     1      41.786 -64.693  32.730  1.00  0.00     0.247 C
BRANCH   7   8
HETATM    8  C1  UNL     1      41.061 -63.871  33.772  1.00  0.00     0.142 C
HETATM    9  N2  UNL     1      40.432 -62.785  33.503  1.00  0.00    -0.292 N
ATOM     10  H2  UNL     1      40.427 -62.437  32.544  1.00  0.00     0.187 HD
BRANCH   9  11
HETATM   11  N1  UNL     1      39.754 -62.072  34.492  1.00  0.00    -0.344 N
ATOM     12  H12 UNL     1      40.101 -62.128  35.449  1.00  0.00     0.176 HD
ATOM     13  H11 UNL     1      38.934 -61.507  34.274  1.00  0.00     0.176 HD
ENDBRANCH   9  11
BRANCH   8  14
HETATM   14  N3  UNL     1      41.049 -64.333  35.112  1.00  0.00    -0.292 N
ATOM     15  H3  UNL     1      40.377 -65.053  35.378  1.00  0.00     0.187 HD
BRANCH  14  16
HETATM   16  N4  UNL     1      41.929 -63.835  36.087  1.00  0.00    -0.344 N
ATOM     17  H42 UNL     1      42.915 -64.083  36.007  1.00  0.00     0.176 HD
ATOM     18  H41 UNL     1      41.613 -63.245  36.856  1.00  0.00     0.176 HD
ENDBRANCH  14  16
ENDBRANCH   8  14
ENDBRANCH   7   8
BRANCH   7  19
HETATM   19  N5  UNL     1      42.923 -63.882  32.249  1.00  0.00    -0.349 N
ATOM     20  H5  UNL     1      43.163 -63.874  31.257  1.00  0.00     0.163 HD
BRANCH  19  21
HETATM   21  C3  UNL     1      43.675 -63.118  33.166  1.00  0.00     0.349 C
HETATM   22  O1  UNL     1      44.942 -63.229  33.240  1.00  0.00    -0.284 OA
ENDBRANCH  19  21
ENDBRANCH   7  19
ENDBRANCH   1   7
BRANCH   5  23
HETATM   23  C6  UNL     1      41.200 -69.099  31.592  1.00  0.00     0.280 C
BRANCH  23  24
HETATM   24  N7  UNL     1      41.178 -69.402  30.157  1.00  0.00    -0.066 N
ATOM     25  H73 UNL     1      40.521 -70.152  29.941  1.00  0.00     0.275 HD
ATOM     26  H72 UNL     1      40.741 -68.652  29.622  1.00  0.00     0.275 HD
ATOM     27  H71 UNL     1      42.115 -69.612  29.813  1.00  0.00     0.275 HD
ENDBRANCH  23  24
BRANCH  23  28
HETATM   28  C7  UNL     1      42.290 -69.882  32.205  1.00  0.00     0.101 C
BRANCH  28  29
HETATM   29  C8  UNL     1      43.462 -70.198  31.388  1.00  0.00     0.028 A
HETATM   30  C9  UNL     1      44.225 -71.356  31.576  1.00  0.00     0.114 A
HETATM   31  N8  UNL     1      45.259 -71.349  30.716  1.00  0.00    -0.360 N
HETATM   32  C10 UNL     1      45.160 -70.211  29.995  1.00  0.00     0.180 A
ATOM     33  H8  UNL     1      45.980 -72.064  30.626  1.00  0.00     0.166 HD
HETATM   34  N9  UNL     1      44.075 -69.538  30.415  1.00  0.00    -0.355 N
ATOM     35  H9  UNL     1      43.766 -68.643  30.038  1.00  0.00     0.166 HD
ENDBRANCH  28  29
ENDBRANCH  23  28
ENDBRANCH   5  23
TORSDOF 11
ENDMDL