MODEL 2
REMARK VINA RESULT: -8.752412259      1.220      1.789
REMARK  12 active torsions:
REMARK  status: ('A' for Active; 'I' for Inactive)
REMARK    1  A    between atoms: C2_2  and  O1_3
REMARK    2  A    between atoms: C2_2  and  C3_5
REMARK    3  A    between atoms: C3_5  and  O2_6
REMARK    4  A    between atoms: C3_5  and  C4_8
REMARK    5  A    between atoms: C4_8  and  O3_9
REMARK    6  A    between atoms: C4_8  and  C5_11
REMARK    7  A    between atoms: C5_11  and  N1_12
REMARK    8  A    between atoms: N1_12  and  O4_13
REMARK    9  A    between atoms: N1_12  and  C6_15
REMARK   10  A    between atoms: C6_15  and  C7_16
REMARK   11  A    between atoms: C10_22  and  N3_23
REMARK   12  A    between atoms: N3_23  and  N4_25
ROOT
HETATM    1  C7  UNL     1      42.800 -69.674  31.115  1.00  0.00     0.047 A
HETATM    2  C8  UNL     1      43.067 -70.428  32.235  1.00  0.00     0.101 A
HETATM    3  C9  UNL     1      44.285 -71.053  32.433  1.00  0.00     0.261 A
HETATM    4  O5  UNL     1      44.554 -71.745  33.443  1.00  0.00    -0.268 OA
HETATM    5  N2  UNL     1      45.235 -70.906  31.473  1.00  0.00    -0.155 N
ATOM      6  H2  UNL     1      46.145 -71.352  31.584  1.00  0.00     0.187 HD
HETATM    7  C10 UNL     1      44.977 -70.174  30.385  1.00  0.00     0.701 A
HETATM    8  N6  UNL     1      43.776 -69.561  30.198  1.00  0.00    -0.193 N
ATOM      9  H6  UNL     1      43.615 -69.011  29.354  1.00  0.00     0.184 HD
ENDROOT
BRANCH   1  10
HETATM   10  C6  UNL     1      41.515 -68.985  30.856  1.00  0.00     0.178 C
BRANCH  10  11
HETATM   11  N1  UNL     1      41.181 -68.078  31.967  1.00  0.00    -0.192 NA
BRANCH  11  12
HETATM   12  C5  UNL     1      40.964 -66.773  31.436  1.00  0.00     0.155 C
BRANCH  12  13
HETATM   13  C4  UNL     1      41.080 -65.627  32.353  1.00  0.00     0.164 C
BRANCH  13  14
HETATM   14  C3  UNL     1      41.399 -65.897  33.782  1.00  0.00     0.176 C
BRANCH  14  15
HETATM   15  C2  UNL     1      41.555 -64.596  34.582  1.00  0.00     0.145 C
HETATM   16  C1  UNL     1      42.607 -64.748  35.650  1.00  0.00     0.042 C
BRANCH  15  17
HETATM   17  O1  UNL     1      40.395 -64.161  35.178  1.00  0.00    -0.393 OA
ATOM     18  H1  UNL     1      40.569 -63.325  35.594  1.00  0.00     0.210 HD
ENDBRANCH  15  17
ENDBRANCH  14  15
BRANCH  14  19
HETATM   19  O2  UNL     1      42.738 -66.415  33.759  1.00  0.00    -0.390 OA
ATOM     20  H2  UNL     1      42.888 -66.565  32.833  1.00  0.00     0.210 HD
ENDBRANCH  14  19
ENDBRANCH  13  14
BRANCH  13  21
HETATM   21  O3  UNL     1      39.849 -64.925  32.364  1.00  0.00    -0.392 OA
ATOM     22  H3  UNL     1      39.725 -64.614  31.475  1.00  0.00     0.210 HD
ENDBRANCH  13  21
ENDBRANCH  12  13
ENDBRANCH  11  12
BRANCH  11  23
HETATM   23  O4  UNL     1      40.069 -68.562  32.523  1.00  0.00    -0.313 OA
ATOM     24  H4  UNL     1      40.254 -69.338  33.039  1.00  0.00     0.237 HD
ENDBRANCH  11  23
ENDBRANCH  10  11
ENDBRANCH   1  10
BRANCH   7  25
HETATM   25  N3  UNL     1      45.904 -70.055  29.493  1.00  0.00    -0.118 N
ATOM     26  H3  UNL     1      46.626 -69.345  29.615  1.00  0.00     0.207 HD
BRANCH  25  27
HETATM   27  N4  UNL     1      45.939 -70.876  28.364  1.00  0.00    -0.235 N
HETATM   28  N5  UNL     1      45.380 -70.580  27.265  1.00  0.00    -0.330 N
ATOM     29  H52 UNL     1      44.882 -69.690  27.220  1.00  0.00     0.178 HD
ATOM     30  H51 UNL     1      45.405 -71.179  26.440  1.00  0.00     0.178 HD
ATOM     31  H4  UNL     1      46.440 -71.761  28.427  1.00  0.00     0.208 HD
ENDBRANCH  25  27
ENDBRANCH   7  25
TORSDOF 12
ENDMDL