MODEL 4
REMARK VINA RESULT: -6.346287342      2.074      5.465
REMARK  11 active torsions:
REMARK  status: ('A' for Active; 'I' for Inactive)
REMARK       I    between atoms: C2_2  and  N1_4
REMARK    1  A    between atoms: N1_4  and  N2_6
REMARK    2  A    between atoms: N2_6  and  C3_8
REMARK    3  A    between atoms: C3_8  and  C4_12
REMARK    4  A    between atoms: C4_12  and  N4_13
REMARK    5  A    between atoms: C4_12  and  C8_27
REMARK       I    between atoms: N4_13  and  C5_15
REMARK    6  A    between atoms: C5_15  and  C6_17
REMARK    7  A    between atoms: C6_17  and  N5_18
REMARK    8  A    between atoms: C6_17  and  C7_22
REMARK    9  A    between atoms: C7_22  and  N6_23
REMARK       I    between atoms: C8_27  and  N7_29
REMARK   10  A    between atoms: N7_29  and  N8_31
REMARK   11  A    between atoms: N8_31  and  C9_33
ROOT
HETATM    1  C4  UNL     1      40.449 -66.825  32.143  1.00  0.00     0.247 C
ENDROOT
BRANCH   1   2
HETATM    2  C3  UNL     1      41.150 -66.108  31.020  1.00  0.00     0.122 C
HETATM    3  N3  UNL     1      41.424 -66.727  29.940  1.00  0.00    -0.386 N
ATOM      4  H32 UNL     1      41.898 -66.241  29.179  1.00  0.00     0.157 HD
ATOM      5  H31 UNL     1      41.190 -67.708  29.786  1.00  0.00     0.157 HD
BRANCH   2   6
HETATM    6  N2  UNL     1      41.477 -64.738  31.235  1.00  0.00    -0.285 N
ATOM      7  H2  UNL     1      40.771 -64.012  31.108  1.00  0.00     0.188 HD
BRANCH   6   8
HETATM    8  N1  UNL     1      42.767 -64.404  31.619  1.00  0.00    -0.269 N
HETATM    9  C2  UNL     1      43.028 -63.341  32.501  1.00  0.00     0.232 C
HETATM   10  C1  UNL     1      44.412 -63.005  32.885  1.00  0.00     0.119 C
HETATM   11  O1  UNL     1      42.086 -62.654  32.977  1.00  0.00    -0.272 OA
ATOM     12  H1  UNL     1      43.549 -64.945  31.251  1.00  0.00     0.190 HD
ENDBRANCH   6   8
ENDBRANCH   2   6
ENDBRANCH   1   2
BRANCH   1  13
HETATM   13  N4  UNL     1      40.497 -66.114  33.397  1.00  0.00    -0.340 N
HETATM   14  C5  UNL     1      41.562 -65.770  34.225  1.00  0.00     0.251 C
HETATM   15  O2  UNL     1      42.750 -66.043  34.045  1.00  0.00    -0.271 OA
ATOM     16  H4  UNL     1      39.587 -65.808  33.739  1.00  0.00     0.163 HD
BRANCH  14  17
HETATM   17  C6  UNL     1      41.224 -64.973  35.471  1.00  0.00     0.299 C
BRANCH  17  18
HETATM   18  N5  UNL     1      40.434 -63.816  35.145  1.00  0.00    -0.065 N
ATOM     19  H53 UNL     1      40.905 -63.218  34.466  1.00  0.00     0.275 HD
ATOM     20  H52 UNL     1      39.614 -64.064  34.591  1.00  0.00     0.275 HD
ATOM     21  H51 UNL     1      40.178 -63.299  35.986  1.00  0.00     0.275 HD
ENDBRANCH  17  18
BRANCH  17  22
HETATM   22  C7  UNL     1      42.526 -64.612  36.139  1.00  0.00     0.272 C
BRANCH  22  23
HETATM   23  N6  UNL     1      42.751 -63.205  35.870  1.00  0.00    -0.077 N
ATOM     24  H63 UNL     1      42.155 -62.835  35.129  1.00  0.00     0.274 HD
ATOM     25  H62 UNL     1      42.419 -62.593  36.616  1.00  0.00     0.274 HD
ATOM     26  H61 UNL     1      43.747 -63.102  35.676  1.00  0.00     0.274 HD
ENDBRANCH  22  23
ENDBRANCH  17  22
ENDBRANCH  14  17
ENDBRANCH   1  13
BRANCH   1  27
HETATM   27  C8  UNL     1      40.921 -68.181  32.347  1.00  0.00     0.266 C
HETATM   28  O3  UNL     1      40.096 -69.127  32.430  1.00  0.00    -0.269 OA
HETATM   29  N7  UNL     1      42.309 -68.496  32.451  1.00  0.00    -0.266 N
ATOM     30  H7  UNL     1      43.010 -67.757  32.398  1.00  0.00     0.190 HD
BRANCH  29  31
HETATM   31  N8  UNL     1      42.701 -69.844  32.629  1.00  0.00    -0.275 N
ATOM     32  H8  UNL     1      42.648 -70.278  33.551  1.00  0.00     0.189 HD
BRANCH  31  33
HETATM   33  C9  UNL     1      43.166 -70.585  31.520  1.00  0.00     0.368 C
HETATM   34  O4  UNL     1      43.858 -70.038  30.644  1.00  0.00    -0.282 OA
ENDBRANCH  31  33
ENDBRANCH  29  31
ENDBRANCH   1  27
TORSDOF 11
ENDMDL