MODEL 4
REMARK VINA RESULT: -6.237223631      6.789      9.268
REMARK  12 active torsions:
REMARK  status: ('A' for Active; 'I' for Inactive)
REMARK    1  A    between atoms: N1_1  and  C1_5
REMARK    2  A    between atoms: C1_5  and  C2_6
REMARK    3  A    between atoms: C2_6  and  O1_7
REMARK    4  A    between atoms: O1_7  and  C3_8
REMARK    5  A    between atoms: C3_8  and  C4_9
REMARK    6  A    between atoms: C5_14  and  C6_15
REMARK    7  A    between atoms: C6_15  and  N5_20
REMARK    8  A    between atoms: N4_16  and  O2_18
REMARK    9  A    between atoms: N5_20  and  N6_22
REMARK   10  A    between atoms: N7_25  and  C7_26
REMARK   11  A    between atoms: C7_26  and  S1_27
REMARK   12  A    between atoms: S1_27  and  N8_28
ROOT
HETATM    1  C4  UNL     1      44.757 -62.733  34.180  1.00  0.00     0.147 A
HETATM    2  N2  UNL     1      45.146 -62.770  32.869  1.00  0.00    -0.282 N
ATOM      3  H2  UNL     1      46.043 -62.453  32.502  1.00  0.00     0.188 HD
HETATM    4  N3  UNL     1      44.163 -63.288  32.163  1.00  0.00    -0.280 N
ATOM      5  H3  UNL     1      44.185 -63.432  31.154  1.00  0.00     0.188 HD
HETATM    6  C5  UNL     1      43.114 -63.605  32.968  1.00  0.00     0.173 A
HETATM    7  N7  UNL     1      43.535 -63.237  34.218  1.00  0.00    -0.297 N
ENDROOT
BRANCH   6   8
HETATM    8  C6  UNL     1      41.873 -64.179  32.540  1.00  0.00     0.186 C
HETATM    9  N4  UNL     1      40.784 -63.517  32.663  1.00  0.00    -0.249 N
ATOM     10  H4  UNL     1      39.897 -63.919  32.360  1.00  0.00     0.196 HD
BRANCH   9  11
HETATM   11  O2  UNL     1      40.829 -62.267  33.204  1.00  0.00    -0.288 OA
ATOM     12  H2  UNL     1      40.147 -61.644  32.980  1.00  0.00     0.244 HD
ENDBRANCH   9  11
BRANCH   8  13
HETATM   13  N5  UNL     1      41.680 -65.457  31.955  1.00  0.00    -0.288 N
ATOM     14  H5  UNL     1      41.342 -65.511  30.995  1.00  0.00     0.188 HD
BRANCH  13  15
HETATM   15  N6  UNL     1      41.933 -66.638  32.640  1.00  0.00    -0.343 N
ATOM     16  H62 UNL     1      41.631 -67.511  32.207  1.00  0.00     0.176 HD
ATOM     17  H61 UNL     1      42.404 -66.657  33.545  1.00  0.00     0.176 HD
ENDBRANCH  13  15
ENDBRANCH   8  13
ENDBRANCH   6   8
BRANCH   7  18
HETATM   18  C7  UNL     1      42.749 -63.373  35.404  1.00  0.00     0.295 C
BRANCH  18  19
HETATM   19  S1  UNL     1      42.540 -65.088  35.902  1.00  0.00     0.241 S
HETATM   20  O3  UNL     1      43.563 -65.884  35.140  1.00  0.00    -0.204 OA
HETATM   21  O4  UNL     1      42.757 -65.310  37.343  1.00  0.00    -0.204 OA
BRANCH  19  22
HETATM   22  N8  UNL     1      40.976 -65.672  35.483  1.00  0.00    -0.327 N
ATOM     23  H82 UNL     1      40.247 -65.874  36.167  1.00  0.00     0.168 HD
ATOM     24  H81 UNL     1      40.883 -65.786  34.474  1.00  0.00     0.168 HD
ENDBRANCH  19  22
ENDBRANCH  18  19
ENDBRANCH   7  18
BRANCH   1  25
HETATM   25  C3  UNL     1      45.651 -62.209  35.189  1.00  0.00     0.184 C
BRANCH  25  26
HETATM   26  O1  UNL     1      46.759 -61.542  34.822  1.00  0.00    -0.358 OA
BRANCH  26  27
HETATM   27  C2  UNL     1      46.597 -60.190  35.151  1.00  0.00     0.202 C
BRANCH  27  28
HETATM   28  C1  UNL     1      46.131 -60.036  36.586  1.00  0.00     0.256 C
BRANCH  28  29
HETATM   29  N1  UNL     1      45.351 -58.852  36.785  1.00  0.00    -0.077 N
ATOM     30  H13 UNL     1      45.428 -58.519  37.746  1.00  0.00     0.274 HD
ATOM     31  H12 UNL     1      45.764 -58.055  36.302  1.00  0.00     0.274 HD
ATOM     32  H11 UNL     1      44.375 -58.978  36.516  1.00  0.00     0.274 HD
ENDBRANCH  28  29
ENDBRANCH  27  28
ENDBRANCH  26  27
ENDBRANCH  25  26
ENDBRANCH   1  25
TORSDOF 12
ENDMDL