MODEL 4
REMARK VINA RESULT: -7.435875269      3.272      5.770
REMARK  9 active torsions:
REMARK  status: ('A' for Active; 'I' for Inactive)
REMARK    1  A    between atoms: N1_2  and  C4_5
REMARK    2  A    between atoms: C4_5  and  C5_6
REMARK    3  A    between atoms: C5_6  and  C6_7
REMARK    4  A    between atoms: C5_6  and  N2_10
REMARK    5  A    between atoms: C6_7  and  O1_8
REMARK    6  A    between atoms: N2_10  and  N3_11
REMARK       I    between atoms: N3_11  and  C7_13
REMARK       I    between atoms: C7_13  and  N10_27
REMARK    7  A    between atoms: N4_14  and  N5_16
REMARK       I    between atoms: C8_18  and  N7_20
REMARK    8  A    between atoms: N7_20  and  N8_22
REMARK    9  A    between atoms: N10_27  and  N11_29
ROOT
HETATM    1  N3  UNL     1      41.875 -67.685  30.874  1.00  0.00    -0.133 N
ATOM      2  H3  UNL     1      41.848 -67.086  30.050  1.00  0.00     0.201 HD
HETATM    3  C7  UNL     1      42.437 -69.017  30.780  1.00  0.00     0.727 C
HETATM    4  N4  UNL     1      43.618 -69.183  30.414  1.00  0.00    -0.127 N
ATOM      5  H4  UNL     1      44.034 -68.271  30.225  1.00  0.00     0.205 HD
HETATM    6  N10 UNL     1      41.594 -70.096  31.121  1.00  0.00    -0.070 N
ATOM      7  H10 UNL     1      41.182 -70.675  30.390  1.00  0.00     0.212 HD
ENDROOT
BRANCH   1   8
HETATM    8  N2  UNL     1      41.377 -67.224  32.073  1.00  0.00    -0.117 NA
BRANCH   8   9
HETATM    9  C5  UNL     1      41.561 -65.802  32.300  1.00  0.00     0.149 C
BRANCH   9  10
HETATM   10  C4  UNL     1      41.723 -65.474  33.743  1.00  0.00     0.261 C
BRANCH  10  11
HETATM   11  N1  UNL     1      42.625 -64.416  34.067  1.00  0.00    -0.077 N
HETATM   12  C1  UNL     1      43.804 -65.060  34.693  1.00  0.00     0.271 C
HETATM   13  C2  UNL     1      43.194 -63.785  32.865  1.00  0.00     0.271 C
HETATM   14  C3  UNL     1      42.135 -63.438  34.986  1.00  0.00     0.271 C
ENDBRANCH  10  11
ENDBRANCH   9  10
BRANCH   9  15
HETATM   15  C6  UNL     1      40.429 -65.087  31.616  1.00  0.00     0.188 C
BRANCH  15  16
HETATM   16  O1  UNL     1      39.678 -64.398  32.582  1.00  0.00    -0.399 OA
ATOM     17  H1  UNL     1      39.644 -63.478  32.345  1.00  0.00     0.209 HD
ENDBRANCH  15  16
ENDBRANCH   9  15
ENDBRANCH   8   9
ENDBRANCH   1   8
BRANCH   4  18
HETATM   18  N5  UNL     1      44.511 -70.106  30.188  1.00  0.00    -0.258 N
HETATM   19  C8  UNL     1      45.561 -70.606  30.603  1.00  0.00     0.223 C
HETATM   20  N6  UNL     1      46.121 -71.712  29.847  1.00  0.00    -0.061 NA
HETATM   21  N7  UNL     1      46.262 -70.173  31.775  1.00  0.00    -0.258 N
ATOM     22  H7  UNL     1      46.811 -69.315  31.722  1.00  0.00     0.191 HD
ATOM     23  H5  UNL     1      44.236 -70.607  29.343  1.00  0.00     0.190 HD
BRANCH  21  24
HETATM   24  N8  UNL     1      46.230 -70.859  32.970  1.00  0.00    -0.247 N
HETATM   25  N9  UNL     1      45.321 -70.644  33.820  1.00  0.00    -0.331 N
ATOM     26  H92 UNL     1      44.607 -69.948  33.603  1.00  0.00     0.178 HD
ATOM     27  H91 UNL     1      45.298 -71.151  34.704  1.00  0.00     0.178 HD
ATOM     28  H8  UNL     1      46.951 -71.551  33.171  1.00  0.00     0.207 HD
ENDBRANCH  21  24
ENDBRANCH   4  18
BRANCH   6  29
HETATM   29  N11 UNL     1      41.331 -70.366  32.453  1.00  0.00    -0.024 N
HETATM   30  O2  UNL     1      42.233 -70.703  33.268  1.00  0.00    -0.516 OA
HETATM   31  O3  UNL     1      40.059 -70.288  32.998  1.00  0.00    -0.516 OA
ENDBRANCH   6  29
TORSDOF 9
ENDMDL