MODEL 3
REMARK VINA RESULT: -6.594156437      1.836      3.492
REMARK  12 active torsions:
REMARK  status: ('A' for Active; 'I' for Inactive)
REMARK    1  A    between atoms: N1_1  and  C1_4
REMARK    2  A    between atoms: C4_10  and  C5_11
REMARK       I    between atoms: C5_11  and  N3_13
REMARK    3  A    between atoms: N3_13  and  C6_15
REMARK    4  A    between atoms: C6_15  and  C7_16
REMARK    5  A    between atoms: C7_16  and  N4_17
REMARK    6  A    between atoms: N4_17  and  C8_19
REMARK    7  A    between atoms: C8_19  and  C9_20
REMARK    8  A    between atoms: C9_20  and  O3_21
REMARK    9  A    between atoms: C10_25  and  N6_26
REMARK   10  A    between atoms: N6_26  and  C11_28
REMARK   11  A    between atoms: C11_28  and  C12_29
REMARK   12  A    between atoms: C12_29  and  N7_30
ROOT
HETATM    1  C1  UNL     1      46.311 -71.648  31.496  1.00  0.00     0.146 C
HETATM    2  N2  UNL     1      45.958 -71.985  32.767  1.00  0.00    -0.307 N
ATOM      3  H2  UNL     1      46.650 -72.503  33.309  1.00  0.00     0.170 HD
HETATM    4  C2  UNL     1      44.802 -71.710  33.384  1.00  0.00     0.249 C
HETATM    5  O1  UNL     1      44.499 -72.389  34.409  1.00  0.00    -0.268 OA
HETATM    6  C3  UNL     1      43.863 -70.755  33.046  1.00  0.00     0.109 C
HETATM    7  C4  UNL     1      43.630 -70.220  31.800  1.00  0.00     0.107 C
HETATM    8  N5  UNL     1      44.509 -70.217  30.756  1.00  0.00    -0.335 N
ATOM      9  H5  UNL     1      44.341 -69.504  30.045  1.00  0.00     0.168 HD
HETATM   10  C10 UNL     1      45.562 -71.014  30.529  1.00  0.00     0.146 C
ENDROOT
BRANCH   7  11
HETATM   11  C5  UNL     1      42.330 -69.607  31.614  1.00  0.00     0.268 C
HETATM   12  O2  UNL     1      41.444 -70.315  31.005  1.00  0.00    -0.266 OA
HETATM   13  N3  UNL     1      41.962 -68.308  32.044  1.00  0.00    -0.354 N
ATOM     14  H3  UNL     1      42.671 -67.750  32.521  1.00  0.00     0.162 HD
BRANCH  13  15
HETATM   15  C6  UNL     1      40.664 -67.719  31.858  1.00  0.00     0.142 C
BRANCH  15  16
HETATM   16  C7  UNL     1      40.688 -66.244  32.281  1.00  0.00     0.133 C
BRANCH  16  17
HETATM   17  N4  UNL     1      41.974 -65.851  32.725  1.00  0.00    -0.418 N
ATOM     18  H4  UNL     1      42.798 -65.990  32.140  1.00  0.00     0.153 HD
BRANCH  17  19
HETATM   19  C8  UNL     1      42.080 -65.259  34.004  1.00  0.00     0.139 C
BRANCH  19  20
HETATM   20  C9  UNL     1      40.891 -65.292  34.895  1.00  0.00     0.183 C
BRANCH  20  21
HETATM   21  O3  UNL     1      40.531 -64.027  35.299  1.00  0.00    -0.399 OA
ATOM     22  H3  UNL     1      39.619 -63.994  35.563  1.00  0.00     0.209 HD
ENDBRANCH  20  21
ENDBRANCH  19  20
ENDBRANCH  17  19
ENDBRANCH  16  17
ENDBRANCH  15  16
ENDBRANCH  13  15
ENDBRANCH   7  11
BRANCH  10  23
HETATM   23  N6  UNL     1      45.902 -71.204  29.343  1.00  0.00    -0.372 N
ATOM     24  H6  UNL     1      46.409 -72.075  29.181  1.00  0.00     0.161 HD
BRANCH  23  25
HETATM   25  C11 UNL     1      45.702 -70.411  28.180  1.00  0.00     0.148 C
BRANCH  25  26
HETATM   26  C12 UNL     1      46.127 -71.083  26.903  1.00  0.00     0.249 C
BRANCH  26  27
HETATM   27  N7  UNL     1      45.062 -71.072  25.913  1.00  0.00    -0.078 N
ATOM     28  H73 UNL     1      44.282 -70.488  26.211  1.00  0.00     0.274 HD
ATOM     29  H72 UNL     1      45.335 -70.557  25.076  1.00  0.00     0.274 HD
ATOM     30  H71 UNL     1      44.754 -72.017  25.684  1.00  0.00     0.274 HD
ENDBRANCH  26  27
ENDBRANCH  25  26
ENDBRANCH  23  25
ENDBRANCH  10  23
BRANCH   1  31
HETATM   31  N1  UNL     1      47.516 -71.976  31.187  1.00  0.00    -0.382 N
ATOM     32  H12 UNL     1      47.994 -72.632  31.804  1.00  0.00     0.157 HD
ATOM     33  H11 UNL     1      47.858 -71.532  30.335  1.00  0.00     0.157 HD
ENDBRANCH   1  31
TORSDOF 12
ENDMDL