MODEL 1
REMARK VINA RESULT: -6.696737488      0.000      0.000
REMARK  11 active torsions:
REMARK  status: ('A' for Active; 'I' for Inactive)
REMARK       I    between atoms: N1_2  and  C2_4
REMARK    1  A    between atoms: C2_4  and  C3_6
REMARK    2  A    between atoms: C3_6  and  O2_7
REMARK    3  A    between atoms: C3_6  and  C4_9
REMARK    4  A    between atoms: C4_9  and  C5_10
REMARK    5  A    between atoms: C4_9  and  C8_18
REMARK    6  A    between atoms: C8_18  and  O4_19
REMARK    7  A    between atoms: C8_18  and  C9_21
REMARK    8  A    between atoms: C9_21  and  O5_22
REMARK    9  A    between atoms: C9_21  and  C10_24
REMARK   10  A    between atoms: C10_24  and  N4_25
REMARK   11  A    between atoms: C10_24  and  C11_29
ROOT
HETATM    1  C4  UNL     1      43.797 -70.972  31.748  1.00  0.00     0.106 C
ENDROOT
BRANCH   1   2
HETATM    2  C3  UNL     1      44.321 -70.957  33.128  1.00  0.00     0.222 C
BRANCH   2   3
HETATM    3  C2  UNL     1      45.805 -71.026  33.105  1.00  0.00     0.246 C
HETATM    4  N1  UNL     1      46.618 -69.875  33.099  1.00  0.00    -0.363 N
HETATM    5  C1  UNL     1      48.058 -69.959  33.075  1.00  0.00     0.149 C
ATOM      6  H1  UNL     1      46.176 -68.956  33.113  1.00  0.00     0.162 HD
HETATM    7  O1  UNL     1      46.451 -72.125  33.091  1.00  0.00    -0.271 OA
ENDBRANCH   2   3
BRANCH   2   8
HETATM    8  O2  UNL     1      43.964 -69.927  33.951  1.00  0.00    -0.385 OA
ATOM      9  H2  UNL     1      43.136 -70.153  34.357  1.00  0.00     0.210 HD
ENDBRANCH   2   8
ENDBRANCH   1   2
BRANCH   1  10
HETATM   10  C5  UNL     1      42.590 -70.105  31.698  1.00  0.00     0.039 A
HETATM   11  C6  UNL     1      41.386 -70.499  31.174  1.00  0.00     0.118 A
HETATM   12  N2  UNL     1      40.508 -69.495  31.323  1.00  0.00    -0.317 N
HETATM   13  C7  UNL     1      41.142 -68.469  31.935  1.00  0.00     0.324 A
ATOM     14  H2  UNL     1      39.532 -69.504  31.026  1.00  0.00     0.170 HD
HETATM   15  O3  UNL     1      40.656 -67.353  32.249  1.00  0.00    -0.247 OA
HETATM   16  N3  UNL     1      42.434 -68.865  32.160  1.00  0.00    -0.310 N
ATOM     17  H3  UNL     1      43.159 -68.303  32.606  1.00  0.00     0.170 HD
ENDBRANCH   1  10
BRANCH   1  18
HETATM   18  C8  UNL     1      44.694 -70.668  30.619  1.00  0.00     0.162 C
BRANCH  18  19
HETATM   19  O4  UNL     1      44.229 -69.450  30.024  1.00  0.00    -0.392 OA
ATOM     20  H4  UNL     1      44.975 -69.041  29.602  1.00  0.00     0.210 HD
ENDBRANCH  18  19
BRANCH  18  21
HETATM   21  C9  UNL     1      45.072 -71.650  29.614  1.00  0.00     0.184 C
BRANCH  21  22
HETATM   22  O5  UNL     1      45.570 -72.806  30.344  1.00  0.00    -0.390 OA
ATOM     23  H5  UNL     1      44.824 -73.172  30.804  1.00  0.00     0.210 HD
ENDBRANCH  21  22
BRANCH  21  24
HETATM   24  C10 UNL     1      46.242 -71.327  28.733  1.00  0.00     0.275 C
BRANCH  24  25
HETATM   25  N4  UNL     1      47.095 -70.347  29.459  1.00  0.00    -0.066 N
ATOM     26  H43 UNL     1      46.776 -69.384  29.347  1.00  0.00     0.275 HD
ATOM     27  H42 UNL     1      46.992 -70.405  30.472  1.00  0.00     0.275 HD
ATOM     28  H41 UNL     1      48.057 -70.486  29.148  1.00  0.00     0.275 HD
ENDBRANCH  24  25
BRANCH  24  29
HETATM   29  C11 UNL     1      46.026 -70.763  27.425  1.00  0.00     0.266 C
HETATM   30  O6  UNL     1      45.230 -71.271  26.640  1.00  0.00    -0.305 OA
ENDBRANCH  24  29
ENDBRANCH  21  24
ENDBRANCH  18  21
ENDBRANCH   1  18
TORSDOF 11
ENDMDL