MODEL 1
REMARK VINA RESULT: -7.565432297      0.000      0.000
REMARK  7 active torsions:
REMARK  status: ('A' for Active; 'I' for Inactive)
REMARK       I    between atoms: C1_2  and  N2_4
REMARK    1  A    between atoms: N2_4  and  C2_6
REMARK    2  A    between atoms: C2_6  and  C3_7
REMARK    3  A    between atoms: C3_7  and  O2_8
REMARK    4  A    between atoms: O2_8  and  C4_9
REMARK    5  A    between atoms: C4_9  and  C5_10
REMARK    6  A    between atoms: C5_10  and  N3_11
REMARK       I    between atoms: N3_11  and  C6_12
REMARK       I    between atoms: C6_12  and  N5_14
REMARK    7  A    between atoms: C8_21  and  N9_22
ROOT
HETATM    1  N3  UNL     1      42.085 -69.236  32.275  1.00  0.00    -0.416 NA
HETATM    2  C6  UNL     1      41.119 -68.951  31.658  1.00  0.00     0.263 C
HETATM    3  N4  UNL     1      40.763 -69.724  30.474  1.00  0.00    -0.049 NA
HETATM    4  N5  UNL     1      40.259 -67.866  32.038  1.00  0.00    -0.305 N
ATOM      5  H5  UNL     1      39.254 -68.034  32.001  1.00  0.00     0.171 HD
HETATM    6  C7  UNL     1      40.641 -66.715  32.416  1.00  0.00     0.138 C
HETATM    7  N6  UNL     1      39.738 -65.655  32.787  1.00  0.00    -0.273 N
ATOM      8  H6  UNL     1      38.788 -65.765  33.140  1.00  0.00     0.185 HD
HETATM    9  N7  UNL     1      40.408 -64.448  32.574  1.00  0.00    -0.028 NA
HETATM   10  N8  UNL     1      41.668 -64.737  32.063  1.00  0.00    -0.092 NA
HETATM   11  C8  UNL     1      41.981 -66.090  32.580  1.00  0.00     0.265 C
ENDROOT
BRANCH   1  12
HETATM   12  C5  UNL     1      43.179 -69.541  32.994  1.00  0.00     0.247 C
BRANCH  12  13
HETATM   13  C4  UNL     1      43.779 -70.864  32.448  1.00  0.00     0.201 C
BRANCH  13  14
HETATM   14  O2  UNL     1      44.864 -71.241  33.201  1.00  0.00    -0.387 OA
BRANCH  14  15
HETATM   15  C3  UNL     1      45.744 -71.953  32.385  1.00  0.00     0.187 C
BRANCH  15  16
HETATM   16  C2  UNL     1      46.595 -71.055  31.545  1.00  0.00     0.150 C
BRANCH  16  17
HETATM   17  N2  UNL     1      46.682 -71.441  30.158  1.00  0.00    -0.343 N
HETATM   18  C1  UNL     1      46.157 -70.602  29.158  1.00  0.00     0.328 C
HETATM   19  N1  UNL     1      46.247 -71.010  27.801  1.00  0.00    -0.040 NA
HETATM   20  O1  UNL     1      45.623 -69.521  29.474  1.00  0.00    -0.251 OA
ATOM     21  H2  UNL     1      47.124 -72.324  29.902  1.00  0.00     0.163 HD
ENDBRANCH  16  17
ENDBRANCH  15  16
ENDBRANCH  14  15
ENDBRANCH  13  14
ENDBRANCH  12  13
ENDBRANCH   1  12
BRANCH  11  22
HETATM   22  N9  UNL     1      42.453 -65.933  33.882  1.00  0.00    -0.341 N
HETATM   23  C9  UNL     1      43.343 -65.263  34.451  1.00  0.00     0.198 C
HETATM   24  N10 UNL     1      43.496 -65.413  35.898  1.00  0.00    -0.067 NA
HETATM   25  N11 UNL     1      44.255 -64.348  33.861  1.00  0.00    -0.067 NA
ATOM     26  H9  UNL     1      41.940 -66.516  34.542  1.00  0.00     0.164 HD
ENDBRANCH  11  22
TORSDOF 7
ENDMDL