MODEL 3
REMARK VINA RESULT: -6.646832246      2.516      7.503
REMARK  11 active torsions:
REMARK  status: ('A' for Active; 'I' for Inactive)
REMARK    1  A    between atoms: N1_1  and  C1_4
REMARK    2  A    between atoms: N4_13  and  C4_14
REMARK    3  A    between atoms: C4_14  and  C5_15
REMARK    4  A    between atoms: C5_15  and  C6_16
REMARK    5  A    between atoms: C5_15  and  N8_30
REMARK    6  A    between atoms: C6_16  and  C7_17
REMARK    7  A    between atoms: C7_17  and  N5_18
REMARK    8  A    between atoms: C7_17  and  C8_22
REMARK    9  A    between atoms: C8_22  and  N6_23
REMARK   10  A    between atoms: C8_22  and  C9_27
REMARK   11  A    between atoms: N8_30  and  C10_32
ROOT
HETATM    1  C5  UNL     1      43.931 -62.359  34.945  1.00  0.00     0.105 C
ENDROOT
BRANCH   1   2
HETATM    2  C4  UNL     1      42.973 -63.274  35.628  1.00  0.00     0.177 C
BRANCH   2   3
HETATM    3  N4  UNL     1      42.285 -64.205  34.796  1.00  0.00    -0.131 N
HETATM    4  C1  UNL     1      41.069 -63.938  34.322  1.00  0.00     0.686 A
HETATM    5  N2  UNL     1      40.399 -64.829  33.541  1.00  0.00    -0.141 N
HETATM    6  C2  UNL     1      40.954 -65.996  33.232  1.00  0.00     0.342 A
ATOM      7  H2  UNL     1      39.468 -64.600  33.192  1.00  0.00     0.189 HD
HETATM    8  O1  UNL     1      40.398 -66.877  32.512  1.00  0.00    -0.246 OA
HETATM    9  N3  UNL     1      42.192 -66.292  33.701  1.00  0.00    -0.259 N
HETATM   10  C3  UNL     1      42.840 -65.402  34.472  1.00  0.00     0.344 A
ATOM     11  H3  UNL     1      42.628 -67.185  33.471  1.00  0.00     0.175 HD
HETATM   12  O2  UNL     1      43.988 -65.732  34.880  1.00  0.00    -0.246 OA
BRANCH   4  13
HETATM   13  N1  UNL     1      40.440 -62.834  34.541  1.00  0.00    -0.234 N
ATOM     14  H12 UNL     1      39.485 -62.655  34.232  1.00  0.00     0.174 HD
ATOM     15  H11 UNL     1      40.970 -62.140  35.068  1.00  0.00     0.174 HD
ENDBRANCH   4  13
ENDBRANCH   2   3
ENDBRANCH   1   2
BRANCH   1  16
HETATM   16  C6  UNL     1      44.765 -61.635  35.961  1.00  0.00     0.062 C
BRANCH  16  17
HETATM   17  C7  UNL     1      46.101 -61.248  35.401  1.00  0.00     0.224 C
BRANCH  17  18
HETATM   18  N5  UNL     1      47.102 -62.076  36.059  1.00  0.00    -0.072 N
ATOM     19  H53 UNL     1      47.825 -61.531  36.529  1.00  0.00     0.274 HD
ATOM     20  H52 UNL     1      46.742 -62.557  36.884  1.00  0.00     0.274 HD
ATOM     21  H51 UNL     1      47.475 -62.714  35.356  1.00  0.00     0.274 HD
ENDBRANCH  17  18
BRANCH  17  22
HETATM   22  C8  UNL     1      46.365 -59.782  35.788  1.00  0.00     0.302 C
BRANCH  22  23
HETATM   23  N6  UNL     1      45.317 -59.287  36.633  1.00  0.00    -0.065 N
ATOM     24  H63 UNL     1      44.582 -58.826  36.096  1.00  0.00     0.275 HD
ATOM     25  H62 UNL     1      44.761 -60.045  37.031  1.00  0.00     0.275 HD
ATOM     26  H61 UNL     1      45.698 -58.677  37.356  1.00  0.00     0.275 HD
ENDBRANCH  22  23
BRANCH  22  27
HETATM   27  C9  UNL     1      46.439 -58.928  34.589  1.00  0.00     0.263 C
HETATM   28  N7  UNL     1      46.178 -57.537  34.634  1.00  0.00    -0.060 NA
HETATM   29  O3  UNL     1      46.739 -59.438  33.484  1.00  0.00    -0.275 OA
ENDBRANCH  22  27
ENDBRANCH  17  22
ENDBRANCH  16  17
ENDBRANCH   1  16
BRANCH   1  30
HETATM   30  N8  UNL     1      44.873 -63.085  34.105  1.00  0.00    -0.362 N
ATOM     31  H8  UNL     1      45.655 -63.560  34.555  1.00  0.00     0.162 HD
BRANCH  30  32
HETATM   32  C10 UNL     1      44.760 -63.165  32.700  1.00  0.00     0.348 C
HETATM   33  O4  UNL     1      43.644 -63.123  32.100  1.00  0.00    -0.284 OA
ENDBRANCH  30  32
ENDBRANCH   1  30
TORSDOF 11
ENDMDL