MODEL 1
REMARK VINA RESULT: -8.516357056      0.000      0.000
REMARK  11 active torsions:
REMARK  status: ('A' for Active; 'I' for Inactive)
REMARK    1  A    between atoms: C1_4  and  C2_5
REMARK    2  A    between atoms: C1_4  and  N5_15
REMARK    3  A    between atoms: C2_5  and  N2_6
REMARK    4  A    between atoms: C3_8  and  C4_9
REMARK    5  A    between atoms: N5_15  and  C6_17
REMARK    6  A    between atoms: C6_17  and  C7_18
REMARK    7  A    between atoms: C7_18  and  N6_19
REMARK    8  A    between atoms: C7_18  and  C8_23
REMARK    9  A    between atoms: C8_23  and  N7_24
REMARK   10  A    between atoms: N7_24  and  S1_26
REMARK   11  A    between atoms: S1_26  and  N8_27
ROOT
HETATM    1  N5  UNL     1      40.792 -69.282  31.642  1.00  0.00    -0.377 N
ATOM      2  H5  UNL     1      39.935 -69.535  32.134  1.00  0.00     0.160 HD
ENDROOT
BRANCH   1   3
HETATM    3  C1  UNL     1      41.073 -67.936  31.334  1.00  0.00     0.088 C
HETATM    4  N1  UNL     1      41.513 -67.625  30.180  1.00  0.00    -0.388 N
ATOM      5  H12 UNL     1      41.716 -66.650  29.957  1.00  0.00     0.157 HD
ATOM      6  H11 UNL     1      41.668 -68.339  29.469  1.00  0.00     0.157 HD
BRANCH   3   7
HETATM    7  C2  UNL     1      40.848 -66.900  32.367  1.00  0.00     0.194 C
BRANCH   7   8
HETATM    8  N2  UNL     1      42.098 -66.645  33.021  1.00  0.00    -0.393 N
HETATM    9  C3  UNL     1      42.183 -65.670  33.825  1.00  0.00     0.088 C
ATOM     10  H2  UNL     1      42.906 -67.241  32.841  1.00  0.00     0.159 HD
BRANCH   9  11
HETATM   11  C4  UNL     1      41.030 -64.816  34.087  1.00  0.00     0.230 C
HETATM   12  N3  UNL     1      40.961 -64.324  35.473  1.00  0.00    -0.119 NA
HETATM   13  N4  UNL     1      40.457 -63.137  34.956  1.00  0.00    -0.271 N
HETATM   14  C5  UNL     1      41.199 -63.374  33.776  1.00  0.00     0.259 C
ATOM     15  H4  UNL     1      39.825 -62.408  35.286  1.00  0.00     0.185 HD
HETATM   16  O1  UNL     1      41.726 -62.632  32.913  1.00  0.00    -0.270 OA
ENDBRANCH   9  11
ENDBRANCH   7   8
ENDBRANCH   3   7
ENDBRANCH   1   3
BRANCH   1  17
HETATM   17  C6  UNL     1      41.742 -70.295  31.247  1.00  0.00     0.155 C
BRANCH  17  18
HETATM   18  C7  UNL     1      43.109 -70.011  31.852  1.00  0.00     0.219 C
BRANCH  18  19
HETATM   19  N6  UNL     1      43.087 -70.260  33.300  1.00  0.00    -0.072 N
ATOM     20  H63 UNL     1      42.499 -69.588  33.793  1.00  0.00     0.274 HD
ATOM     21  H62 UNL     1      42.573 -71.109  33.532  1.00  0.00     0.274 HD
ATOM     22  H61 UNL     1      44.038 -70.277  33.670  1.00  0.00     0.274 HD
ENDBRANCH  18  19
BRANCH  18  23
HETATM   23  C8  UNL     1      44.060 -71.032  31.266  1.00  0.00     0.168 C
BRANCH  23  24
HETATM   24  N7  UNL     1      45.398 -70.725  31.735  1.00  0.00    -0.301 N
ATOM     25  H7  UNL     1      45.683 -70.705  32.714  1.00  0.00     0.173 HD
BRANCH  24  26
HETATM   26  S1  UNL     1      46.443 -70.399  30.393  1.00  0.00     0.312 S
HETATM   27  O2  UNL     1      45.712 -69.403  29.516  1.00  0.00    -0.183 OA
HETATM   28  O3  UNL     1      46.622 -71.664  29.600  1.00  0.00    -0.183 OA
BRANCH  26  29
HETATM   29  N8  UNL     1      47.965 -69.809  30.902  1.00  0.00    -0.312 N
ATOM     30  H82 UNL     1      48.107 -69.314  31.782  1.00  0.00     0.170 HD
ATOM     31  H81 UNL     1      48.697 -70.015  30.222  1.00  0.00     0.170 HD
ENDBRANCH  26  29
ENDBRANCH  24  26
ENDBRANCH  23  24
ENDBRANCH  18  23
ENDBRANCH  17  18
ENDBRANCH   1  17
TORSDOF 11
ENDMDL