MODEL 5
REMARK VINA RESULT: -9.989618903      2.203      6.845
REMARK  4 active torsions:
REMARK  status: ('A' for Active; 'I' for Inactive)
REMARK    1  A    between atoms: C2_2  and  C4_4
REMARK    2  A    between atoms: C11_13  and  N2_14
REMARK       I    between atoms: N2_14  and  C12_15
REMARK       I    between atoms: C12_15  and  N3_17
REMARK    3  A    between atoms: N3_17  and  C13_19
REMARK    4  A    between atoms: C23_29  and  C24_30
ROOT
HETATM    1  C24 UNL     1      16.331  16.972  12.750  1.00  0.00    -0.019 A
HETATM    2  C25 UNL     1      17.293  16.136  12.181  1.00  0.00     0.012 A
HETATM    3  C26 UNL     1      18.551  16.112  12.728  1.00  0.00     0.002 A
HETATM    4  C27 UNL     1      18.924  16.875  13.818  1.00  0.00     0.023 A
HETATM    5  C28 UNL     1      17.977  17.708  14.389  1.00  0.00     0.045 A
HETATM    6  C29 UNL     1      18.330  18.516  15.532  1.00  0.00     0.099 C
HETATM    7  N4  UNL     1      18.597  19.151  16.462  1.00  0.00    -0.191 NA
HETATM    8  C30 UNL     1      16.715  17.725  13.833  1.00  0.00     0.035 A
ENDROOT
BRANCH   1   9
HETATM    9  C23 UNL     1      14.997  16.980  12.168  1.00  0.00     0.039 A
HETATM   10  C4  UNL     1      14.063  16.085  12.620  1.00  0.00     0.027 A
HETATM   11  N1  UNL     1      12.810  16.031  12.074  1.00  0.00    -0.358 N
HETATM   12  C5  UNL     1      12.448  16.855  11.072  1.00  0.00     0.046 A
ATOM     13  H1  UNL     1      12.137  15.354  12.432  1.00  0.00     0.166 HD
HETATM   14  C6  UNL     1      11.159  16.755  10.558  1.00  0.00     0.030 A
HETATM   15  C10 UNL     1      13.338  17.767  10.578  1.00  0.00     0.032 A
HETATM   16  C7  UNL     1      10.745  17.586   9.525  1.00  0.00     0.002 A
HETATM   17  C8  UNL     1      11.631  18.499   9.029  1.00  0.00     0.001 A
HETATM   18  C9  UNL     1      12.928  18.592   9.555  1.00  0.00     0.017 A
HETATM   19  C11 UNL     1      14.643  17.850  11.121  1.00  0.00     0.138 A
BRANCH  10  20
HETATM   20  C2  UNL     1      14.321  15.140  13.760  1.00  0.00     0.028 C
HETATM   21  C1  UNL     1      13.304  14.014  13.783  1.00  0.00     0.016 C
HETATM   22  C3  UNL     1      14.130  15.866  15.086  1.00  0.00     0.016 C
ENDBRANCH  10  20
BRANCH  19  23
HETATM   23  N2  UNL     1      15.413  18.636  10.663  1.00  0.00    -0.350 NA
HETATM   24  C12 UNL     1      16.096  19.447   9.845  1.00  0.00     0.398 C
HETATM   25  O1  UNL     1      16.676  18.955   8.847  1.00  0.00    -0.230 OA
HETATM   26  N3  UNL     1      16.212  20.876  10.037  1.00  0.00    -0.296 N
ATOM     27  H3  UNL     1      15.749  21.279  10.852  1.00  0.00     0.172 HD
BRANCH  26  28
HETATM   28  C13 UNL     1      16.911  21.750   9.194  1.00  0.00     0.048 A
HETATM   29  C14 UNL     1      18.273  21.889   9.183  1.00  0.00     0.030 A
HETATM   30  C15 UNL     1      18.972  22.731   8.308  1.00  0.00     0.003 A
HETATM   31  C16 UNL     1      18.259  23.463   7.404  1.00  0.00     0.012 A
HETATM   32  C17 UNL     1      16.886  23.352   7.379  1.00  0.00    -0.024 A
HETATM   33  C18 UNL     1      16.175  24.098   6.468  1.00  0.00     0.012 A
HETATM   34  C22 UNL     1      16.193  22.517   8.247  1.00  0.00     0.001 A
HETATM   35  C19 UNL     1      14.805  24.022   6.416  1.00  0.00     0.001 A
HETATM   36  C20 UNL     1      14.126  23.194   7.281  1.00  0.00     0.001 A
HETATM   37  C21 UNL     1      14.832  22.419   8.225  1.00  0.00     0.014 A
ENDBRANCH  26  28
ENDBRANCH  19  23
ENDBRANCH   1   9
TORSDOF 4
ENDMDL