MODEL 1
REMARK VINA RESULT: -11.276365886      0.000      0.000
REMARK  2 active torsions:
REMARK  status: ('A' for Active; 'I' for Inactive)
REMARK    1  A    between atoms: C8_11  and  C9_12
REMARK    2  A    between atoms: C15_18  and  C16_19
ROOT
HETATM    1  O1  UNL     1      11.589  18.391   9.098  1.00  0.00    -0.266 OA
HETATM    2  C1  UNL     1      11.995  19.494   9.497  1.00  0.00     0.273 C
HETATM    3  N1  UNL     1      10.961  20.319   9.997  1.00  0.00    -0.321 N
ATOM      4  H1  UNL     1      10.217  19.814  10.478  1.00  0.00     0.169 HD
HETATM    5  C2  UNL     1      10.776  21.720   9.948  1.00  0.00     0.046 A
HETATM    6  C3  UNL     1       9.425  21.844  10.262  1.00  0.00     0.030 A
HETATM    7  C4  UNL     1       8.839  23.090  10.256  1.00  0.00     0.002 A
HETATM    8  C5  UNL     1       9.596  24.198   9.938  1.00  0.00     0.001 A
HETATM    9  C6  UNL     1      10.955  24.079   9.621  1.00  0.00     0.014 A
HETATM   10  C7  UNL     1      11.546  22.853   9.628  1.00  0.00     0.003 A
HETATM   11  C8  UNL     1      12.977  23.093   9.256  1.00  0.00    -0.001 C
HETATM   12  C15 UNL     1      14.045  22.327   9.064  1.00  0.00     0.001 C
HETATM   13  C24 UNL     1      14.225  20.854   9.240  1.00  0.00     0.009 A
HETATM   14  C25 UNL     1      15.566  20.673   9.247  1.00  0.00     0.028 A
HETATM   15  C26 UNL     1      16.077  19.373   9.381  1.00  0.00    -0.009 A
HETATM   16  C27 UNL     1      17.463  19.244   9.379  1.00  0.00     0.014 A
HETATM   17  C28 UNL     1      18.007  17.969   9.509  1.00  0.00     0.001 A
HETATM   18  C29 UNL     1      17.171  16.875   9.636  1.00  0.00     0.002 A
HETATM   19  C30 UNL     1      15.808  17.017   9.637  1.00  0.00     0.030 A
HETATM   20  C31 UNL     1      15.274  18.260   9.510  1.00  0.00     0.043 A
HETATM   21  N3  UNL     1      13.949  18.483   9.502  1.00  0.00    -0.350 N
ATOM     22  H3  UNL     1      13.316  17.690   9.596  1.00  0.00     0.166 HD
HETATM   23  C32 UNL     1      13.430  19.719   9.375  1.00  0.00     0.112 A
ENDROOT
BRANCH  12  24
HETATM   24  C16 UNL     1      15.243  23.009   8.688  1.00  0.00     0.004 A
HETATM   25  C17 UNL     1      16.440  23.396   9.242  1.00  0.00     0.101 A
HETATM   26  N2  UNL     1      17.200  24.081   8.391  1.00  0.00    -0.364 N
HETATM   27  C18 UNL     1      16.578  24.198   7.229  1.00  0.00     0.043 A
ATOM     28  H2  UNL     1      18.124  24.459   8.602  1.00  0.00     0.165 HD
HETATM   29  C19 UNL     1      16.952  24.809   6.043  1.00  0.00     0.030 A
HETATM   30  C23 UNL     1      15.373  23.553   7.368  1.00  0.00     0.003 A
HETATM   31  C20 UNL     1      16.104  24.777   4.970  1.00  0.00     0.002 A
HETATM   32  C21 UNL     1      14.903  24.144   5.081  1.00  0.00     0.001 A
HETATM   33  C22 UNL     1      14.537  23.532   6.280  1.00  0.00     0.014 A
ENDBRANCH  12  24
BRANCH  11  34
HETATM   34  C9  UNL     1      13.299  24.504   9.121  1.00  0.00    -0.024 A
HETATM   35  C10 UNL     1      12.949  25.330   8.063  1.00  0.00     0.012 A
HETATM   36  C11 UNL     1      13.276  26.648   7.955  1.00  0.00     0.001 A
HETATM   37  C12 UNL     1      14.014  27.245   8.955  1.00  0.00     0.000 A
HETATM   38  C13 UNL     1      14.399  26.503  10.035  1.00  0.00     0.001 A
HETATM   39  C14 UNL     1      14.057  25.185  10.118  1.00  0.00     0.012 A
ENDBRANCH  11  34
TORSDOF 2
ENDMDL