MODEL 3
REMARK VINA RESULT: -9.192193481      1.284      1.598
REMARK  2 active torsions:
REMARK  status: ('A' for Active; 'I' for Inactive)
REMARK    1  A    between atoms: C9_9  and  C10_10
REMARK    2  A    between atoms: C11_11  and  C12_12
ROOT
HETATM    1  C10 UNL     1      15.358  16.701  11.824  1.00  0.00     0.024 A
HETATM    2  C11 UNL     1      15.244  16.811  13.185  1.00  0.00    -0.009 A
HETATM    3  C21 UNL     1      14.113  16.349  13.809  1.00  0.00     0.002 A
HETATM    4  C22 UNL     1      13.937  16.407  15.180  1.00  0.00     0.014 A
HETATM    5  C23 UNL     1      12.813  15.929  15.811  1.00  0.00     0.001 A
HETATM    6  C24 UNL     1      11.785  15.352  15.058  1.00  0.00     0.002 A
HETATM    7  C25 UNL     1      11.934  15.281  13.691  1.00  0.00     0.030 A
HETATM    8  C26 UNL     1      13.064  15.767  13.101  1.00  0.00     0.044 A
HETATM    9  N2  UNL     1      13.197  15.670  11.777  1.00  0.00    -0.346 N
ATOM     10  H2  UNL     1      12.447  15.248  11.229  1.00  0.00     0.167 HD
HETATM   11  C27 UNL     1      14.304  16.119  11.147  1.00  0.00     0.113 A
HETATM   12  S1  UNL     1      14.341  15.938   9.507  1.00  0.00    -0.059 SA
ENDROOT
BRANCH   1  13
HETATM   13  C9  UNL     1      16.488  17.160  11.055  1.00  0.00    -0.015 A
HETATM   14  C8  UNL     1      17.610  16.408  10.843  1.00  0.00     0.014 A
HETATM   15  C7  UNL     1      18.673  16.854  10.108  1.00  0.00     0.013 A
HETATM   16  C6  UNL     1      18.617  18.116   9.556  1.00  0.00    -0.025 A
HETATM   17  C5  UNL     1      19.684  18.557   8.821  1.00  0.00     0.012 A
HETATM   18  C30 UNL     1      17.486  18.941   9.740  1.00  0.00    -0.013 A
HETATM   19  C4  UNL     1      19.665  19.786   8.266  1.00  0.00     0.001 A
HETATM   20  C3  UNL     1      18.575  20.585   8.442  1.00  0.00     0.007 A
HETATM   21  C2  UNL     1      17.430  20.195   9.191  1.00  0.00    -0.050 A
HETATM   22  C1  UNL     1      16.308  21.097   9.340  1.00  0.00     0.049 C
HETATM   23  C28 UNL     1      16.416  18.446  10.500  1.00  0.00    -0.039 A
HETATM   24  C29 UNL     1      15.249  19.273  10.699  1.00  0.00     0.050 C
ENDBRANCH   1  13
BRANCH   2  25
HETATM   25  C12 UNL     1      16.347  17.384  13.925  1.00  0.00     0.031 C
HETATM   26  C13 UNL     1      17.264  16.740  14.603  1.00  0.00     0.045 A
HETATM   27  C14 UNL     1      17.439  15.316  14.814  1.00  0.00     0.257 A
HETATM   28  C20 UNL     1      18.381  17.425  15.299  1.00  0.00     0.006 A
HETATM   29  O1  UNL     1      16.703  14.400  14.391  1.00  0.00    -0.267 OA
HETATM   30  N1  UNL     1      18.631  15.170  15.614  1.00  0.00    -0.322 N
HETATM   31  C15 UNL     1      19.163  16.455  15.883  1.00  0.00     0.046 A
ATOM     32  H1  UNL     1      19.026  14.286  15.933  1.00  0.00     0.169 HD
HETATM   33  C16 UNL     1      20.290  16.865  16.604  1.00  0.00     0.030 A
HETATM   34  C17 UNL     1      20.569  18.211  16.700  1.00  0.00     0.002 A
HETATM   35  C18 UNL     1      19.794  19.180  16.121  1.00  0.00     0.001 A
HETATM   36  C19 UNL     1      18.681  18.775  15.410  1.00  0.00     0.015 A
ENDBRANCH   2  25
TORSDOF 2
ENDMDL