MODEL 2
REMARK VINA RESULT: -10.559936960      3.754     10.099
REMARK  3 active torsions:
REMARK  status: ('A' for Active; 'I' for Inactive)
REMARK       I    between atoms: C2_2  and  N1_4
REMARK    1  A    between atoms: N1_4  and  C4_6
REMARK    2  A    between atoms: C12_16  and  C13_17
REMARK    3  A    between atoms: C13_17  and  C14_18
ROOT
HETATM    1  C4  UNL     1      13.098  22.902   8.814  1.00  0.00     0.038 A
HETATM    2  C5  UNL     1      14.438  22.837   8.498  1.00  0.00     0.031 A
HETATM    3  C6  UNL     1      15.192  21.714   8.739  1.00  0.00     0.017 A
HETATM    4  C7  UNL     1      14.683  20.594   9.300  1.00  0.00     0.004 A
HETATM    5  C8  UNL     1      15.159  19.342   9.660  1.00  0.00     0.016 A
HETATM    6  C9  UNL     1      14.080  18.673  10.193  1.00  0.00     0.056 A
HETATM    7  N2  UNL     1      12.996  19.459  10.165  1.00  0.00    -0.354 N
ATOM      8  H2  UNL     1      12.068  19.200  10.501  1.00  0.00     0.166 HD
HETATM    9  C10 UNL     1      13.326  20.640   9.627  1.00  0.00     0.046 A
HETATM   10  C11 UNL     1      12.575  21.769   9.384  1.00  0.00     0.060 A
HETATM   11  C12 UNL     1      14.463  17.306  10.619  1.00  0.00     0.004 A
HETATM   12  C21 UNL     1      15.864  17.246  10.289  1.00  0.00    -0.011 A
HETATM   13  C22 UNL     1      16.784  16.226  10.469  1.00  0.00     0.014 A
HETATM   14  C23 UNL     1      18.098  16.374  10.097  1.00  0.00     0.013 A
HETATM   15  C24 UNL     1      18.508  17.555   9.536  1.00  0.00    -0.025 A
HETATM   16  C25 UNL     1      19.860  17.653   9.175  1.00  0.00     0.012 A
HETATM   17  C26 UNL     1      20.361  18.798   8.608  1.00  0.00     0.001 A
HETATM   18  C27 UNL     1      19.502  19.836   8.407  1.00  0.00     0.001 A
HETATM   19  C28 UNL     1      18.154  19.717   8.774  1.00  0.00     0.013 A
HETATM   20  C29 UNL     1      17.625  18.590   9.341  1.00  0.00    -0.014 A
HETATM   21  C30 UNL     1      16.308  18.451   9.710  1.00  0.00    -0.000 A
ENDROOT
BRANCH  11  22
HETATM   22  C13 UNL     1      13.645  16.461  11.190  1.00  0.00     0.028 C
BRANCH  22  23
HETATM   23  C14 UNL     1      13.686  15.707  12.390  1.00  0.00    -0.006 A
HETATM   24  C15 UNL     1      14.658  15.491  13.322  1.00  0.00     0.102 A
HETATM   25  N3  UNL     1      14.211  14.676  14.296  1.00  0.00    -0.351 N
HETATM   26  C16 UNL     1      12.942  14.341  14.027  1.00  0.00     0.116 A
ATOM     27  H3  UNL     1      14.749  14.365  15.105  1.00  0.00     0.166 HD
HETATM   28  N4  UNL     1      12.058  13.548  14.696  1.00  0.00    -0.352 N
HETATM   29  C20 UNL     1      12.586  14.965  12.850  1.00  0.00     0.020 A
HETATM   30  C17 UNL     1      10.832  13.392  14.177  1.00  0.00     0.090 A
ATOM     31  H4  UNL     1      12.322  13.086  15.567  1.00  0.00     0.166 HD
HETATM   32  C18 UNL     1      10.424  13.994  13.000  1.00  0.00     0.018 A
HETATM   33  C19 UNL     1      11.310  14.789  12.330  1.00  0.00     0.017 A
ENDBRANCH  22  23
ENDBRANCH  11  22
BRANCH   1  34
HETATM   34  N1  UNL     1      12.372  24.081   8.544  1.00  0.00    -0.323 N
HETATM   35  C2  UNL     1      11.055  24.315   9.018  1.00  0.00     0.220 C
HETATM   36  C1  UNL     1      10.313  25.567   8.722  1.00  0.00     0.117 C
HETATM   37  O1  UNL     1      10.453  23.460   9.718  1.00  0.00    -0.274 OA
HETATM   38  C3  UNL     1      13.006  25.102   7.743  1.00  0.00     0.159 C
ENDBRANCH   1  34
TORSDOF 3
ENDMDL