MODEL 2
REMARK VINA RESULT: -6.205217066      4.065      6.170
REMARK  9 active torsions:
REMARK  status: ('A' for Active; 'I' for Inactive)
REMARK    1  A    between atoms: C2_2  and  N1_4
REMARK    2  A    between atoms: C2_2  and  C4_8
REMARK    3  A    between atoms: C6_10  and  C7_11
REMARK    4  A    between atoms: C15_19  and  C16_20
REMARK    5  A    between atoms: C16_20  and  C17_21
REMARK    6  A    between atoms: C17_21  and  C18_22
REMARK    7  A    between atoms: C18_22  and  C19_23
REMARK    8  A    between atoms: C19_23  and  C20_24
REMARK    9  A    between atoms: C25_29  and  O1_30
ROOT
HETATM    1  C16 UNL     1      16.112  21.308   9.562  1.00  0.00    -0.052 C
ENDROOT
BRANCH   1   2
HETATM    2  C15 UNL     1      15.896  22.209   8.463  1.00  0.00     0.027 A
HETATM    3  C4  UNL     1      14.705  22.879   8.326  1.00  0.00    -0.004 A
HETATM    4  C5  UNL     1      14.554  23.730   7.254  1.00  0.00     0.023 A
HETATM    5  C6  UNL     1      15.526  23.953   6.305  1.00  0.00    -0.025 A
HETATM    6  C13 UNL     1      16.734  23.271   6.445  1.00  0.00     0.014 A
HETATM    7  C14 UNL     1      16.878  22.423   7.519  1.00  0.00     0.022 A
BRANCH   3   8
HETATM    8  C2  UNL     1      13.586  22.700   9.313  1.00  0.00     0.145 C
HETATM    9  C1  UNL     1      13.146  21.257   9.384  1.00  0.00     0.051 C
HETATM   10  C3  UNL     1      12.401  23.509   8.852  1.00  0.00     0.051 C
BRANCH   8  11
HETATM   11  N1  UNL     1      13.972  23.198  10.619  1.00  0.00    -0.067 N
ATOM     12  H13 UNL     1      13.448  22.741  11.365  1.00  0.00     0.275 HD
ATOM     13  H12 UNL     1      14.910  22.890  10.875  1.00  0.00     0.275 HD
ATOM     14  H11 UNL     1      13.886  24.213  10.670  1.00  0.00     0.275 HD
ENDBRANCH   8  11
ENDBRANCH   3   8
BRANCH   5  15
HETATM   15  C7  UNL     1      15.359  24.855   5.171  1.00  0.00    -0.026 A
HETATM   16  C8  UNL     1      16.240  24.826   4.113  1.00  0.00     0.012 A
HETATM   17  C9  UNL     1      16.082  25.689   3.027  1.00  0.00     0.001 A
HETATM   18  C10 UNL     1      15.055  26.588   2.974  1.00  0.00     0.000 A
HETATM   19  C11 UNL     1      14.170  26.617   4.036  1.00  0.00     0.001 A
HETATM   20  C12 UNL     1      14.328  25.769   5.100  1.00  0.00     0.012 A
ENDBRANCH   5  15
ENDBRANCH   1   2
BRANCH   1  21
HETATM   21  C17 UNL     1      16.303  20.566  10.498  1.00  0.00    -0.009 C
BRANCH  21  22
HETATM   22  C18 UNL     1      16.532  19.712  11.614  1.00  0.00    -0.009 C
BRANCH  22  23
HETATM   23  C19 UNL     1      16.736  19.001  12.574  1.00  0.00    -0.053 C
BRANCH  23  24
HETATM   24  C20 UNL     1      16.982  18.185  13.719  1.00  0.00     0.019 A
HETATM   25  C21 UNL     1      16.537  16.884  13.820  1.00  0.00     0.021 A
HETATM   26  C22 UNL     1      16.788  16.118  14.938  1.00  0.00     0.014 A
HETATM   27  C23 UNL     1      17.508  16.668  15.993  1.00  0.00    -0.022 A
HETATM   28  C24 UNL     1      17.767  15.915  17.116  1.00  0.00     0.049 A
HETATM   29  C32 UNL     1      17.976  17.966  15.940  1.00  0.00    -0.013 A
HETATM   30  C25 UNL     1      18.474  16.418  18.179  1.00  0.00     0.077 A
HETATM   31  C26 UNL     1      18.943  17.712  18.133  1.00  0.00     0.008 A
HETATM   32  C27 UNL     1      19.659  18.243  19.195  1.00  0.00     0.015 A
HETATM   33  C31 UNL     1      18.691  18.492  17.004  1.00  0.00    -0.012 A
HETATM   34  C28 UNL     1      20.098  19.539  19.087  1.00  0.00     0.001 A
HETATM   35  C29 UNL     1      19.857  20.314  17.984  1.00  0.00     0.001 A
HETATM   36  C30 UNL     1      19.139  19.786  16.916  1.00  0.00     0.013 A
HETATM   37  C33 UNL     1      17.701  18.704  14.795  1.00  0.00     0.034 A
BRANCH  30  38
HETATM   38  O1  UNL     1      18.721  15.628  19.307  1.00  0.00    -0.360 OA
ATOM     39  H1  UNL     1      18.921  16.031  20.144  1.00  0.00     0.217 HD
ENDBRANCH  30  38
ENDBRANCH  23  24
ENDBRANCH  22  23
ENDBRANCH  21  22
ENDBRANCH   1  21
TORSDOF 9
ENDMDL