MODEL 1
REMARK VINA RESULT: -10.620592955      0.000      0.000
REMARK  2 active torsions:
REMARK  status: ('A' for Active; 'I' for Inactive)
REMARK    1  A    between atoms: C5_5  and  C6_6
REMARK    2  A    between atoms: C10_12  and  C11_13
ROOT
HETATM    1  C6  UNL     1      17.628  22.650   8.071  1.00  0.00    -0.010 A
HETATM    2  C7  UNL     1      18.996  22.198   7.977  1.00  0.00     0.030 A
HETATM    3  C8  UNL     1      19.360  20.994   8.501  1.00  0.00     0.089 A
HETATM    4  N1  UNL     1      18.484  20.203   9.109  1.00  0.00    -0.364 N
ATOM      5  H1  UNL     1      18.782  19.306   9.490  1.00  0.00     0.165 HD
HETATM    6  C9  UNL     1      17.204  20.588   9.220  1.00  0.00     0.056 A
HETATM    7  C10 UNL     1      16.360  19.704   9.849  1.00  0.00     0.002 A
HETATM    8  C17 UNL     1      15.052  20.042   9.983  1.00  0.00     0.024 A
HETATM    9  C18 UNL     1      14.608  21.248   9.496  1.00  0.00    -0.025 A
HETATM   10  C19 UNL     1      15.432  22.179   8.850  1.00  0.00     0.053 A
HETATM   11  C20 UNL     1      16.782  21.815   8.704  1.00  0.00     0.030 A
HETATM   12  N2  UNL     1      14.967  23.429   8.462  1.00  0.00    -0.350 N
ATOM     13  H2  UNL     1      15.604  24.083   8.008  1.00  0.00     0.166 HD
HETATM   14  C21 UNL     1      13.595  23.815   8.691  1.00  0.00     0.109 A
HETATM   15  C22 UNL     1      12.774  22.906   9.296  1.00  0.00    -0.009 A
HETATM   16  C23 UNL     1      11.461  23.293   9.530  1.00  0.00    -0.000 A
HETATM   17  C24 UNL     1      10.618  22.388  10.138  1.00  0.00     0.014 A
HETATM   18  C25 UNL     1       9.302  22.725  10.389  1.00  0.00     0.001 A
HETATM   19  C26 UNL     1       8.839  23.972  10.027  1.00  0.00     0.002 A
HETATM   20  C27 UNL     1       9.683  24.888   9.414  1.00  0.00     0.030 A
HETATM   21  C28 UNL     1      10.993  24.538   9.171  1.00  0.00     0.046 A
HETATM   22  N3  UNL     1      11.826  25.421   8.572  1.00  0.00    -0.321 N
ATOM     23  H3  UNL     1      11.498  26.347   8.298  1.00  0.00     0.169 HD
HETATM   24  C29 UNL     1      13.093  25.047   8.347  1.00  0.00     0.273 A
HETATM   25  O1  UNL     1      13.864  25.892   7.782  1.00  0.00    -0.266 OA
HETATM   26  C30 UNL     1      13.182  21.574   9.681  1.00  0.00     0.083 A
ENDROOT
BRANCH   1  27
HETATM   27  C5  UNL     1      17.384  23.811   7.289  1.00  0.00    -0.025 A
HETATM   28  C4  UNL     1      16.801  23.623   6.021  1.00  0.00     0.013 A
HETATM   29  C3  UNL     1      16.345  24.641   5.243  1.00  0.00     0.007 A
HETATM   30  C2  UNL     1      16.452  25.931   5.706  1.00  0.00    -0.062 A
HETATM   31  C1  UNL     1      15.965  27.097   4.891  1.00  0.00     0.048 C
HETATM   32  C32 UNL     1      17.011  26.194   6.937  1.00  0.00     0.007 A
HETATM   33  C31 UNL     1      17.460  25.143   7.695  1.00  0.00     0.013 A
ENDBRANCH   1  27
BRANCH   7  34
HETATM   34  C11 UNL     1      16.863  18.415  10.355  1.00  0.00    -0.024 A
HETATM   35  C12 UNL     1      17.013  18.241  11.702  1.00  0.00     0.012 A
HETATM   36  C13 UNL     1      17.475  17.020  12.198  1.00  0.00     0.001 A
HETATM   37  C14 UNL     1      17.776  15.995  11.315  1.00  0.00     0.000 A
HETATM   38  C15 UNL     1      17.618  16.195   9.969  1.00  0.00     0.001 A
HETATM   39  C16 UNL     1      17.157  17.416   9.494  1.00  0.00     0.012 A
ENDBRANCH   7  34
TORSDOF 2
ENDMDL