MODEL 3
REMARK VINA RESULT: -9.636748135      4.064      7.784
REMARK  3 active torsions:
REMARK  status: ('A' for Active; 'I' for Inactive)
REMARK    1  A    between atoms: C13_16  and  C14_17
REMARK    2  A    between atoms: C17_20  and  O2_21
REMARK    3  A    between atoms: C26_31  and  C27_32
ROOT
HETATM    1  C1  UNL     1      20.620  18.117  14.533  1.00  0.00     0.049 C
HETATM    2  C2  UNL     1      19.744  17.320  15.413  1.00  0.00    -0.049 A
HETATM    3  C3  UNL     1      20.133  17.070  16.732  1.00  0.00     0.007 A
HETATM    4  C4  UNL     1      19.303  16.325  17.534  1.00  0.00     0.003 A
HETATM    5  C5  UNL     1      18.110  15.836  17.045  1.00  0.00     0.030 A
HETATM    6  C6  UNL     1      17.723  16.080  15.746  1.00  0.00     0.044 A
HETATM    7  N1  UNL     1      16.601  15.700  15.063  1.00  0.00    -0.354 N
ATOM      8  H1  UNL     1      15.831  15.142  15.431  1.00  0.00     0.166 HD
HETATM    9  C7  UNL     1      16.700  16.193  13.824  1.00  0.00     0.056 A
HETATM   10  C8  UNL     1      17.878  16.885  13.713  1.00  0.00     0.055 A
HETATM   11  C9  UNL     1      18.549  16.826  14.936  1.00  0.00     0.013 A
HETATM   12  C10 UNL     1      17.954  17.392  12.377  1.00  0.00     0.193 A
HETATM   13  O1  UNL     1      18.891  18.080  11.891  1.00  0.00    -0.287 OA
HETATM   14  C11 UNL     1      16.726  16.956  11.676  1.00  0.00     0.015 A
HETATM   15  C12 UNL     1      15.994  16.257  12.516  1.00  0.00    -0.006 A
HETATM   16  C13 UNL     1      14.722  15.688  12.080  1.00  0.00     0.088 C
HETATM   17  C20 UNL     1      14.081  16.579  11.075  1.00  0.00    -0.038 A
HETATM   18  C21 UNL     1      12.687  16.669  11.027  1.00  0.00     0.009 A
HETATM   19  C22 UNL     1      12.114  17.496  10.092  1.00  0.00     0.001 A
HETATM   20  C23 UNL     1      12.899  18.221   9.221  1.00  0.00     0.001 A
HETATM   21  C24 UNL     1      14.247  18.144   9.257  1.00  0.00     0.009 A
HETATM   22  C25 UNL     1      14.848  17.303  10.207  1.00  0.00    -0.038 A
HETATM   23  C26 UNL     1      16.317  17.195  10.275  1.00  0.00     0.089 C
ENDROOT
BRANCH  16  24
HETATM   24  C14 UNL     1      13.776  15.330  13.153  1.00  0.00    -0.045 A
HETATM   25  C15 UNL     1      13.100  14.124  13.190  1.00  0.00     0.011 A
HETATM   26  C16 UNL     1      12.234  13.881  14.234  1.00  0.00     0.037 A
HETATM   27  C17 UNL     1      12.001  14.780  15.254  1.00  0.00     0.065 A
HETATM   28  C18 UNL     1      12.675  15.971  15.209  1.00  0.00     0.037 A
HETATM   29  C19 UNL     1      13.551  16.235  14.164  1.00  0.00     0.011 A
BRANCH  27  30
HETATM   30  O2  UNL     1      11.118  14.497  16.293  1.00  0.00    -0.361 OA
ATOM     31  H2  UNL     1      11.416  14.394  17.189  1.00  0.00     0.217 HD
ENDBRANCH  27  30
ENDBRANCH  16  24
BRANCH  23  32
HETATM   32  C27 UNL     1      17.002  18.324   9.636  1.00  0.00    -0.045 A
HETATM   33  C28 UNL     1      16.631  19.615   9.963  1.00  0.00     0.008 A
HETATM   34  C29 UNL     1      17.251  20.716   9.413  1.00  0.00     0.001 A
HETATM   35  C30 UNL     1      18.277  20.566   8.504  1.00  0.00     0.000 A
HETATM   36  C31 UNL     1      18.661  19.289   8.166  1.00  0.00     0.001 A
HETATM   37  C32 UNL     1      18.028  18.205   8.728  1.00  0.00     0.008 A
ENDBRANCH  23  32
TORSDOF 3
ENDMDL