MODEL 4
REMARK VINA RESULT: -9.644621271      1.262      1.358
REMARK  4 active torsions:
REMARK  status: ('A' for Active; 'I' for Inactive)
REMARK    1  A    between atoms: C2_2  and  O1_3
REMARK    2  A    between atoms: O1_3  and  C3_4
REMARK       I    between atoms: C3_4  and  N1_6
REMARK    3  A    between atoms: N1_6  and  C4_8
REMARK    4  A    between atoms: C14_22  and  C15_23
ROOT
HETATM    1  C4  UNL     1      16.105  16.765  12.276  1.00  0.00     0.122 A
HETATM    2  N2  UNL     1      17.287  16.166  12.526  1.00  0.00    -0.351 N
ATOM      3  H2  UNL     1      17.517  15.877  13.477  1.00  0.00     0.166 HD
HETATM    4  C5  UNL     1      18.165  15.947  11.533  1.00  0.00     0.090 A
HETATM    5  C6  UNL     1      17.902  16.330  10.198  1.00  0.00     0.025 A
HETATM    6  C7  UNL     1      16.702  16.938   9.979  1.00  0.00    -0.036 A
HETATM    7  C8  UNL     1      15.768  17.170  10.997  1.00  0.00     0.044 A
HETATM    8  C9  UNL     1      14.508  17.677  10.552  1.00  0.00     0.075 A
HETATM    9  C10 UNL     1      13.880  18.642  10.085  1.00  0.00     0.072 A
HETATM   10  N3  UNL     1      13.081  17.437  10.323  1.00  0.00    -0.351 N
ATOM     11  H3  UNL     1      12.226  16.881  10.326  1.00  0.00     0.166 HD
HETATM   12  C11 UNL     1      14.110  20.012   9.634  1.00  0.00     0.004 A
HETATM   13  C12 UNL     1      12.965  20.851   9.647  1.00  0.00     0.015 A
HETATM   14  C13 UNL     1      12.893  22.128   9.184  1.00  0.00     0.013 A
HETATM   15  C14 UNL     1      14.002  22.687   8.651  1.00  0.00    -0.025 A
HETATM   16  C22 UNL     1      15.133  21.918   8.619  1.00  0.00     0.025 A
HETATM   17  C23 UNL     1      15.230  20.570   9.106  1.00  0.00    -0.012 A
HETATM   18  C24 UNL     1      16.616  20.077   8.985  1.00  0.00    -0.018 A
HETATM   19  C25 UNL     1      17.625  21.087   9.152  1.00  0.00     0.013 A
HETATM   20  C26 UNL     1      18.965  20.899   8.989  1.00  0.00     0.001 A
HETATM   21  C27 UNL     1      19.422  19.671   8.641  1.00  0.00     0.001 A
HETATM   22  C28 UNL     1      18.507  18.676   8.474  1.00  0.00     0.008 A
HETATM   23  C29 UNL     1      17.112  18.873   8.650  1.00  0.00    -0.043 A
HETATM   24  C30 UNL     1      16.444  17.508   8.583  1.00  0.00     0.079 C
ENDROOT
BRANCH   1  25
HETATM   25  N1  UNL     1      15.301  16.944  13.259  1.00  0.00    -0.288 N
HETATM   26  C3  UNL     1      14.456  16.010  13.841  1.00  0.00     0.366 C
HETATM   27  O2  UNL     1      14.830  14.945  14.401  1.00  0.00    -0.238 OA
ATOM     28  H1  UNL     1      15.281  17.881  13.661  1.00  0.00     0.172 HD
BRANCH  26  29
HETATM   29  O1  UNL     1      13.089  16.250  13.815  1.00  0.00    -0.304 OA
BRANCH  29  30
HETATM   30  C2  UNL     1      12.112  15.395  14.327  1.00  0.00     0.176 C
HETATM   31  C1  UNL     1      11.494  14.647  13.151  1.00  0.00     0.034 C
ENDBRANCH  29  30
ENDBRANCH  26  29
ENDBRANCH   1  25
BRANCH  15  32
HETATM   32  C15 UNL     1      14.022  24.047   8.126  1.00  0.00    -0.025 A
HETATM   33  C16 UNL     1      14.020  25.113   8.984  1.00  0.00     0.012 A
HETATM   34  C17 UNL     1      14.040  26.422   8.498  1.00  0.00     0.001 A
HETATM   35  C18 UNL     1      14.062  26.620   7.144  1.00  0.00     0.007 A
HETATM   36  C19 UNL     1      14.066  25.556   6.256  1.00  0.00    -0.061 A
HETATM   37  C20 UNL     1      14.089  25.785   4.792  1.00  0.00     0.048 C
HETATM   38  C21 UNL     1      14.045  24.260   6.780  1.00  0.00     0.019 A
ENDBRANCH  15  32
TORSDOF 4
ENDMDL