MODEL 4
REMARK VINA RESULT: -9.067752886      3.154      5.933
REMARK  2 active torsions:
REMARK  status: ('A' for Active; 'I' for Inactive)
REMARK    1  A    between atoms: C2_2  and  C3_3
REMARK    2  A    between atoms: C3_3  and  N1_4
ROOT
HETATM    1  N1  UNL     1      13.955  22.440   9.684  1.00  0.00    -0.344 N
HETATM    2  C4  UNL     1      13.801  22.757   8.219  1.00  0.00     0.166 C
HETATM    3  C5  UNL     1      15.184  22.824   7.867  1.00  0.00    -0.011 C
HETATM    4  C6  UNL     1      15.695  23.660   6.890  1.00  0.00    -0.004 C
HETATM    5  C7  UNL     1      14.457  23.860   6.329  1.00  0.00    -0.002 C
HETATM    6  C8  UNL     1      14.023  24.792   5.318  1.00  0.00     0.053 A
HETATM    7  C9  UNL     1      15.150  25.459   4.845  1.00  0.00    -0.036 A
HETATM    8  C10 UNL     1      13.961  25.854   4.246  1.00  0.00     0.052 A
HETATM    9  C11 UNL     1      14.410  26.861   3.323  1.00  0.00    -0.017 A
HETATM   10  C12 UNL     1      15.733  27.248   3.168  1.00  0.00    -0.001 A
HETATM   11  C13 UNL     1      16.826  26.714   3.890  1.00  0.00     0.029 A
HETATM   12  C14 UNL     1      16.386  25.731   4.791  1.00  0.00     0.036 A
HETATM   13  N2  UNL     1      17.362  25.135   5.561  1.00  0.00    -0.355 N
ATOM     14  H2  UNL     1      18.344  25.369   5.417  1.00  0.00     0.166 HD
HETATM   15  C15 UNL     1      17.000  24.217   6.531  1.00  0.00     0.043 C
HETATM   16  C16 UNL     1      18.294  24.079   6.990  1.00  0.00     0.033 C
HETATM   17  C17 UNL     1      18.928  23.169   7.821  1.00  0.00     0.033 C
HETATM   18  C18 UNL     1      18.471  21.974   8.341  1.00  0.00     0.044 A
HETATM   19  N3  UNL     1      19.350  20.987   8.563  1.00  0.00    -0.355 N
ATOM     20  H3  UNL     1      20.360  21.055   8.447  1.00  0.00     0.166 HD
HETATM   21  C19 UNL     1      18.668  19.871   8.972  1.00  0.00     0.044 A
HETATM   22  C20 UNL     1      19.085  18.595   9.286  1.00  0.00     0.042 A
HETATM   23  C21 UNL     1      18.159  17.612   9.626  1.00  0.00    -0.024 A
HETATM   24  C22 UNL     1      18.572  16.341   9.950  1.00  0.00     0.012 A
HETATM   25  C23 UNL     1      17.658  15.373  10.295  1.00  0.00     0.001 A
HETATM   26  C24 UNL     1      16.315  15.661  10.319  1.00  0.00     0.001 A
HETATM   27  C25 UNL     1      15.922  16.938   9.991  1.00  0.00     0.012 A
HETATM   28  C26 UNL     1      16.818  17.939   9.640  1.00  0.00    -0.025 A
HETATM   29  C27 UNL     1      16.369  19.204   9.334  1.00  0.00     0.027 A
HETATM   30  C28 UNL     1      17.303  20.137   9.017  1.00  0.00     0.005 A
HETATM   31  C29 UNL     1      17.217  21.441   8.635  1.00  0.00     0.019 A
HETATM   32  C30 UNL     1      15.958  22.004   8.715  1.00  0.00     0.054 C
HETATM   33  C31 UNL     1      15.200  21.749   9.917  1.00  0.00     0.255 C
HETATM   34  O1  UNL     1      15.517  21.110  10.936  1.00  0.00    -0.267 OA
ENDROOT
BRANCH   1  35
HETATM   35  C3  UNL     1      13.044  22.735  10.764  1.00  0.00     0.126 C
BRANCH  35  36
HETATM   36  C2  UNL     1      11.601  22.749  10.295  1.00  0.00     0.015 C
HETATM   37  C1  UNL     1      11.131  21.340  10.019  1.00  0.00     0.006 C
ENDBRANCH  35  36
ENDBRANCH   1  35
TORSDOF 2
ENDMDL