MODEL 4
REMARK VINA RESULT: -3.803199878      3.194      5.136
REMARK  4 active torsions:
REMARK  status: ('A' for Active; 'I' for Inactive)
REMARK    1  A    between atoms: S1_2  and  C2_3
REMARK    2  A    between atoms: C2_3  and  C3_4
REMARK    3  A    between atoms: C3_4  and  C4_5
REMARK    4  A    between atoms: C4_5  and  N1_6
ROOT
HETATM    1  N1  UNL     1     -34.904 -11.997   3.338  1.00  0.00    -0.370 N
HETATM    2  C5  UNL     1     -34.599 -12.634   4.558  1.00  0.00     0.096 C
HETATM    3  C6  UNL     1     -35.416 -12.037   5.695  1.00  0.00     0.227 C
HETATM    4  C7  UNL     1     -34.893 -10.620   5.860  1.00  0.00     0.077 C
HETATM    5  C8  UNL     1     -35.858 -10.307   4.762  1.00  0.00     0.227 C
HETATM    6  C9  UNL     1     -35.334 -10.667   3.382  1.00  0.00     0.096 C
HETATM    7  N2  UNL     1     -36.647 -11.452   5.209  1.00  0.00    -0.058 N
ATOM      8  H21 UNL     1     -37.450 -11.328   5.827  1.00  0.00     0.278 HD
ATOM      9  H22 UNL     1     -37.250 -11.959   4.562  1.00  0.00     0.278 HD
ENDROOT
BRANCH   1  10
HETATM   10  C4  UNL     1     -34.647 -12.645   2.132  1.00  0.00     0.128 C
BRANCH  10  11
HETATM   11  C3  UNL     1     -34.967 -14.139   2.312  1.00  0.00     0.030 C
BRANCH  11  12
HETATM   12  C2  UNL     1     -35.887 -14.589   1.193  1.00  0.00     0.075 C
BRANCH  12  13
HETATM   13  S1  UNL     1     -36.664 -16.176   1.531  1.00  0.00    -0.173 SA
HETATM   14  C1  UNL     1     -36.590 -16.657   3.265  1.00  0.00     0.089 C
ENDBRANCH  12  13
ENDBRANCH  11  12
ENDBRANCH  10  11
ENDBRANCH   1  10
TORSDOF 4
ENDMDL