MODEL 5
REMARK VINA RESULT: -4.589197832      1.305      1.504
REMARK  5 active torsions:
REMARK  status: ('A' for Active; 'I' for Inactive)
REMARK    1  A    between atoms: C2_2  and  C5_6
REMARK    2  A    between atoms: C5_6  and  C6_7
REMARK    3  A    between atoms: C6_7  and  N2_8
REMARK    4  A    between atoms: N2_8  and  C7_10
REMARK    5  A    between atoms: C7_10  and  C8_11
ROOT
HETATM    1  C1  UNL     1     -40.746 -15.489   5.857  1.00  0.00     0.031 C
HETATM    2  C2  UNL     1     -39.528 -15.197   6.701  1.00  0.00     0.043 C
HETATM    3  C3  UNL     1     -39.243 -13.722   6.726  1.00  0.00     0.031 C
HETATM    4  C4  UNL     1     -39.791 -15.672   8.055  1.00  0.00     0.068 C
HETATM    5  N1  UNL     1     -39.988 -16.043   9.154  1.00  0.00    -0.196 NA
ENDROOT
BRANCH   2   6
HETATM    6  C5  UNL     1     -38.294 -15.897   6.189  1.00  0.00     0.043 C
BRANCH   6   7
HETATM    7  C6  UNL     1     -37.104 -14.984   6.120  1.00  0.00     0.115 C
BRANCH   7   8
HETATM    8  N2  UNL     1     -36.461 -15.143   4.864  1.00  0.00    -0.421 N
ATOM      9  H2  UNL     1     -35.864 -14.412   4.478  1.00  0.00     0.153 HD
BRANCH   8  10
HETATM   10  C7  UNL     1     -36.681 -16.359   4.165  1.00  0.00     0.120 C
BRANCH  10  11
HETATM   11  C8  UNL     1     -35.871 -16.268   2.881  1.00  0.00     0.029 C
HETATM   12  C9  UNL     1     -36.900 -16.194   1.751  1.00  0.00     0.034 C
HETATM   13  C10 UNL     1     -36.274 -15.094   0.895  1.00  0.00     0.168 C
HETATM   14  O1  UNL     1     -35.887 -14.183   1.889  1.00  0.00    -0.391 OA
HETATM   15  C11 UNL     1     -35.110 -14.999   2.731  1.00  0.00     0.173 C
ENDBRANCH  10  11
ENDBRANCH   8  10
ENDBRANCH   7   8
ENDBRANCH   6   7
ENDBRANCH   2   6
TORSDOF 5
ENDMDL