MODEL 4
REMARK VINA RESULT: -4.576003933      1.293      1.836
REMARK  4 active torsions:
REMARK  status: ('A' for Active; 'I' for Inactive)
REMARK    1  A    between atoms: C2_2  and  C3_3
REMARK    2  A    between atoms: C2_2  and  N2_10
REMARK    3  A    between atoms: C3_3  and  N1_4
REMARK    4  A    between atoms: N2_10  and  C9_12
ROOT
HETATM    1  C9  UNL     1     -34.755 -12.677   2.339  1.00  0.00     0.186 C
HETATM    2  N3  UNL     1     -33.481 -12.663   2.496  1.00  0.00    -0.290 N
ATOM      3  H3  UNL     1     -32.949 -13.464   2.156  1.00  0.00     0.178 HD
HETATM    4  C10 UNL     1     -32.781 -11.629   3.101  1.00  0.00     0.182 C
HETATM    5  N4  UNL     1     -32.184 -10.741   3.598  1.00  0.00    -0.172 NA
ENDROOT
BRANCH   1   6
HETATM    6  N2  UNL     1     -35.531 -13.668   1.746  1.00  0.00    -0.380 N
ATOM      7  H2  UNL     1     -36.223 -13.334   1.075  1.00  0.00     0.160 HD
BRANCH   6   8
HETATM    8  C2  UNL     1     -35.505 -15.085   1.938  1.00  0.00     0.106 C
HETATM    9  C1  UNL     1     -36.462 -15.831   0.996  1.00  0.00     0.034 C
BRANCH   8  10
HETATM   10  C3  UNL     1     -35.810 -15.565   3.314  1.00  0.00     0.296 C
BRANCH  10  11
HETATM   11  N1  UNL     1     -34.785 -16.538   3.716  1.00  0.00     0.090 N
HETATM   12  C4  UNL     1     -35.303 -17.410   4.747  1.00  0.00     0.272 C
HETATM   13  C5  UNL     1     -34.400 -17.730   5.875  1.00  0.00     0.030 C
HETATM   14  C6  UNL     1     -33.766 -16.520   6.510  1.00  0.00     0.003 C
HETATM   15  C7  UNL     1     -33.843 -15.318   5.599  1.00  0.00     0.030 C
HETATM   16  C8  UNL     1     -33.627 -15.803   4.190  1.00  0.00     0.272 C
ENDBRANCH  10  11
ENDBRANCH   8  10
ENDBRANCH   6   8
ENDBRANCH   1   6
TORSDOF 4
ENDMDL