MODEL 1
REMARK VINA RESULT: -4.256542055      0.000      0.000
REMARK  4 active torsions:
REMARK  status: ('A' for Active; 'I' for Inactive)
REMARK    1  A    between atoms: N1_2  and  C2_4
REMARK    2  A    between atoms: C2_4  and  C3_5
REMARK    3  A    between atoms: C3_5  and  C6_8
REMARK    4  A    between atoms: C6_8  and  N2_9
ROOT
HETATM    1  C3  UNL     1     -35.583 -17.075   5.213  1.00  0.00     0.000 C
HETATM    2  C4  UNL     1     -36.358 -18.406   5.029  1.00  0.00     0.022 C
HETATM    3  C5  UNL     1     -34.655 -17.345   6.394  1.00  0.00     0.022 C
ENDROOT
BRANCH   1   4
HETATM    4  C2  UNL     1     -36.623 -16.066   5.603  1.00  0.00     0.065 C
BRANCH   4   5
HETATM    5  N1  UNL     1     -37.979 -16.364   5.590  1.00  0.00    -0.406 N
HETATM    6  C1  UNL     1     -38.937 -15.578   6.258  1.00  0.00     0.145 C
ATOM      7  H1  UNL     1     -38.294 -17.186   5.075  1.00  0.00     0.158 HD
ENDBRANCH   4   5
ENDBRANCH   1   4
BRANCH   1   8
HETATM    8  C6  UNL     1     -34.876 -16.713   3.954  1.00  0.00     0.136 C
BRANCH   8   9
HETATM    9  N2  UNL     1     -35.455 -15.723   3.128  1.00  0.00    -0.388 N
HETATM   10  C7  UNL     1     -36.498 -16.034   2.280  1.00  0.00     0.148 C
HETATM   11  C8  UNL     1     -36.166 -15.408   0.901  1.00  0.00     0.187 C
HETATM   12  O1  UNL     1     -36.162 -14.057   1.099  1.00  0.00    -0.385 OA
HETATM   13  C9  UNL     1     -35.161 -13.595   1.926  1.00  0.00     0.212 C
HETATM   14  C10 UNL     1     -34.839 -14.473   3.081  1.00  0.00     0.084 C
ENDBRANCH   8   9
ENDBRANCH   1   8
TORSDOF 4
ENDMDL