MODEL 5
REMARK VINA RESULT: -4.444891958      1.803      2.952
REMARK  4 active torsions:
REMARK  status: ('A' for Active; 'I' for Inactive)
REMARK    1  A    between atoms: C2_2  and  C3_3
REMARK    2  A    between atoms: C3_3  and  C4_4
REMARK    3  A    between atoms: C8_9  and  C9_10
REMARK    4  A    between atoms: C9_10  and  N1_11
ROOT
HETATM    1  C3  UNL     1     -34.685 -14.005   4.080  1.00  0.00     0.167 C
HETATM    2  O1  UNL     1     -33.765 -14.959   4.556  1.00  0.00    -0.352 OA
HETATM    3  C7  UNL     1     -34.220 -16.152   3.942  1.00  0.00     0.205 C
HETATM    4  C8  UNL     1     -35.688 -15.987   4.181  1.00  0.00     0.166 C
HETATM    5  O2  UNL     1     -35.860 -14.650   3.806  1.00  0.00    -0.346 OA
ENDROOT
BRANCH   1   6
HETATM    6  C2  UNL     1     -34.941 -12.974   5.167  1.00  0.00     0.064 C
HETATM    7  C1  UNL     1     -34.600 -13.492   6.528  1.00  0.00     0.010 C
ENDBRANCH   1   6
BRANCH   1   8
HETATM    8  C4  UNL     1     -34.011 -13.377   2.881  1.00  0.00     0.040 C
HETATM    9  C5  UNL     1     -33.115 -12.271   3.448  1.00  0.00     0.015 C
HETATM   10  C6  UNL     1     -34.974 -12.763   1.918  1.00  0.00     0.015 C
ENDBRANCH   1   8
BRANCH   4  11
HETATM   11  C9  UNL     1     -36.569 -16.872   3.358  1.00  0.00     0.147 C
BRANCH  11  12
HETATM   12  N1  UNL     1     -36.662 -18.209   3.844  1.00  0.00    -0.423 N
HETATM   13  C10 UNL     1     -36.618 -18.371   5.261  1.00  0.00     0.139 C
ATOM     14  H1  UNL     1     -36.754 -19.005   3.214  1.00  0.00     0.152 HD
ENDBRANCH  11  12
ENDBRANCH   4  11
TORSDOF 4
ENDMDL