MODEL 2
REMARK VINA RESULT: -4.386254320      2.143      2.628
REMARK  5 active torsions:
REMARK  status: ('A' for Active; 'I' for Inactive)
REMARK    1  A    between atoms: C2_2  and  C4_4
REMARK    2  A    between atoms: C2_2  and  C11_13
REMARK    3  A    between atoms: C5_5  and  C6_6
REMARK    4  A    between atoms: C6_6  and  N1_7
REMARK    5  A    between atoms: C11_13  and  N2_14
ROOT
HETATM    1  C4  UNL     1     -33.712 -11.648   3.060  1.00  0.00    -0.019 C
HETATM    2  C5  UNL     1     -34.333 -12.844   3.172  1.00  0.00    -0.000 C
ENDROOT
BRANCH   1   3
HETATM    3  C2  UNL     1     -32.878 -11.098   4.142  1.00  0.00    -0.007 C
HETATM    4  C1  UNL     1     -32.917 -12.120   5.287  1.00  0.00     0.021 C
HETATM    5  C3  UNL     1     -33.465  -9.786   4.608  1.00  0.00     0.021 C
BRANCH   3   6
HETATM    6  C11 UNL     1     -31.446 -10.837   3.729  1.00  0.00     0.242 C
BRANCH   6   7
HETATM    7  N2  UNL     1     -31.373 -10.846   2.289  1.00  0.00    -0.078 N
ATOM      8  H23 UNL     1     -30.445 -11.092   1.946  1.00  0.00     0.274 HD
ATOM      9  H22 UNL     1     -31.886 -11.625   1.876  1.00  0.00     0.274 HD
ATOM     10  H21 UNL     1     -31.691  -9.942   1.941  1.00  0.00     0.274 HD
ENDBRANCH   6   7
ENDBRANCH   3   6
ENDBRANCH   1   3
BRANCH   2  11
HETATM   11  C6  UNL     1     -35.128 -13.278   2.034  1.00  0.00     0.299 C
BRANCH  11  12
HETATM   12  N1  UNL     1     -35.048 -14.667   1.701  1.00  0.00     0.096 N
HETATM   13  C7  UNL     1     -34.993 -15.549   2.835  1.00  0.00     0.299 C
HETATM   14  C8  UNL     1     -36.389 -15.947   3.313  1.00  0.00     0.198 C
HETATM   15  O1  UNL     1     -37.058 -16.709   2.369  1.00  0.00    -0.388 OA
HETATM   16  C9  UNL     1     -36.660 -16.417   1.071  1.00  0.00     0.198 C
HETATM   17  C10 UNL     1     -36.302 -14.966   0.996  1.00  0.00     0.299 C
ENDBRANCH  11  12
ENDBRANCH   2  11
TORSDOF 5
ENDMDL