MODEL 4
REMARK VINA RESULT: -4.443225608      2.846      4.895
REMARK  4 active torsions:
REMARK  status: ('A' for Active; 'I' for Inactive)
REMARK    1  A    between atoms: N1_1  and  C1_5
REMARK    2  A    between atoms: C1_5  and  C2_6
REMARK    3  A    between atoms: C1_5  and  C8_13
REMARK    4  A    between atoms: C2_6  and  N2_7
ROOT
HETATM    1  C1  UNL     1     -35.911 -17.815   4.431  1.00  0.00     0.266 C
ENDROOT
BRANCH   1   2
HETATM    2  N1  UNL     1     -36.847 -18.252   3.395  1.00  0.00    -0.069 N
ATOM      3  H13 UNL     1     -37.315 -19.128   3.627  1.00  0.00     0.275 HD
ATOM      4  H12 UNL     1     -37.680 -17.666   3.341  1.00  0.00     0.275 HD
ATOM      5  H11 UNL     1     -36.334 -18.295   2.515  1.00  0.00     0.275 HD
ENDBRANCH   1   2
BRANCH   1   6
HETATM    6  C2  UNL     1     -35.741 -16.342   4.292  1.00  0.00     0.310 C
BRANCH   6   7
HETATM    7  N2  UNL     1     -34.538 -15.934   3.640  1.00  0.00     0.090 N
HETATM    8  C3  UNL     1     -33.431 -16.070   4.551  1.00  0.00     0.272 C
HETATM    9  C4  UNL     1     -33.502 -15.136   5.717  1.00  0.00     0.030 C
HETATM   10  C5  UNL     1     -33.698 -13.711   5.300  1.00  0.00     0.003 C
HETATM   11  C6  UNL     1     -34.617 -13.526   4.146  1.00  0.00     0.030 C
HETATM   12  C7  UNL     1     -34.537 -14.612   3.111  1.00  0.00     0.272 C
ENDBRANCH   6   7
ENDBRANCH   1   6
BRANCH   1  13
HETATM   13  C8  UNL     1     -36.598 -18.095   5.772  1.00  0.00     0.291 C
HETATM   14  O1  UNL     1     -36.399 -19.386   6.180  1.00  0.00    -0.357 OA
HETATM   15  C9  UNL     1     -35.935 -19.378   7.475  1.00  0.00     0.197 C
HETATM   16  C10 UNL     1     -35.321 -18.004   7.602  1.00  0.00     0.197 C
HETATM   17  O2  UNL     1     -36.123 -17.242   6.760  1.00  0.00    -0.357 OA
ENDBRANCH   1  13
TORSDOF 4
ENDMDL