MODEL 3
REMARK VINA RESULT: -4.188337491      2.375      4.247
REMARK  4 active torsions:
REMARK  status: ('A' for Active; 'I' for Inactive)
REMARK    1  A    between atoms: C2_2  and  O1_3
REMARK    2  A    between atoms: O1_3  and  C3_4
REMARK    3  A    between atoms: C3_4  and  C4_5
REMARK    4  A    between atoms: N2_12  and  C8_13
ROOT
HETATM    1  C4  UNL     1     -34.856 -14.444   4.486  1.00  0.00     0.034 C
HETATM    2  C5  UNL     1     -35.889 -14.667   5.610  1.00  0.00     0.286 C
HETATM    3  N1  UNL     1     -36.597 -13.430   5.888  1.00  0.00    -0.069 N
ATOM      4  H11 UNL     1     -37.382 -13.578   6.522  1.00  0.00     0.277 HD
ATOM      5  H12 UNL     1     -37.116 -13.101   5.074  1.00  0.00     0.277 HD
HETATM    6  C6  UNL     1     -35.678 -12.409   6.393  1.00  0.00     0.252 C
HETATM    7  C7  UNL     1     -34.365 -12.554   5.701  1.00  0.00     0.150 C
HETATM    8  N2  UNL     1     -34.573 -13.110   4.378  1.00  0.00    -0.379 N
ENDROOT
BRANCH   1   9
HETATM    9  C3  UNL     1     -35.124 -15.357   3.372  1.00  0.00     0.221 C
BRANCH   9  10
HETATM   10  O1  UNL     1     -36.480 -15.739   3.231  1.00  0.00    -0.386 OA
BRANCH  10  11
HETATM   11  C2  UNL     1     -36.716 -16.121   1.908  1.00  0.00     0.163 C
HETATM   12  C1  UNL     1     -36.200 -15.137   0.916  1.00  0.00     0.033 C
ENDBRANCH  10  11
ENDBRANCH   9  10
ENDBRANCH   1   9
BRANCH   8  13
HETATM   13  C8  UNL     1     -34.896 -12.237   3.376  1.00  0.00     0.075 C
HETATM   14  C9  UNL     1     -34.994 -10.751   3.753  1.00  0.00     0.032 C
HETATM   15  C10 UNL     1     -33.769 -12.245   2.320  1.00  0.00     0.032 C
ENDBRANCH   8  13
TORSDOF 4
ENDMDL