MODEL 3
REMARK VINA RESULT: -3.820895881      2.152      3.730
REMARK  4 active torsions:
REMARK  status: ('A' for Active; 'I' for Inactive)
REMARK    1  A    between atoms: C2_2  and  N1_3
REMARK    2  A    between atoms: N1_3  and  C3_4
REMARK    3  A    between atoms: N1_3  and  C6_7
REMARK    4  A    between atoms: C9_13  and  O1_14
ROOT
HETATM    1  C6  UNL     1     -34.561 -12.624   3.681  1.00  0.00     0.140 C
HETATM    2  C7  UNL     1     -33.839 -12.730   2.356  1.00  0.00     0.260 C
HETATM    3  N2  UNL     1     -32.868 -11.678   2.276  1.00  0.00    -0.071 N
ATOM      4  H21 UNL     1     -33.166 -10.871   1.726  1.00  0.00     0.277 HD
ATOM      5  H22 UNL     1     -32.052 -11.900   1.707  1.00  0.00     0.277 HD
HETATM    6  C8  UNL     1     -32.571 -11.382   3.655  1.00  0.00     0.266 C
HETATM    7  C9  UNL     1     -34.008 -11.355   4.202  1.00  0.00     0.170 C
ENDROOT
BRANCH   1   8
HETATM    8  N1  UNL     1     -34.391 -13.758   4.467  1.00  0.00    -0.381 N
BRANCH   8   9
HETATM    9  C2  UNL     1     -34.780 -13.878   5.773  1.00  0.00     0.055 C
HETATM   10  C1  UNL     1     -36.132 -13.435   6.223  1.00  0.00     0.054 C
ENDBRANCH   8   9
BRANCH   8  11
HETATM   11  C3  UNL     1     -34.237 -15.008   3.788  1.00  0.00     0.075 C
HETATM   12  C4  UNL     1     -35.498 -15.738   3.467  1.00  0.00     0.032 C
HETATM   13  C5  UNL     1     -33.285 -15.878   4.649  1.00  0.00     0.032 C
ENDBRANCH   8  11
ENDBRANCH   1   8
BRANCH   7  14
HETATM   14  O1  UNL     1     -34.638 -10.286   3.584  1.00  0.00    -0.387 OA
HETATM   15  C10 UNL     1     -35.967 -10.262   3.997  1.00  0.00     0.202 C
ENDBRANCH   7  14
TORSDOF 4
ENDMDL