MODEL 4
REMARK VINA RESULT: -3.363857062      2.678      3.230
REMARK  0 active torsions:
REMARK  status: ('A' for Active; 'I' for Inactive)
ROOT
HETATM    1  C1  UNL     1      -7.786  21.521 -10.207  1.00  0.00     0.024 C
HETATM    2  C2  UNL     1      -7.105  20.702  -9.180  1.00  0.00     0.078 C
HETATM    3  C3  UNL     1      -5.940  21.344  -8.511  1.00  0.00     0.147 C
HETATM    4  N1  UNL     1      -4.744  20.659  -8.761  1.00  0.00    -0.135 NA
HETATM    5  N2  UNL     1      -4.906  19.305  -8.790  1.00  0.00    -0.074 NA
HETATM    6  S1  UNL     1      -6.320  19.200  -9.889  1.00  0.00    -0.039 SA
ENDROOT
TORSDOF 0
ENDMDL