MODEL 2
REMARK VINA RESULT: -4.454830808      1.814      2.230
REMARK  1 active torsions:
REMARK  status: ('A' for Active; 'I' for Inactive)
REMARK    1  A    between atoms: O1_1  and  N1_3
ROOT
HETATM    1  N1  UNL     1      -6.085  18.164  -9.528  1.00  0.00    -0.206 N
HETATM    2  C1  UNL     1      -6.453  19.258 -10.343  1.00  0.00     0.176 C
HETATM    3  C2  UNL     1      -6.905  20.484  -9.586  1.00  0.00     0.026 C
HETATM    4  C3  UNL     1      -5.850  20.767  -8.532  1.00  0.00     0.023 C
HETATM    5  C4  UNL     1      -5.791  19.557  -7.635  1.00  0.00     0.141 C
HETATM    6  N2  UNL     1      -5.372  18.426  -8.408  1.00  0.00    -0.315 N
ATOM      7  H2  UNL     1      -4.579  17.849  -8.128  1.00  0.00     0.182 HD
ENDROOT
BRANCH   1   8
HETATM    8  O1  UNL     1      -6.938  17.149  -9.480  1.00  0.00    -0.273 OA
ATOM      9  H1  UNL     1      -6.920  16.545 -10.213  1.00  0.00     0.246 HD
ENDBRANCH   1   8
TORSDOF 1
ENDMDL