MODEL 5
REMARK VINA RESULT: -3.130013975      2.722      2.761
REMARK  2 active torsions:
REMARK  status: ('A' for Active; 'I' for Inactive)
REMARK    1  A    between atoms: O1_1  and  C1_3
REMARK    2  A    between atoms: C1_3  and  N1_5
ROOT
HETATM    1  C1  UNL     1      -7.399  20.775  -9.813  1.00  0.00     0.218 C
HETATM    2  S1  UNL     1      -6.406  19.481  -9.777  1.00  0.00    -0.033 SA
ENDROOT
BRANCH   1   3
HETATM    3  O1  UNL     1      -8.472  20.771  -8.954  1.00  0.00    -0.337 OA
ATOM      4  H1  UNL     1      -8.711  21.597  -8.550  1.00  0.00     0.220 HD
ENDBRANCH   1   3
BRANCH   1   5
HETATM    5  N1  UNL     1      -7.175  21.858 -10.686  1.00  0.00    -0.291 N
HETATM    6  S2  UNL     1      -6.572  23.366 -10.008  1.00  0.00     0.045 SA
ATOM      7  H1  UNL     1      -7.358  21.770 -11.685  1.00  0.00     0.177 HD
ENDBRANCH   1   5
TORSDOF 2
ENDMDL