MODEL 4
REMARK VINA RESULT: -4.285014739      1.938      3.176
REMARK  3 active torsions:
REMARK  status: ('A' for Active; 'I' for Inactive)
REMARK    1  A    between atoms: C2_2  and  C4_4
REMARK    2  A    between atoms: C4_4  and  O1_5
REMARK    3  A    between atoms: N1_7  and  O2_9
ROOT
HETATM    1  C4  UNL     1      -6.799  19.925  -9.670  1.00  0.00     0.165 C
HETATM    2  N1  UNL     1      -6.913  20.157 -10.930  1.00  0.00    -0.247 N
ATOM      3  H1  UNL     1      -7.385  21.019 -11.207  1.00  0.00     0.196 HD
ENDROOT
BRANCH   1   4
HETATM    4  C2  UNL     1      -6.158  18.748  -9.115  1.00  0.00    -0.019 C
HETATM    5  C1  UNL     1      -6.690  17.557  -9.260  1.00  0.00     0.023 C
HETATM    6  C3  UNL     1      -4.885  18.870  -8.369  1.00  0.00     0.052 C
ENDBRANCH   1   4
BRANCH   1   7
HETATM    7  O1  UNL     1      -7.322  20.858  -8.761  1.00  0.00    -0.344 OA
ATOM      8  H1  UNL     1      -7.519  21.726  -9.096  1.00  0.00     0.219 HD
ENDBRANCH   1   7
BRANCH   2   9
HETATM    9  O2  UNL     1      -6.458  19.349 -11.921  1.00  0.00    -0.288 OA
ATOM     10  H2  UNL     1      -5.688  18.795 -11.866  1.00  0.00     0.244 HD
ENDBRANCH   2   9
TORSDOF 3
ENDMDL