MODEL 2
REMARK VINA RESULT: -4.373245738      1.408      2.307
REMARK  0 active torsions:
REMARK  status: ('A' for Active; 'I' for Inactive)
ROOT
HETATM    1  C1  UNL     1      -7.259  21.860  -8.798  1.00  0.00     0.035 C
HETATM    2  C2  UNL     1      -6.683  21.386  -7.530  1.00  0.00     0.116 C
HETATM    3  N1  UNL     1      -6.050  20.122  -7.528  1.00  0.00    -0.403 N
ATOM      4  H1  UNL     1      -5.869  19.648  -6.644  1.00  0.00     0.154 HD
HETATM    5  C3  UNL     1      -5.678  19.526  -8.711  1.00  0.00     0.184 C
HETATM    6  C4  UNL     1      -6.389  18.189  -8.940  1.00  0.00     0.170 C
HETATM    7  N2  UNL     1      -6.647  18.637 -10.296  1.00  0.00    -0.160 NA
HETATM    8  N3  UNL     1      -6.213  19.931  -9.934  1.00  0.00    -0.211 NA
HETATM    9  C5  UNL     1      -7.206  20.937  -9.955  1.00  0.00     0.113 C
ENDROOT
TORSDOF 0
ENDMDL