MODEL 4
REMARK VINA RESULT: -4.191257057      2.155      2.812
REMARK  3 active torsions:
REMARK  status: ('A' for Active; 'I' for Inactive)
REMARK    1  A    between atoms: C2_2  and  O2_4
REMARK    2  A    between atoms: O2_4  and  N1_5
REMARK    3  A    between atoms: N1_5  and  O3_7
ROOT
HETATM    1  O2  UNL     1      -5.446  18.268  -8.472  1.00  0.00    -0.200 OA
ENDROOT
BRANCH   1   2
HETATM    2  C2  UNL     1      -4.823  19.387  -7.943  1.00  0.00     0.274 C
HETATM    3  C1  UNL     1      -5.600  20.427  -7.242  1.00  0.00     0.128 C
HETATM    4  O1  UNL     1      -3.580  19.500  -8.072  1.00  0.00    -0.264 OA
ENDBRANCH   1   2
BRANCH   1   5
HETATM    5  N1  UNL     1      -6.613  18.364  -9.210  1.00  0.00    -0.067 NA
HETATM    6  C3  UNL     1      -6.449  19.199 -10.375  1.00  0.00     0.179 C
BRANCH   5   7
HETATM    7  O3  UNL     1      -6.926  17.118  -9.638  1.00  0.00    -0.289 OA
ATOM      8  H3  UNL     1      -7.597  17.206 -10.305  1.00  0.00     0.239 HD
ENDBRANCH   5   7
ENDBRANCH   1   5
TORSDOF 3
ENDMDL