MODEL 5
REMARK VINA RESULT: -4.301161949      2.859      3.599
REMARK  1 active torsions:
REMARK  status: ('A' for Active; 'I' for Inactive)
REMARK    1  A    between atoms: N2_5  and  O1_6
ROOT
HETATM    1  C1  UNL     1      -6.323  18.056  -9.094  1.00  0.00     0.043 C
HETATM    2  C2  UNL     1      -5.796  19.349  -8.537  1.00  0.00     0.161 C
HETATM    3  C3  UNL     1      -4.475  19.111  -7.811  1.00  0.00     0.167 C
HETATM    4  N1  UNL     1      -3.684  20.286  -8.203  1.00  0.00    -0.110 NA
HETATM    5  N2  UNL     1      -4.622  21.086  -8.819  1.00  0.00     0.029 NA
HETATM    6  O2  UNL     1      -5.393  20.239  -9.531  1.00  0.00    -0.258 OA
ENDROOT
BRANCH   5   7
HETATM    7  O1  UNL     1      -4.153  22.116  -9.494  1.00  0.00    -0.274 OA
ATOM      8  H1  UNL     1      -4.792  22.764  -9.767  1.00  0.00     0.241 HD
ENDBRANCH   5   7
TORSDOF 1
ENDMDL