MODEL 1
REMARK VINA RESULT: -4.272767204      0.000      0.000
REMARK  0 active torsions:
REMARK  status: ('A' for Active; 'I' for Inactive)
ROOT
HETATM    1  C1  UNL     1      -6.401  19.228 -10.066  1.00  0.00     0.059 C
HETATM    2  C2  UNL     1      -5.621  19.503  -8.825  1.00  0.00     0.228 C
HETATM    3  N1  UNL     1      -4.830  20.715  -8.960  1.00  0.00    -0.114 NA
HETATM    4  N2  UNL     1      -3.759  20.566  -8.054  1.00  0.00    -0.114 NA
HETATM    5  C3  UNL     1      -3.903  19.199  -7.564  1.00  0.00     0.228 C
HETATM    6  C4  UNL     1      -2.584  18.544  -7.287  1.00  0.00     0.059 C
HETATM    7  O1  UNL     1      -4.597  18.554  -8.608  1.00  0.00    -0.346 OA
ENDROOT
TORSDOF 0
ENDMDL