MODEL 3
REMARK VINA RESULT: -3.795346765      1.933      2.441
REMARK  0 active torsions:
REMARK  status: ('A' for Active; 'I' for Inactive)
ROOT
HETATM    1  C1  UNL     1      -6.778  21.634  -8.058  1.00  0.00     0.004 C
HETATM    2  C2  UNL     1      -5.610  21.172  -8.948  1.00  0.00     0.029 C
HETATM    3  C3  UNL     1      -6.480  20.045  -9.321  1.00  0.00     0.061 C
HETATM    4  C4  UNL     1      -7.667  20.925  -9.096  1.00  0.00     0.029 C
HETATM    5  C5  UNL     1      -6.314  19.308 -10.551  1.00  0.00     0.158 C
HETATM    6  N1  UNL     1      -6.856  18.164  -9.798  1.00  0.00    -0.146 NA
HETATM    7  N2  UNL     1      -6.406  18.821  -8.621  1.00  0.00    -0.137 NA
ENDROOT
TORSDOF 0
ENDMDL