MODEL 3
REMARK VINA RESULT: -6.812141919      2.044      4.073
REMARK  13 active torsions:
REMARK  status: ('A' for Active; 'I' for Inactive)
REMARK    1  A    between atoms: O1_1  and  C1_3
REMARK    2  A    between atoms: C5_7  and  C6_8
REMARK    3  A    between atoms: C6_8  and  C7_9
REMARK    4  A    between atoms: C7_9  and  C8_10
REMARK    5  A    between atoms: C8_10  and  C9_11
REMARK    6  A    between atoms: C9_11  and  O2_12
REMARK    7  A    between atoms: O2_12  and  C10_13
REMARK    8  A    between atoms: C10_13  and  C11_14
REMARK    9  A    between atoms: C12_15  and  O3_16
REMARK   10  A    between atoms: C13_18  and  O4_19
REMARK   11  A    between atoms: C14_21  and  O5_22
REMARK   12  A    between atoms: C15_24  and  O6_25
REMARK   13  A    between atoms: C16_27  and  O7_28
ROOT
HETATM    1  C11 UNL     1      14.375  37.390 -11.210  1.00  0.00     0.072 C
HETATM    2  C12 UNL     1      14.386  38.155 -12.469  1.00  0.00     0.158 C
HETATM    3  C13 UNL     1      13.967  37.518 -13.720  1.00  0.00     0.178 C
HETATM    4  C14 UNL     1      13.710  36.046 -13.674  1.00  0.00     0.180 C
HETATM    5  C15 UNL     1      13.213  35.571 -12.330  1.00  0.00     0.178 C
HETATM    6  C16 UNL     1      14.259  35.899 -11.322  1.00  0.00     0.158 C
ENDROOT
BRANCH   1   7
HETATM    7  C10 UNL     1      13.253  37.850 -10.287  1.00  0.00     0.177 C
BRANCH   7   8
HETATM    8  O2  UNL     1      13.644  38.125  -9.013  1.00  0.00    -0.391 OA
BRANCH   8   9
HETATM    9  C9  UNL     1      12.644  38.621  -8.241  1.00  0.00     0.167 C
BRANCH   9  10
HETATM   10  C8  UNL     1      12.916  40.014  -7.753  1.00  0.00     0.026 C
BRANCH  10  11
HETATM   11  C7  UNL     1      12.113  41.014  -8.587  1.00  0.00     0.002 C
BRANCH  11  12
HETATM   12  C6  UNL     1      13.048  41.513  -9.664  1.00  0.00     0.007 C
BRANCH  12  13
HETATM   13  C5  UNL     1      14.416  41.847  -9.158  1.00  0.00     0.014 C
HETATM   14  C1  UNL     1      15.524  41.481 -10.090  1.00  0.00     0.122 C
HETATM   15  C2  UNL     1      16.676  42.407  -9.710  1.00  0.00     0.032 C
HETATM   16  C3  UNL     1      16.103  43.423  -8.751  1.00  0.00     0.003 C
HETATM   17  C4  UNL     1      14.615  43.357  -9.018  1.00  0.00     0.007 C
BRANCH  14  18
HETATM   18  O1  UNL     1      15.879  40.145  -9.919  1.00  0.00    -0.395 OA
ATOM     19  H1  UNL     1      15.289  39.711  -9.314  1.00  0.00     0.210 HD
ENDBRANCH  14  18
ENDBRANCH  12  13
ENDBRANCH  11  12
ENDBRANCH  10  11
ENDBRANCH   9  10
ENDBRANCH   8   9
ENDBRANCH   7   8
ENDBRANCH   1   7
BRANCH   2  20
HETATM   20  O3  UNL     1      15.701  38.650 -12.662  1.00  0.00    -0.392 OA
ATOM     21  H3  UNL     1      15.724  39.545 -12.343  1.00  0.00     0.210 HD
ENDBRANCH   2  20
BRANCH   6  22
HETATM   22  O7  UNL     1      15.473  35.276 -11.556  1.00  0.00    -0.392 OA
ATOM     23  H7  UNL     1      15.430  34.623 -12.245  1.00  0.00     0.210 HD
ENDBRANCH   6  22
BRANCH   3  24
HETATM   24  O4  UNL     1      14.883  37.740 -14.772  1.00  0.00    -0.390 OA
ATOM     25  H4  UNL     1      14.869  37.045 -15.419  1.00  0.00     0.210 HD
ENDBRANCH   3  24
BRANCH   5  26
HETATM   26  O6  UNL     1      13.140  34.160 -12.439  1.00  0.00    -0.390 OA
ATOM     27  H6  UNL     1      12.214  33.966 -12.528  1.00  0.00     0.210 HD
ENDBRANCH   5  26
BRANCH   4  28
HETATM   28  O5  UNL     1      12.782  35.624 -14.627  1.00  0.00    -0.390 OA
ATOM     29  H5  UNL     1      11.885  35.827 -14.389  1.00  0.00     0.210 HD
ENDBRANCH   4  28
TORSDOF 13
ENDMDL