MODEL 3
REMARK VINA RESULT: -6.627416021      1.496      1.752
REMARK  11 active torsions:
REMARK  status: ('A' for Active; 'I' for Inactive)
REMARK    1  A    between atoms: C2_2  and  C3_3
REMARK    2  A    between atoms: C4_4  and  C5_5
REMARK    3  A    between atoms: C5_5  and  N1_6
REMARK    4  A    between atoms: N1_6  and  C7_8
REMARK    5  A    between atoms: C7_8  and  C8_9
REMARK    6  A    between atoms: C8_9  and  N2_10
REMARK    7  A    between atoms: N2_10  and  C10_12
REMARK    8  A    between atoms: C10_12  and  C11_13
REMARK    9  A    between atoms: C11_13  and  O1_14
REMARK   10  A    between atoms: C13_23  and  N6_24
REMARK   11  A    between atoms: C14_29  and  N8_30
ROOT
HETATM    1  C3  UNL     1      13.108  40.085  -8.587  1.00  0.00    -0.015 A
HETATM    2  C4  UNL     1      13.938  39.124  -9.208  1.00  0.00     0.061 A
HETATM    3  N3  UNL     1      14.141  37.908  -8.672  1.00  0.00    -0.301 N
ATOM      4  H3  UNL     1      14.747  37.248  -9.158  1.00  0.00     0.186 HD
HETATM    5  N4  UNL     1      13.583  37.549  -7.547  1.00  0.00    -0.284 N
ATOM      6  H4  UNL     1      13.762  36.618  -7.172  1.00  0.00     0.188 HD
HETATM    7  C12 UNL     1      12.779  38.387  -6.878  1.00  0.00     0.150 A
HETATM    8  N5  UNL     1      12.198  38.027  -5.715  1.00  0.00    -0.175 N
ATOM      9  H5  UNL     1      12.383  37.093  -5.348  1.00  0.00     0.186 HD
HETATM   10  C13 UNL     1      11.390  38.837  -5.021  1.00  0.00     0.679 A
HETATM   11  N7  UNL     1      11.129  40.064  -5.483  1.00  0.00    -0.176 N
ATOM     12  H7  UNL     1      10.512  40.689  -4.964  1.00  0.00     0.186 HD
HETATM   13  C14 UNL     1      11.698  40.474  -6.662  1.00  0.00     0.129 A
HETATM   14  C15 UNL     1      12.532  39.672  -7.398  1.00  0.00     0.062 A
ENDROOT
BRANCH   2  15
HETATM   15  C5  UNL     1      14.557  39.554 -10.479  1.00  0.00     0.330 C
BRANCH  15  16
HETATM   16  N1  UNL     1      13.708  39.292 -11.655  1.00  0.00     0.091 N
HETATM   17  C6  UNL     1      14.432  40.042 -12.715  1.00  0.00     0.310 C
BRANCH  16  18
HETATM   18  C7  UNL     1      13.658  37.905 -12.011  1.00  0.00     0.302 C
BRANCH  18  19
HETATM   19  C8  UNL     1      13.972  37.506 -13.394  1.00  0.00     0.302 C
BRANCH  19  20
HETATM   20  N2  UNL     1      14.921  36.424 -13.566  1.00  0.00     0.087 N
HETATM   21  C9  UNL     1      15.566  36.523 -14.884  1.00  0.00     0.310 C
BRANCH  20  22
HETATM   22  C10 UNL     1      15.982  36.540 -12.543  1.00  0.00     0.297 C
BRANCH  22  23
HETATM   23  C11 UNL     1      17.242  37.071 -13.132  1.00  0.00     0.194 C
BRANCH  23  24
HETATM   24  O1  UNL     1      17.684  38.236 -12.488  1.00  0.00    -0.399 OA
ATOM     25  H1  UNL     1      16.965  38.766 -12.165  1.00  0.00     0.209 HD
ENDBRANCH  23  24
ENDBRANCH  22  23
ENDBRANCH  20  22
ENDBRANCH  19  20
ENDBRANCH  18  19
ENDBRANCH  16  18
ENDBRANCH  15  16
ENDBRANCH   2  15
BRANCH   1  26
HETATM   26  C2  UNL     1      12.847  41.392  -9.139  1.00  0.00     0.037 C
HETATM   27  C1  UNL     1      13.939  42.424  -9.005  1.00  0.00     0.010 C
ENDBRANCH   1  26
BRANCH  13  28
HETATM   28  N8  UNL     1      11.408  41.644  -7.073  1.00  0.00    -0.384 N
ATOM     29  H82 UNL     1      10.575  41.796  -7.643  1.00  0.00     0.157 HD
ATOM     30  H81 UNL     1      12.030  42.403  -6.794  1.00  0.00     0.157 HD
ENDBRANCH  13  28
BRANCH  10  31
HETATM   31  N6  UNL     1      10.873  38.414  -3.907  1.00  0.00    -0.234 N
ATOM     32  H62 UNL     1       9.939  38.006  -3.880  1.00  0.00     0.174 HD
ATOM     33  H61 UNL     1      11.414  38.492  -3.046  1.00  0.00     0.174 HD
ENDBRANCH  10  31
TORSDOF 11
ENDMDL