MODEL 4
REMARK VINA RESULT: -7.615013852      2.023      9.106
REMARK  10 active torsions:
REMARK  status: ('A' for Active; 'I' for Inactive)
REMARK    1  A    between atoms: N1_1  and  C1_4
REMARK    2  A    between atoms: N3_9  and  C3_10
REMARK    3  A    between atoms: C3_10  and  C4_11
REMARK    4  A    between atoms: C4_11  and  C5_12
REMARK    5  A    between atoms: C5_12  and  C6_13
REMARK    6  A    between atoms: C6_13  and  C7_14
REMARK    7  A    between atoms: C7_14  and  C8_15
REMARK    8  A    between atoms: C8_15  and  C9_16
REMARK    9  A    between atoms: C9_16  and  N4_17
REMARK   10  A    between atoms: C10_20  and  N6_21
ROOT
HETATM    1  C5  UNL     1      13.723  41.314  -8.693  1.00  0.00     0.002 C
ENDROOT
BRANCH   1   2
HETATM    2  C4  UNL     1      12.858  41.424  -7.458  1.00  0.00     0.020 C
BRANCH   2   3
HETATM    3  C3  UNL     1      11.623  40.543  -7.627  1.00  0.00     0.139 C
BRANCH   3   4
HETATM    4  N3  UNL     1      11.305  39.860  -6.388  1.00  0.00    -0.250 N
HETATM    5  C2  UNL     1      10.503  40.403  -5.451  1.00  0.00     0.344 A
HETATM    6  N2  UNL     1      10.221  39.747  -4.308  1.00  0.00    -0.141 N
HETATM    7  O1  UNL     1       9.996  41.540  -5.627  1.00  0.00    -0.246 OA
HETATM    8  C1  UNL     1      10.731  38.528  -4.058  1.00  0.00     0.683 A
ATOM      9  H2  UNL     1       9.609  40.184  -3.618  1.00  0.00     0.189 HD
HETATM   10  N8  UNL     1      11.524  37.977  -4.970  1.00  0.00    -0.141 N
HETATM   11  C12 UNL     1      11.804  38.632  -6.113  1.00  0.00     0.344 A
ATOM     12  H8  UNL     1      11.923  37.053  -4.804  1.00  0.00     0.189 HD
HETATM   13  O3  UNL     1      12.556  38.096  -6.964  1.00  0.00    -0.246 OA
BRANCH   8  14
HETATM   14  N1  UNL     1      10.427  37.938  -2.936  1.00  0.00    -0.234 N
ATOM     15  H12 UNL     1      10.276  36.931  -2.864  1.00  0.00     0.174 HD
ATOM     16  H11 UNL     1      10.336  38.503  -2.093  1.00  0.00     0.174 HD
ENDBRANCH   8  14
ENDBRANCH   3   4
ENDBRANCH   2   3
ENDBRANCH   1   2
BRANCH   1  17
HETATM   17  C6  UNL     1      13.089  40.510  -9.777  1.00  0.00     0.000 C
BRANCH  17  18
HETATM   18  C7  UNL     1      13.947  39.355 -10.236  1.00  0.00     0.002 C
BRANCH  18  19
HETATM   19  C8  UNL     1      13.217  38.053 -10.220  1.00  0.00     0.022 C
BRANCH  19  20
HETATM   20  C9  UNL     1      14.234  36.923 -10.257  1.00  0.00     0.154 C
BRANCH  20  21
HETATM   21  N4  UNL     1      14.649  36.588 -11.602  1.00  0.00    -0.228 N
HETATM   22  N5  UNL     1      15.754  36.936 -12.231  1.00  0.00    -0.126 N
HETATM   23  C10 UNL     1      15.737  36.410 -13.466  1.00  0.00     0.694 A
ATOM     24  H5  UNL     1      16.502  37.510 -11.842  1.00  0.00     0.206 HD
HETATM   25  N7  UNL     1      14.609  35.727 -13.607  1.00  0.00    -0.139 N
HETATM   26  C11 UNL     1      13.935  35.838 -12.451  1.00  0.00     0.355 A
ATOM     27  H7  UNL     1      14.310  35.215 -14.437  1.00  0.00     0.189 HD
HETATM   28  O2  UNL     1      12.809  35.325 -12.188  1.00  0.00    -0.244 OA
BRANCH  23  29
HETATM   29  N6  UNL     1      16.633  36.518 -14.392  1.00  0.00    -0.233 N
ATOM     30  H62 UNL     1      16.414  36.674 -15.377  1.00  0.00     0.174 HD
ATOM     31  H61 UNL     1      17.648  36.469 -14.296  1.00  0.00     0.174 HD
ENDBRANCH  23  29
ENDBRANCH  20  21
ENDBRANCH  19  20
ENDBRANCH  18  19
ENDBRANCH  17  18
ENDBRANCH   1  17
TORSDOF 10
ENDMDL