MODEL 5
REMARK VINA RESULT: -6.736539021      1.904      6.384
REMARK  10 active torsions:
REMARK  status: ('A' for Active; 'I' for Inactive)
REMARK    1  A    between atoms: N1_1  and  C1_4
REMARK    2  A    between atoms: N5_14  and  C5_16
REMARK    3  A    between atoms: C5_16  and  C6_17
REMARK    4  A    between atoms: C6_17  and  C7_18
REMARK    5  A    between atoms: C7_18  and  N6_19
REMARK    6  A    between atoms: N7_23  and  C8_24
REMARK    7  A    between atoms: C8_24  and  C9_25
REMARK    8  A    between atoms: C9_25  and  N8_26
REMARK    9  A    between atoms: N8_26  and  C10_28
REMARK   10  A    between atoms: C10_28  and  C11_29
ROOT
HETATM    1  C1  UNL     1      13.287  38.360  -7.893  1.00  0.00     0.131 A
HETATM    2  N2  UNL     1      13.841  37.462  -8.735  1.00  0.00    -0.337 N
ATOM      3  H2  UNL     1      14.102  36.546  -8.370  1.00  0.00     0.168 HD
HETATM    4  C2  UNL     1      14.064  37.723 -10.032  1.00  0.00     0.183 A
HETATM    5  N3  UNL     1      13.698  38.948 -10.450  1.00  0.00    -0.336 N
ATOM      6  H3  UNL     1      13.854  39.184 -11.431  1.00  0.00     0.168 HD
HETATM    7  C3  UNL     1      13.149  39.867  -9.670  1.00  0.00     0.153 A
HETATM    8  N4  UNL     1      12.737  41.132  -9.865  1.00  0.00    -0.174 N
ATOM      9  H4  UNL     1      12.773  41.641 -10.749  1.00  0.00     0.186 HD
HETATM   10  C4  UNL     1      12.275  41.609  -8.709  1.00  0.00     0.682 A
HETATM   11  N5  UNL     1      11.804  42.819  -8.533  1.00  0.00    -0.226 N
ATOM     12  H5  UNL     1      11.466  43.116  -7.617  1.00  0.00     0.177 HD
HETATM   13  N7  UNL     1      12.372  40.658  -7.711  1.00  0.00    -0.171 N
HETATM   14  C15 UNL     1      12.911  39.611  -8.327  1.00  0.00     0.140 A
ENDROOT
BRANCH  13  15
HETATM   15  C8  UNL     1      11.965  40.924  -6.367  1.00  0.00     0.192 C
BRANCH  15  16
HETATM   16  C9  UNL     1      10.681  40.297  -5.928  1.00  0.00     0.076 C
BRANCH  16  17
HETATM   17  N8  UNL     1      10.137  40.454  -4.675  1.00  0.00    -0.399 N
ATOM     18  H8  UNL     1      10.204  41.358  -4.206  1.00  0.00     0.158 HD
BRANCH  17  19
HETATM   19  C10 UNL     1       9.484  39.375  -4.029  1.00  0.00     0.151 C
BRANCH  19  20
HETATM   20  C11 UNL     1      10.404  38.321  -3.452  1.00  0.00     0.203 C
HETATM   21  C12 UNL     1       9.755  37.413  -2.460  1.00  0.00     0.036 C
HETATM   22  C13 UNL     1      10.053  37.981  -1.097  1.00  0.00     0.029 C
HETATM   23  C14 UNL     1      11.003  39.106  -1.355  1.00  0.00     0.233 C
HETATM   24  N9  UNL     1      11.475  38.949  -2.716  1.00  0.00    -0.069 N
ATOM     25  H92 UNL     1      12.359  38.445  -2.780  1.00  0.00     0.277 HD
ATOM     26  H91 UNL     1      11.796  39.821  -3.135  1.00  0.00     0.277 HD
ENDBRANCH  19  20
ENDBRANCH  17  19
ENDBRANCH  16  17
ENDBRANCH  15  16
ENDBRANCH  13  15
BRANCH  11  27
HETATM   27  C5  UNL     1      11.771  43.733  -9.666  1.00  0.00     0.139 C
BRANCH  27  28
HETATM   28  C6  UNL     1      10.609  44.701  -9.548  1.00  0.00     0.047 C
BRANCH  28  29
HETATM   29  C7  UNL     1       9.329  43.967  -9.253  1.00  0.00     0.231 C
BRANCH  29  30
HETATM   30  N6  UNL     1       8.791  43.374 -10.462  1.00  0.00    -0.079 N
ATOM     31  H63 UNL     1       9.438  43.459 -11.246  1.00  0.00     0.274 HD
ATOM     32  H62 UNL     1       8.756  42.356 -10.402  1.00  0.00     0.274 HD
ATOM     33  H61 UNL     1       7.877  43.772 -10.682  1.00  0.00     0.274 HD
ENDBRANCH  29  30
ENDBRANCH  28  29
ENDBRANCH  27  28
ENDBRANCH  11  27
BRANCH   1  34
HETATM   34  N1  UNL     1      13.141  38.078  -6.668  1.00  0.00    -0.383 N
ATOM     35  H12 UNL     1      13.975  37.980  -6.090  1.00  0.00     0.157 HD
ATOM     36  H11 UNL     1      12.209  37.921  -6.285  1.00  0.00     0.157 HD
ENDBRANCH   1  34
TORSDOF 10
ENDMDL