MODEL 4
REMARK VINA RESULT: -6.309715570      2.508      3.270
REMARK  11 active torsions:
REMARK  status: ('A' for Active; 'I' for Inactive)
REMARK    1  A    between atoms: N1_1  and  C1_5
REMARK    2  A    between atoms: C1_5  and  C2_6
REMARK    3  A    between atoms: C2_6  and  C3_7
REMARK    4  A    between atoms: C3_7  and  S1_8
REMARK    5  A    between atoms: S1_8  and  C4_9
REMARK    6  A    between atoms: C4_9  and  C5_10
REMARK    7  A    between atoms: C5_10  and  N2_11
REMARK    8  A    between atoms: N2_11  and  C6_13
REMARK    9  A    between atoms: C9_16  and  C10_17
REMARK   10  A    between atoms: C13_25  and  O1_26
REMARK   11  A    between atoms: C14_28  and  N6_29
ROOT
HETATM    1  C6  UNL     1      13.552  38.473 -10.570  1.00  0.00     0.111 C
HETATM    2  C7  UNL     1      13.553  36.983 -10.622  1.00  0.00     0.028 C
HETATM    3  C8  UNL     1      13.420  36.751 -12.154  1.00  0.00     0.011 C
HETATM    4  C9  UNL     1      14.450  37.675 -12.693  1.00  0.00     0.043 C
HETATM    5  C14 UNL     1      14.538  38.797 -11.736  1.00  0.00     0.212 C
ENDROOT
BRANCH   1   6
HETATM    6  N2  UNL     1      13.952  39.145  -9.419  1.00  0.00    -0.395 N
ATOM      7  H2  UNL     1      14.937  39.344  -9.245  1.00  0.00     0.159 HD
BRANCH   6   8
HETATM    8  C5  UNL     1      12.966  39.543  -8.506  1.00  0.00     0.066 C
BRANCH   8   9
HETATM    9  C4  UNL     1      12.583  38.639  -7.394  1.00  0.00     0.118 C
BRANCH   9  10
HETATM   10  S1  UNL     1      11.366  39.464  -6.294  1.00  0.00    -0.164 SA
BRANCH  10  11
HETATM   11  C3  UNL     1      10.909  38.388  -4.915  1.00  0.00     0.076 C
BRANCH  11  12
HETATM   12  C2  UNL     1       9.880  39.146  -4.093  1.00  0.00     0.037 C
BRANCH  12  13
HETATM   13  C1  UNL     1      10.176  38.862  -2.633  1.00  0.00     0.230 C
BRANCH  13  14
HETATM   14  N1  UNL     1      11.570  39.053  -2.318  1.00  0.00    -0.079 N
ATOM     15  H13 UNL     1      11.906  39.956  -2.652  1.00  0.00     0.274 HD
ATOM     16  H12 UNL     1      11.709  39.190  -1.317  1.00  0.00     0.274 HD
ATOM     17  H11 UNL     1      12.148  38.289  -2.670  1.00  0.00     0.274 HD
ENDBRANCH  13  14
ENDBRANCH  12  13
ENDBRANCH  11  12
ENDBRANCH  10  11
ENDBRANCH   9  10
ENDBRANCH   8   9
ENDBRANCH   6   8
ENDBRANCH   1   6
BRANCH   5  18
HETATM   18  N6  UNL     1      14.070  40.056 -12.280  1.00  0.00    -0.073 N
ATOM     19  H63 UNL     1      14.282  40.184 -13.269  1.00  0.00     0.274 HD
ATOM     20  H62 UNL     1      13.056  40.116 -12.370  1.00  0.00     0.274 HD
ATOM     21  H61 UNL     1      14.476  40.768 -11.673  1.00  0.00     0.274 HD
ENDBRANCH   5  18
BRANCH   4  22
HETATM   22  C10 UNL     1      15.750  36.955 -12.941  1.00  0.00     0.120 C
HETATM   23  N3  UNL     1      16.874  37.761 -12.463  1.00  0.00    -0.357 N
HETATM   24  C11 UNL     1      17.753  38.443 -13.340  1.00  0.00     0.184 C
ATOM     25  H3  UNL     1      17.030  37.835 -11.458  1.00  0.00     0.162 HD
HETATM   26  N4  UNL     1      18.271  39.728 -13.057  1.00  0.00    -0.064 NA
HETATM   27  N5  UNL     1      18.120  37.865 -14.473  1.00  0.00    -0.362 N
HETATM   28  C12 UNL     1      17.501  36.538 -14.610  1.00  0.00     0.156 C
ATOM     29  H5  UNL     1      18.748  38.284 -15.159  1.00  0.00     0.162 HD
HETATM   30  C13 UNL     1      15.995  36.781 -14.422  1.00  0.00     0.159 C
BRANCH  30  31
HETATM   31  O1  UNL     1      15.381  35.694 -14.998  1.00  0.00    -0.392 OA
ATOM     32  H1  UNL     1      15.881  35.256 -15.677  1.00  0.00     0.210 HD
ENDBRANCH  30  31
ENDBRANCH   4  22
TORSDOF 11
ENDMDL