MODEL 5
REMARK VINA RESULT: -5.959763426      2.726      6.822
REMARK  12 active torsions:
REMARK  status: ('A' for Active; 'I' for Inactive)
REMARK    1  A    between atoms: N1_1  and  C1_5
REMARK    2  A    between atoms: C1_5  and  C2_6
REMARK    3  A    between atoms: C2_6  and  C3_7
REMARK    4  A    between atoms: C3_7  and  C4_8
REMARK    5  A    between atoms: C7_11  and  C8_12
REMARK    6  A    between atoms: C8_12  and  N2_13
REMARK    7  A    between atoms: C9_17  and  O1_18
REMARK    8  A    between atoms: C10_20  and  O2_21
REMARK    9  A    between atoms: O2_21  and  C11_22
REMARK   10  A    between atoms: C14_28  and  C15_29
REMARK   11  A    between atoms: C15_29  and  O3_30
REMARK   12  A    between atoms: O3_30  and  N4_31
ROOT
HETATM    1  C4  UNL     1      13.865  40.274  -9.386  1.00  0.00     0.017 C
HETATM    2  C5  UNL     1      13.583  41.680  -8.923  1.00  0.00     0.008 C
HETATM    3  C6  UNL     1      12.542  42.353  -9.865  1.00  0.00     0.009 C
HETATM    4  C7  UNL     1      12.769  42.043 -11.280  1.00  0.00     0.042 C
HETATM    5  C9  UNL     1      13.937  41.252 -11.676  1.00  0.00     0.153 C
HETATM    6  C10 UNL     1      14.176  40.045 -10.775  1.00  0.00     0.158 C
ENDROOT
BRANCH   6   7
HETATM    7  O2  UNL     1      13.434  38.919 -11.182  1.00  0.00    -0.353 OA
BRANCH   7   8
HETATM    8  C11 UNL     1      14.220  37.850 -11.470  1.00  0.00     0.264 C
HETATM    9  C12 UNL     1      13.544  36.492 -11.364  1.00  0.00     0.088 C
HETATM   10  C13 UNL     1      13.388  35.754 -12.643  1.00  0.00     0.240 C
HETATM   11  N3  UNL     1      14.575  35.824 -13.490  1.00  0.00    -0.046 N
HETATM   12  C14 UNL     1      15.478  36.784 -12.921  1.00  0.00     0.349 C
ATOM     13  H32 UNL     1      15.010  34.913 -13.633  1.00  0.00     0.280 HD
ATOM     14  H31 UNL     1      14.350  36.025 -14.464  1.00  0.00     0.280 HD
HETATM   15  O4  UNL     1      14.913  38.000 -12.668  1.00  0.00    -0.327 OA
BRANCH  12  16
HETATM   16  C15 UNL     1      16.677  36.883 -13.929  1.00  0.00     0.261 C
BRANCH  16  17
HETATM   17  O3  UNL     1      17.630  37.224 -12.957  1.00  0.00    -0.283 OA
BRANCH  17  18
HETATM   18  N4  UNL     1      17.680  38.539 -12.660  1.00  0.00    -0.311 N
ATOM     19  H42 UNL     1      18.276  39.186 -13.178  1.00  0.00     0.184 HD
ATOM     20  H41 UNL     1      17.079  38.821 -11.886  1.00  0.00     0.184 HD
ENDBRANCH  17  18
ENDBRANCH  16  17
ENDBRANCH  12  16
ENDBRANCH   7   8
ENDBRANCH   6   7
BRANCH   1  21
HETATM   21  C3  UNL     1      12.875  39.293  -8.730  1.00  0.00     0.009 C
BRANCH  21  22
HETATM   22  C2  UNL     1      12.549  39.742  -7.318  1.00  0.00     0.028 C
BRANCH  22  23
HETATM   23  C1  UNL     1      11.606  38.831  -6.615  1.00  0.00     0.229 C
BRANCH  23  24
HETATM   24  N1  UNL     1      12.101  38.008  -5.576  1.00  0.00    -0.079 N
ATOM     25  H13 UNL     1      11.897  37.034  -5.802  1.00  0.00     0.274 HD
ATOM     26  H12 UNL     1      13.120  38.010  -5.612  1.00  0.00     0.274 HD
ATOM     27  H11 UNL     1      11.804  38.193  -4.618  1.00  0.00     0.274 HD
ENDBRANCH  23  24
ENDBRANCH  22  23
ENDBRANCH  21  22
ENDBRANCH   1  21
BRANCH   5  28
HETATM   28  O1  UNL     1      15.095  41.976 -11.794  1.00  0.00    -0.393 OA
ATOM     29  H1  UNL     1      15.857  41.560 -11.407  1.00  0.00     0.210 HD
ENDBRANCH   5  28
BRANCH   4  30
HETATM   30  C8  UNL     1      12.678  43.281 -12.153  1.00  0.00     0.236 C
BRANCH  30  31
HETATM   31  N2  UNL     1      12.500  42.972 -13.525  1.00  0.00    -0.079 N
ATOM     32  H23 UNL     1      12.912  42.068 -13.753  1.00  0.00     0.274 HD
ATOM     33  H22 UNL     1      11.523  42.764 -13.729  1.00  0.00     0.274 HD
ATOM     34  H21 UNL     1      12.855  43.702 -14.143  1.00  0.00     0.274 HD
ENDBRANCH  30  31
ENDBRANCH   4  30
TORSDOF 12
ENDMDL