MODEL 4
REMARK VINA RESULT: -6.517887600      4.570      7.713
REMARK  12 active torsions:
REMARK  status: ('A' for Active; 'I' for Inactive)
REMARK    1  A    between atoms: C2_2  and  C3_3
REMARK    2  A    between atoms: C3_3  and  C4_4
REMARK    3  A    between atoms: C4_4  and  C5_5
REMARK    4  A    between atoms: C5_5  and  C6_6
REMARK    5  A    between atoms: C6_6  and  S1_7
REMARK    6  A    between atoms: S1_7  and  C7_8
REMARK    7  A    between atoms: C7_8  and  C8_9
REMARK    8  A    between atoms: C8_9  and  O1_10
REMARK    9  A    between atoms: C10_16  and  C12_18
REMARK   10  A    between atoms: C13_22  and  O2_23
REMARK   11  A    between atoms: C14_25  and  O3_26
REMARK   12  A    between atoms: C15_28  and  O4_29
ROOT
HETATM    1  C8  UNL     1      12.958  39.034  -8.864  1.00  0.00     0.259 C
HETATM    2  C9  UNL     1      14.407  38.686  -8.592  1.00  0.00     0.304 C
HETATM    3  N1  UNL     1      14.753  38.023  -9.840  1.00  0.00    -0.034 N
ATOM      4  H11 UNL     1      14.509  37.033  -9.873  1.00  0.00     0.280 HD
ATOM      5  H12 UNL     1      15.753  37.893  -9.986  1.00  0.00     0.280 HD
HETATM    6  C10 UNL     1      14.089  38.849 -10.868  1.00  0.00     0.317 C
HETATM    7  C11 UNL     1      15.169  39.811 -11.326  1.00  0.00     0.081 C
HETATM    8  N3  UNL     1      13.012  39.535 -10.198  1.00  0.00    -0.004 N
ATOM      9  H31 UNL     1      13.098  40.550 -10.240  1.00  0.00     0.284 HD
ATOM     10  H32 UNL     1      12.122  39.457 -10.690  1.00  0.00     0.284 HD
ENDROOT
BRANCH   6  11
HETATM   11  C12 UNL     1      13.631  37.903 -11.918  1.00  0.00     0.284 C
HETATM   12  N2  UNL     1      13.198  36.638 -11.425  1.00  0.00    -0.035 N
HETATM   13  C13 UNL     1      13.013  35.825 -12.619  1.00  0.00     0.351 C
ATOM     14  H22 UNL     1      13.822  36.225 -10.733  1.00  0.00     0.281 HD
ATOM     15  H21 UNL     1      12.377  36.685 -10.823  1.00  0.00     0.281 HD
HETATM   16  C14 UNL     1      13.832  36.469 -13.723  1.00  0.00     0.205 C
HETATM   17  C15 UNL     1      14.646  37.519 -12.951  1.00  0.00     0.186 C
BRANCH  13  18
HETATM   18  O2  UNL     1      13.558  34.543 -12.421  1.00  0.00    -0.368 OA
ATOM     19  H2  UNL     1      12.870  33.925 -12.206  1.00  0.00     0.212 HD
ENDBRANCH  13  18
BRANCH  16  20
HETATM   20  O3  UNL     1      14.646  35.562 -14.376  1.00  0.00    -0.389 OA
ATOM     21  H3  UNL     1      15.363  35.259 -13.831  1.00  0.00     0.210 HD
ENDBRANCH  16  20
BRANCH  17  22
HETATM   22  O4  UNL     1      15.758  36.876 -12.475  1.00  0.00    -0.391 OA
ATOM     23  H4  UNL     1      16.231  37.330 -11.788  1.00  0.00     0.210 HD
ENDBRANCH  17  22
ENDBRANCH   6  11
BRANCH   1  24
HETATM   24  C7  UNL     1      12.426  40.025  -7.858  1.00  0.00     0.144 C
BRANCH  24  25
HETATM   25  S1  UNL     1      11.847  41.469  -8.796  1.00  0.00    -0.164 SA
BRANCH  25  26
HETATM   26  C6  UNL     1      12.498  43.019  -8.125  1.00  0.00     0.074 C
BRANCH  26  27
HETATM   27  C5  UNL     1      13.647  42.704  -7.224  1.00  0.00     0.010 C
BRANCH  27  28
HETATM   28  C4  UNL     1      14.940  43.351  -7.663  1.00  0.00     0.001 C
BRANCH  28  29
HETATM   29  C3  UNL     1      15.507  42.689  -8.897  1.00  0.00    -0.000 C
BRANCH  29  30
HETATM   30  C2  UNL     1      16.793  43.444  -9.245  1.00  0.00    -0.005 C
HETATM   31  C1  UNL     1      17.043  44.509  -8.201  1.00  0.00     0.005 C
ENDBRANCH  29  30
ENDBRANCH  28  29
ENDBRANCH  27  28
ENDBRANCH  26  27
ENDBRANCH  25  26
ENDBRANCH  24  25
ENDBRANCH   1  24
BRANCH   1  32
HETATM   32  O1  UNL     1      12.197  37.872  -8.867  1.00  0.00    -0.363 OA
ATOM     33  H1  UNL     1      12.336  37.377  -9.666  1.00  0.00     0.212 HD
ENDBRANCH   1  32
TORSDOF 12
ENDMDL