MODEL 3
REMARK VINA RESULT: -6.720675710      3.609      7.402
REMARK  10 active torsions:
REMARK  status: ('A' for Active; 'I' for Inactive)
REMARK    1  A    between atoms: C2_2  and  C3_3
REMARK    2  A    between atoms: C3_3  and  C4_4
REMARK    3  A    between atoms: C4_4  and  C5_5
REMARK    4  A    between atoms: C5_5  and  C6_6
REMARK    5  A    between atoms: C6_6  and  N1_7
REMARK    6  A    between atoms: N1_7  and  C7_9
REMARK    7  A    between atoms: C8_12  and  N3_13
REMARK       I    between atoms: N3_13  and  C9_15
REMARK       I    between atoms: C9_15  and  N4_16
REMARK       I    between atoms: C9_15  and  N5_20
REMARK    8  A    between atoms: N7_27  and  C11_29
REMARK    9  A    between atoms: C11_29  and  S1_30
REMARK   10  A    between atoms: C13_32  and  N8_33
ROOT
HETATM    1  C7  UNL     1      11.847  40.121  -6.424  1.00  0.00     0.694 C
HETATM    2  N2  UNL     1      11.704  39.362  -7.523  1.00  0.00    -0.022 N
ATOM      3  H2  UNL     1      10.883  38.757  -7.541  1.00  0.00     0.203 HD
HETATM    4  C8  UNL     1      12.509  39.296  -8.606  1.00  0.00     0.697 C
HETATM    5  N6  UNL     1      13.276  40.317  -9.073  1.00  0.00    -0.173 N
ATOM      6  H6  UNL     1      13.701  40.156  -9.987  1.00  0.00     0.186 HD
HETATM    7  C10 UNL     1      13.560  41.506  -8.513  1.00  0.00     0.162 C
HETATM    8  N7  UNL     1      14.110  42.400  -9.249  1.00  0.00    -0.364 N
ATOM      9  H7  UNL     1      14.341  43.315  -8.863  1.00  0.00     0.162 HD
HETATM   10  C13 UNL     1      13.323  41.883  -7.211  1.00  0.00     0.159 C
HETATM   11  N9  UNL     1      12.615  41.250  -6.271  1.00  0.00    -0.173 N
ATOM     12  H9  UNL     1      12.647  41.651  -5.333  1.00  0.00     0.186 HD
ENDROOT
BRANCH   4  13
HETATM   13  N3  UNL     1      12.560  38.194  -9.244  1.00  0.00    -0.173 N
HETATM   14  C9  UNL     1      13.670  37.881 -10.091  1.00  0.00     0.494 C
HETATM   15  N4  UNL     1      14.743  37.198  -9.392  1.00  0.00    -0.032 N
HETATM   16  N5  UNL     1      13.158  36.916 -11.082  1.00  0.00    -0.032 N
ATOM     17  H43 UNL     1      15.047  37.734  -8.579  1.00  0.00     0.278 HD
ATOM     18  H42 UNL     1      14.397  36.362  -8.922  1.00  0.00     0.278 HD
ATOM     19  H41 UNL     1      15.535  36.975  -9.997  1.00  0.00     0.278 HD
ATOM     20  H53 UNL     1      12.719  36.096 -10.664  1.00  0.00     0.278 HD
ATOM     21  H52 UNL     1      12.338  37.248 -11.589  1.00  0.00     0.278 HD
ATOM     22  H51 UNL     1      13.949  36.693 -11.686  1.00  0.00     0.278 HD
ATOM     23  H3  UNL     1      11.797  37.524  -9.150  1.00  0.00     0.181 HD
ENDBRANCH   4  13
BRANCH   1  24
HETATM   24  N1  UNL     1      11.236  39.820  -5.379  1.00  0.00    -0.226 N
ATOM     25  H1  UNL     1      10.883  40.589  -4.810  1.00  0.00     0.177 HD
BRANCH  24  26
HETATM   26  C6  UNL     1      10.985  38.492  -4.907  1.00  0.00     0.138 C
BRANCH  26  27
HETATM   27  C5  UNL     1      10.038  38.533  -3.732  1.00  0.00     0.020 C
BRANCH  27  28
HETATM   28  C4  UNL     1      10.721  38.879  -2.442  1.00  0.00     0.002 C
BRANCH  28  29
HETATM   29  C3  UNL     1      10.277  38.033  -1.287  1.00  0.00    -0.000 C
BRANCH  29  30
HETATM   30  C2  UNL     1       9.076  37.231  -1.665  1.00  0.00    -0.005 C
HETATM   31  C1  UNL     1       9.237  35.843  -1.047  1.00  0.00     0.005 C
ENDBRANCH  29  30
ENDBRANCH  28  29
ENDBRANCH  27  28
ENDBRANCH  26  27
ENDBRANCH  24  26
ENDBRANCH   1  24
BRANCH   8  32
HETATM   32  C11 UNL     1      14.398  42.097 -10.634  1.00  0.00     0.195 C
BRANCH  32  33
HETATM   33  S1  UNL     1      16.175  42.483 -10.875  1.00  0.00    -0.154 SA
HETATM   34  C12 UNL     1      16.744  43.322  -9.372  1.00  0.00     0.091 C
ENDBRANCH  32  33
ENDBRANCH   8  32
BRANCH  10  35
HETATM   35  N8  UNL     1      13.857  42.993  -6.852  1.00  0.00    -0.382 N
ATOM     36  H82 UNL     1      14.471  43.431  -7.539  1.00  0.00     0.157 HD
ATOM     37  H81 UNL     1      13.608  43.318  -5.918  1.00  0.00     0.157 HD
ENDBRANCH  10  35
TORSDOF 10
ENDMDL