MODEL 2
REMARK VINA RESULT: -6.256344491      1.139      1.881
REMARK  11 active torsions:
REMARK  status: ('A' for Active; 'I' for Inactive)
REMARK    1  A    between atoms: C2_2  and  C3_3
REMARK    2  A    between atoms: C3_3  and  C4_4
REMARK    3  A    between atoms: C4_4  and  N1_5
REMARK    4  A    between atoms: C5_6  and  N2_7
REMARK    5  A    between atoms: N3_12  and  C8_13
REMARK    6  A    between atoms: C8_13  and  C9_14
REMARK    7  A    between atoms: C9_14  and  C10_15
REMARK    8  A    between atoms: C10_15  and  C11_16
REMARK    9  A    between atoms: C11_16  and  N4_17
REMARK   10  A    between atoms: C13_24  and  N6_25
REMARK   11  A    between atoms: C14_30  and  N8_31
ROOT
HETATM    1  N1  UNL     1      13.484  41.397  -9.763  1.00  0.00    -0.323 N
HETATM    2  C5  UNL     1      13.767  40.841 -11.001  1.00  0.00     0.173 A
HETATM    3  C7  UNL     1      13.712  39.502 -11.235  1.00  0.00     0.293 A
HETATM    4  O1  UNL     1      13.974  39.018 -12.373  1.00  0.00    -0.264 OA
HETATM    5  N3  UNL     1      13.362  38.692 -10.201  1.00  0.00    -0.295 N
HETATM    6  C12 UNL     1      13.078  39.169  -8.980  1.00  0.00     0.157 A
HETATM    7  N5  UNL     1      12.732  38.355  -7.967  1.00  0.00    -0.174 N
ATOM      8  H5  UNL     1      12.692  37.352  -8.144  1.00  0.00     0.186 HD
HETATM    9  C13 UNL     1      12.435  38.795  -6.735  1.00  0.00     0.679 A
HETATM   10  N7  UNL     1      12.498  40.107  -6.543  1.00  0.00    -0.175 N
ATOM     11  H7  UNL     1      12.277  40.463  -5.614  1.00  0.00     0.186 HD
HETATM   12  C14 UNL     1      12.837  41.007  -7.504  1.00  0.00     0.145 A
HETATM   13  C15 UNL     1      13.144  40.569  -8.769  1.00  0.00     0.126 A
ENDROOT
BRANCH   5  14
HETATM   14  C8  UNL     1      13.316  37.287 -10.478  1.00  0.00     0.134 C
BRANCH  14  15
HETATM   15  C9  UNL     1      14.667  36.599 -10.234  1.00  0.00     0.022 C
BRANCH  15  16
HETATM   16  C10 UNL     1      15.021  35.818 -11.470  1.00  0.00     0.029 C
BRANCH  16  17
HETATM   17  C11 UNL     1      13.736  35.565 -12.235  1.00  0.00     0.229 C
BRANCH  17  18
HETATM   18  N4  UNL     1      14.107  35.575 -13.658  1.00  0.00    -0.079 N
ATOM     19  H43 UNL     1      13.305  35.553 -14.288  1.00  0.00     0.274 HD
ATOM     20  H42 UNL     1      14.486  36.468 -13.974  1.00  0.00     0.274 HD
ATOM     21  H41 UNL     1      14.747  34.792 -13.785  1.00  0.00     0.274 HD
ENDBRANCH  17  18
ENDBRANCH  16  17
ENDBRANCH  15  16
ENDBRANCH  14  15
ENDBRANCH   5  14
BRANCH   2  22
HETATM   22  N2  UNL     1      14.089  41.681 -11.911  1.00  0.00    -0.376 N
HETATM   23  C6  UNL     1      15.387  41.919 -12.466  1.00  0.00     0.148 C
ATOM     24  H2  UNL     1      13.330  42.249 -12.286  1.00  0.00     0.160 HD
ENDBRANCH   2  22
BRANCH   1  25
HETATM   25  C4  UNL     1      13.571  42.803  -9.659  1.00  0.00     0.131 C
BRANCH  25  26
HETATM   26  C3  UNL     1      12.516  43.435 -10.548  1.00  0.00     0.020 C
BRANCH  26  27
HETATM   27  C2  UNL     1      11.308  43.899  -9.718  1.00  0.00    -0.003 C
HETATM   28  C1  UNL     1      10.184  42.893  -9.843  1.00  0.00     0.005 C
ENDBRANCH  26  27
ENDBRANCH  25  26
ENDBRANCH   1  25
BRANCH   9  29
HETATM   29  N6  UNL     1      12.107  37.954  -5.794  1.00  0.00    -0.234 N
ATOM     30  H62 UNL     1      11.313  38.100  -5.171  1.00  0.00     0.174 HD
ATOM     31  H61 UNL     1      12.650  37.104  -5.648  1.00  0.00     0.174 HD
ENDBRANCH   9  29
BRANCH  12  32
HETATM   32  N8  UNL     1      12.855  42.246  -7.221  1.00  0.00    -0.383 N
ATOM     33  H82 UNL     1      12.888  42.560  -6.252  1.00  0.00     0.157 HD
ATOM     34  H81 UNL     1      12.844  42.933  -7.975  1.00  0.00     0.157 HD
ENDBRANCH  12  32
TORSDOF 11
ENDMDL