MODEL 4
REMARK VINA RESULT: -6.411778629      6.259     10.828
REMARK  13 active torsions:
REMARK  status: ('A' for Active; 'I' for Inactive)
REMARK    1  A    between atoms: N1_1  and  C1_5
REMARK    2  A    between atoms: N2_9  and  C5_10
REMARK    3  A    between atoms: C5_10  and  C6_11
REMARK    4  A    between atoms: C6_11  and  C7_12
REMARK    5  A    between atoms: C7_12  and  C8_13
REMARK    6  A    between atoms: C8_13  and  C9_14
REMARK    7  A    between atoms: C9_14  and  C10_15
REMARK    8  A    between atoms: C10_15  and  C11_16
REMARK    9  A    between atoms: C11_16  and  N3_17
REMARK   10  A    between atoms: C13_19  and  O1_20
REMARK   11  A    between atoms: C14_22  and  O2_23
REMARK   12  A    between atoms: C15_25  and  O3_26
REMARK   13  A    between atoms: C16_28  and  O4_29
ROOT
HETATM    1  C10 UNL     1       7.909  41.962  -2.088  1.00  0.00     0.019 C
ENDROOT
BRANCH   1   2
HETATM    2  C9  UNL     1       7.614  42.675  -0.758  1.00  0.00     0.002 C
BRANCH   2   3
HETATM    3  C8  UNL     1       7.081  44.041  -1.004  1.00  0.00     0.000 C
BRANCH   3   4
HETATM    4  C7  UNL     1       6.493  44.648   0.256  1.00  0.00     0.002 C
BRANCH   4   5
HETATM    5  C6  UNL     1       4.987  44.802   0.062  1.00  0.00     0.030 C
BRANCH   5   6
HETATM    6  C5  UNL     1       4.611  44.932  -1.355  1.00  0.00     0.275 C
BRANCH   6   7
HETATM    7  N2  UNL     1       3.484  44.148  -1.774  1.00  0.00     0.119 N
HETATM    8  C1  UNL     1       3.293  42.971  -0.959  1.00  0.00     0.417 C
HETATM    9  C2  UNL     1       3.986  41.838  -1.687  1.00  0.00     0.067 C
HETATM   10  C3  UNL     1       4.292  42.386  -3.056  1.00  0.00     0.034 C
HETATM   11  C4  UNL     1       3.557  43.704  -3.139  1.00  0.00     0.275 C
BRANCH   8  12
HETATM   12  N1  UNL     1       1.861  42.699  -0.913  1.00  0.00    -0.048 N
ATOM     13  H13 UNL     1       1.389  42.957  -1.780  1.00  0.00     0.276 HD
ATOM     14  H12 UNL     1       1.655  41.701  -0.930  1.00  0.00     0.276 HD
ATOM     15  H11 UNL     1       1.461  43.165  -0.099  1.00  0.00     0.276 HD
ENDBRANCH   8  12
ENDBRANCH   6   7
ENDBRANCH   5   6
ENDBRANCH   4   5
ENDBRANCH   3   4
ENDBRANCH   2   3
ENDBRANCH   1   2
BRANCH   1  16
HETATM   16  C11 UNL     1       9.062  41.027  -1.980  1.00  0.00     0.119 C
BRANCH  16  17
HETATM   17  N3  UNL     1       8.736  39.704  -2.391  1.00  0.00    -0.383 N
HETATM   18  C12 UNL     1       8.458  39.500  -3.765  1.00  0.00     0.153 C
HETATM   19  C13 UNL     1       9.659  39.261  -4.616  1.00  0.00     0.167 C
HETATM   20  C14 UNL     1      10.448  38.113  -4.046  1.00  0.00     0.181 C
HETATM   21  C15 UNL     1      10.741  38.310  -2.597  1.00  0.00     0.197 C
HETATM   22  C16 UNL     1       9.518  38.663  -1.784  1.00  0.00     0.247 C
BRANCH  19  23
HETATM   23  O1  UNL     1      10.490  40.373  -4.716  1.00  0.00    -0.391 OA
ATOM     24  H1  UNL     1      10.622  40.816  -3.886  1.00  0.00     0.210 HD
ENDBRANCH  19  23
BRANCH  20  25
HETATM   25  O2  UNL     1      11.685  38.130  -4.732  1.00  0.00    -0.390 OA
ATOM     26  H2  UNL     1      12.344  37.961  -4.069  1.00  0.00     0.210 HD
ENDBRANCH  20  25
BRANCH  21  27
HETATM   27  O3  UNL     1      11.764  39.207  -2.411  1.00  0.00    -0.389 OA
ATOM     28  H3  UNL     1      12.304  38.966  -1.668  1.00  0.00     0.210 HD
ENDBRANCH  21  27
BRANCH  22  29
HETATM   29  O4  UNL     1       8.742  37.523  -1.582  1.00  0.00    -0.374 OA
ATOM     30  H4  UNL     1       8.850  37.198  -0.696  1.00  0.00     0.212 HD
ENDBRANCH  22  29
ENDBRANCH  16  17
ENDBRANCH   1  16
TORSDOF 13
ENDMDL