MODEL 1
REMARK VINA RESULT: -6.968859691      0.000      0.000
REMARK  1 active torsions:
REMARK  status: ('A' for Active; 'I' for Inactive)
REMARK    1  A    between atoms: C14_14  and  O1_15
ROOT
HETATM    1  C1  UNL     1     -13.902  -7.950  -9.448  1.00  0.00     0.013 C
HETATM    2  C2  UNL     1     -14.769  -6.736  -9.555  1.00  0.00     0.017 C
HETATM    3  C3  UNL     1     -16.247  -6.982  -9.272  1.00  0.00     0.015 C
HETATM    4  C4  UNL     1     -16.213  -5.892  -8.198  1.00  0.00     0.029 C
HETATM    5  C5  UNL     1     -17.020  -4.695  -8.506  1.00  0.00    -0.034 C
HETATM    6  C6  UNL     1     -18.239  -5.170  -9.314  1.00  0.00     0.016 C
HETATM    7  C7  UNL     1     -17.548  -4.096  -7.247  1.00  0.00     0.010 C
HETATM    8  C8  UNL     1     -17.957  -2.686  -7.316  1.00  0.00     0.001 C
HETATM    9  C9  UNL     1     -18.071  -2.075  -8.659  1.00  0.00     0.000 C
HETATM   10  C10 UNL     1     -17.005  -2.451  -9.630  1.00  0.00     0.005 C
HETATM   11  C11 UNL     1     -16.251  -3.676  -9.297  1.00  0.00    -0.006 C
HETATM   12  C12 UNL     1     -15.012  -3.332  -8.459  1.00  0.00     0.008 C
HETATM   13  C13 UNL     1     -14.120  -4.536  -8.586  1.00  0.00     0.039 C
HETATM   14  C14 UNL     1     -14.768  -5.829  -8.325  1.00  0.00     0.065 C
ENDROOT
BRANCH  14  15
HETATM   15  O1  UNL     1     -14.104  -6.516  -7.282  1.00  0.00    -0.389 OA
ATOM     16  H1  UNL     1     -13.418  -7.045  -7.672  1.00  0.00     0.210 HD
ENDBRANCH  14  15
TORSDOF 1
ENDMDL