MODEL 4
REMARK VINA RESULT: -6.106611948      5.333      7.311
REMARK  1 active torsions:
REMARK  status: ('A' for Active; 'I' for Inactive)
REMARK    1  A    between atoms: C4_4  and  O1_5
ROOT
HETATM    1  C1  UNL     1     -22.402  -1.333  -8.822  1.00  0.00     0.018 C
HETATM    2  C2  UNL     1     -20.934  -1.468  -8.388  1.00  0.00    -0.017 C
HETATM    3  C3  UNL     1     -20.912  -2.069  -7.050  1.00  0.00     0.018 C
HETATM    4  C4  UNL     1     -20.299  -2.415  -9.378  1.00  0.00     0.126 C
HETATM    5  C5  UNL     1     -18.835  -2.513  -9.141  1.00  0.00     0.033 C
HETATM    6  C6  UNL     1     -18.115  -1.234  -9.021  1.00  0.00     0.013 C
HETATM    7  C7  UNL     1     -18.820  -0.090  -8.427  1.00  0.00    -0.023 C
HETATM    8  C8  UNL     1     -18.344   1.181  -9.132  1.00  0.00     0.017 C
HETATM    9  C9  UNL     1     -18.412   0.065  -6.973  1.00  0.00     0.101 C
HETATM   10  C10 UNL     1     -16.933   0.183  -6.927  1.00  0.00     0.064 C
HETATM   11  N1  UNL     1     -15.779   0.258  -6.880  1.00  0.00    -0.197 NA
HETATM   12  C11 UNL     1     -18.949   1.324  -6.351  1.00  0.00     0.020 C
HETATM   13  C12 UNL     1     -20.171   1.861  -6.990  1.00  0.00     0.002 C
HETATM   14  C13 UNL     1     -21.025   0.859  -7.691  1.00  0.00     0.006 C
HETATM   15  C14 UNL     1     -20.317  -0.121  -8.545  1.00  0.00     0.005 C
ENDROOT
BRANCH   4  16
HETATM   16  O1  UNL     1     -20.612  -2.110 -10.687  1.00  0.00    -0.395 OA
ATOM     17  H1  UNL     1     -20.018  -2.509 -11.311  1.00  0.00     0.210 HD
ENDBRANCH   4  16
TORSDOF 1
ENDMDL