MODEL 4
REMARK VINA RESULT: -6.162238669      1.411      1.924
REMARK  1 active torsions:
REMARK  status: ('A' for Active; 'I' for Inactive)
REMARK    1  A    between atoms: C5_6  and  O1_7
ROOT
HETATM    1  C1  UNL     1     -14.328  -3.896  -9.114  1.00  0.00     0.012 C
HETATM    2  C2  UNL     1     -15.518  -3.349  -8.312  1.00  0.00     0.006 C
HETATM    3  C3  UNL     1     -15.139  -1.880  -8.074  1.00  0.00     0.126 C
HETATM    4  C4  UNL     1     -13.855  -1.832  -7.377  1.00  0.00     0.067 C
HETATM    5  N1  UNL     1     -12.837  -1.777  -6.832  1.00  0.00    -0.197 NA
HETATM    6  C5  UNL     1     -16.242  -1.254  -7.267  1.00  0.00     0.144 C
HETATM    7  C6  UNL     1     -17.541  -1.395  -8.006  1.00  0.00    -0.016 C
HETATM    8  C7  UNL     1     -18.020   0.033  -8.308  1.00  0.00     0.018 C
HETATM    9  C8  UNL     1     -18.560  -2.157  -7.221  1.00  0.00     0.012 C
HETATM   10  C9  UNL     1     -18.945  -3.466  -7.772  1.00  0.00     0.010 C
HETATM   11  C10 UNL     1     -17.858  -4.266  -8.417  1.00  0.00    -0.044 C
HETATM   12  C11 UNL     1     -18.561  -5.080  -9.520  1.00  0.00     0.015 C
HETATM   13  C12 UNL     1     -17.310  -5.317  -7.464  1.00  0.00     0.015 C
HETATM   14  C13 UNL     1     -16.797  -3.453  -9.068  1.00  0.00    -0.001 C
HETATM   15  C14 UNL     1     -17.380  -2.071  -9.349  1.00  0.00     0.017 C
ENDROOT
BRANCH   6  16
HETATM   16  O1  UNL     1     -16.282  -1.866  -6.003  1.00  0.00    -0.393 OA
ATOM     17  H1  UNL     1     -15.392  -2.040  -5.718  1.00  0.00     0.210 HD
ENDBRANCH   6  16
TORSDOF 1
ENDMDL