MODEL 1
REMARK VINA RESULT: -6.136110960      0.000      0.000
REMARK  1 active torsions:
REMARK  status: ('A' for Active; 'I' for Inactive)
REMARK    1  A    between atoms: C3_3  and  O1_4
ROOT
HETATM    1  C1  UNL     1     -19.793   0.452  -7.611  1.00  0.00     0.014 C
HETATM    2  C2  UNL     1     -19.412  -0.835  -6.910  1.00  0.00     0.029 C
HETATM    3  C3  UNL     1     -20.515  -1.839  -7.013  1.00  0.00     0.124 C
HETATM    4  C4  UNL     1     -20.882  -2.300  -8.348  1.00  0.00     0.042 C
HETATM    5  C5  UNL     1     -20.057  -1.935  -9.507  1.00  0.00     0.077 C
HETATM    6  S1  UNL     1     -18.328  -1.589  -9.201  1.00  0.00    -0.158 SA
HETATM    7  C6  UNL     1     -18.101  -1.296  -7.448  1.00  0.00     0.018 C
HETATM    8  C7  UNL     1     -16.997  -0.371  -7.057  1.00  0.00     0.026 C
HETATM    9  C8  UNL     1     -16.164  -1.610  -6.715  1.00  0.00    -0.007 C
HETATM   10  C9  UNL     1     -15.338  -1.995  -7.894  1.00  0.00     0.005 C
HETATM   11  C10 UNL     1     -15.810  -3.347  -8.329  1.00  0.00     0.001 C
HETATM   12  C11 UNL     1     -17.148  -3.599  -7.697  1.00  0.00     0.006 C
HETATM   13  C12 UNL     1     -17.439  -2.450  -6.775  1.00  0.00     0.009 C
ENDROOT
BRANCH   3  14
HETATM   14  O1  UNL     1     -21.608  -1.266  -6.319  1.00  0.00    -0.395 OA
ATOM     15  H1  UNL     1     -21.855  -1.910  -5.666  1.00  0.00     0.210 HD
ENDBRANCH   3  14
TORSDOF 1
ENDMDL