MODEL 1
REMARK VINA RESULT: -6.278187811      0.000      0.000
REMARK  1 active torsions:
REMARK  status: ('A' for Active; 'I' for Inactive)
REMARK    1  A    between atoms: C9_10  and  O2_11
ROOT
HETATM    1  C1  UNL     1     -14.732  -0.238  -7.619  1.00  0.00     0.017 C
HETATM    2  C2  UNL     1     -15.138  -1.609  -7.206  1.00  0.00    -0.020 C
HETATM    3  C3  UNL     1     -14.450  -1.964  -5.917  1.00  0.00     0.017 C
HETATM    4  C4  UNL     1     -16.639  -1.735  -6.950  1.00  0.00     0.177 C
HETATM    5  O1  UNL     1     -16.868  -3.107  -7.204  1.00  0.00    -0.379 OA
HETATM    6  C5  UNL     1     -16.262  -3.236  -8.450  1.00  0.00     0.061 C
HETATM    7  C6  UNL     1     -17.084  -2.357  -9.403  1.00  0.00     0.046 C
HETATM    8  C7  UNL     1     -16.395  -4.634  -8.908  1.00  0.00     0.040 C
HETATM    9  C8  UNL     1     -16.044  -5.611  -7.833  1.00  0.00     0.034 C
HETATM   10  C9  UNL     1     -14.756  -6.308  -7.972  1.00  0.00     0.118 C
HETATM   11  C10 UNL     1     -13.806  -5.832  -9.006  1.00  0.00     0.032 C
HETATM   12  C11 UNL     1     -13.346  -4.453  -9.004  1.00  0.00     0.003 C
HETATM   13  C12 UNL     1     -13.805  -3.546  -7.908  1.00  0.00     0.009 C
HETATM   14  C13 UNL     1     -14.947  -2.654  -8.284  1.00  0.00     0.030 C
ENDROOT
BRANCH  10  15
HETATM   15  O2  UNL     1     -14.151  -6.471  -6.700  1.00  0.00    -0.396 OA
ATOM     16  H2  UNL     1     -13.302  -6.045  -6.686  1.00  0.00     0.210 HD
ENDBRANCH  10  15
TORSDOF 1
ENDMDL