MODEL 2
REMARK VINA RESULT: -7.011113409      1.420      2.670
REMARK  1 active torsions:
REMARK  status: ('A' for Active; 'I' for Inactive)
REMARK    1  A    between atoms: C10_11  and  N1_12
ROOT
HETATM    1  C1  UNL     1     -18.404  -1.273  -9.476  1.00  0.00     0.020 C
HETATM    2  C2  UNL     1     -17.643  -1.907  -8.353  1.00  0.00     0.009 C
HETATM    3  C3  UNL     1     -17.803  -1.196  -7.001  1.00  0.00     0.181 C
HETATM    4  O1  UNL     1     -17.653  -2.487  -6.436  1.00  0.00    -0.379 OA
HETATM    5  C4  UNL     1     -18.371  -2.943  -7.558  1.00  0.00     0.067 C
HETATM    6  C5  UNL     1     -19.822  -2.715  -7.364  1.00  0.00     0.047 C
HETATM    7  C6  UNL     1     -18.066  -4.333  -7.997  1.00  0.00     0.043 C
HETATM    8  C7  UNL     1     -16.557  -4.623  -7.954  1.00  0.00    -0.008 C
HETATM    9  C8  UNL     1     -16.343  -5.988  -8.476  1.00  0.00     0.007 C
HETATM   10  C9  UNL     1     -15.131  -6.703  -8.022  1.00  0.00     0.033 C
HETATM   11  C10 UNL     1     -13.887  -5.979  -7.832  1.00  0.00     0.183 C
HETATM   12  C11 UNL     1     -13.901  -4.489  -7.927  1.00  0.00     0.033 C
HETATM   13  C12 UNL     1     -14.510  -3.933  -9.164  1.00  0.00     0.007 C
HETATM   14  C13 UNL     1     -15.950  -3.650  -8.940  1.00  0.00    -0.009 C
HETATM   15  C14 UNL     1     -16.214  -2.220  -8.583  1.00  0.00     0.019 C
ENDROOT
BRANCH  11  16
HETATM   16  N1  UNL     1     -12.844  -6.451  -8.763  1.00  0.00    -0.075 N
ATOM     17  H13 UNL     1     -12.041  -5.821  -8.778  1.00  0.00     0.274 HD
ATOM     18  H12 UNL     1     -12.380  -7.288  -8.411  1.00  0.00     0.274 HD
ATOM     19  H11 UNL     1     -13.221  -6.598  -9.699  1.00  0.00     0.274 HD
ENDBRANCH  11  16
TORSDOF 1
ENDMDL