MODEL 2
REMARK VINA RESULT: -5.990572050      1.820      2.977
REMARK  3 active torsions:
REMARK  status: ('A' for Active; 'I' for Inactive)
REMARK    1  A    between atoms: C3_3  and  C4_4
REMARK    2  A    between atoms: C4_4  and  C7_7
REMARK    3  A    between atoms: C13_14  and  O2_15
ROOT
HETATM    1  C1  UNL     1     -22.466  -2.391  -9.160  1.00  0.00     0.112 C
HETATM    2  C2  UNL     1     -21.220  -2.145  -8.439  1.00  0.00    -0.110 C
HETATM    3  C3  UNL     1     -20.184  -1.929  -7.857  1.00  0.00    -0.097 C
ENDROOT
BRANCH   3   4
HETATM    4  C4  UNL     1     -18.913  -1.673  -7.117  1.00  0.00     0.024 C
HETATM    5  C5  UNL     1     -18.695  -2.853  -6.253  1.00  0.00     0.029 C
HETATM    6  C6  UNL     1     -19.233  -0.448  -6.262  1.00  0.00     0.029 C
BRANCH   4   7
HETATM    7  C7  UNL     1     -17.894  -1.372  -8.132  1.00  0.00    -0.018 C
HETATM    8  C8  UNL     1     -18.350  -0.056  -8.799  1.00  0.00     0.017 C
HETATM    9  C9  UNL     1     -17.963  -2.410  -9.269  1.00  0.00     0.012 C
HETATM   10  C10 UNL     1     -16.531  -2.953  -9.418  1.00  0.00     0.008 C
HETATM   11  C11 UNL     1     -15.987  -2.717  -8.086  1.00  0.00     0.019 C
HETATM   12  C12 UNL     1     -14.563  -2.371  -7.910  1.00  0.00     0.176 C
HETATM   13  C14 UNL     1     -16.512  -1.277  -7.870  1.00  0.00     0.057 C
HETATM   14  O1  UNL     1     -14.570  -1.598  -6.751  1.00  0.00    -0.361 OA
HETATM   15  C13 UNL     1     -15.825  -0.946  -6.662  1.00  0.00     0.262 C
BRANCH  15  16
HETATM   16  O2  UNL     1     -15.484   0.429  -6.633  1.00  0.00    -0.371 OA
ATOM     17  H2  UNL     1     -16.029   0.808  -7.313  1.00  0.00     0.212 HD
ENDBRANCH  15  16
ENDBRANCH   4   7
ENDBRANCH   3   4
TORSDOF 3
ENDMDL