MODEL 4
REMARK VINA RESULT: -5.941269294      1.606      1.900
REMARK  1 active torsions:
REMARK  status: ('A' for Active; 'I' for Inactive)
REMARK    1  A    between atoms: C10_11  and  O2_13
ROOT
HETATM    1  C1  UNL     1     -18.371   0.890  -8.814  1.00  0.00     0.018 C
HETATM    2  C2  UNL     1     -19.011  -0.496  -8.883  1.00  0.00    -0.017 C
HETATM    3  C3  UNL     1     -20.051  -0.402 -10.009  1.00  0.00     0.014 C
HETATM    4  C4  UNL     1     -21.412  -0.093  -9.498  1.00  0.00     0.027 C
HETATM    5  C5  UNL     1     -21.469   0.705  -8.250  1.00  0.00     0.168 C
HETATM    6  O1  UNL     1     -20.472   0.445  -7.339  1.00  0.00    -0.385 OA
HETATM    7  C6  UNL     1     -19.793  -0.739  -7.638  1.00  0.00     0.130 C
HETATM    8  C7  UNL     1     -18.915  -1.124  -6.479  1.00  0.00     0.038 C
HETATM    9  C8  UNL     1     -18.020  -2.254  -6.782  1.00  0.00     0.002 C
HETATM   10  C9  UNL     1     -18.729  -3.564  -7.049  1.00  0.00     0.043 C
HETATM   11  C10 UNL     1     -17.704  -3.819  -8.134  1.00  0.00     0.062 C
HETATM   12  C11 UNL     1     -18.360  -4.332  -9.365  1.00  0.00     0.046 C
HETATM   13  C12 UNL     1     -17.422  -2.313  -8.126  1.00  0.00    -0.009 C
HETATM   14  C13 UNL     1     -15.899  -2.141  -8.020  1.00  0.00     0.019 C
HETATM   15  C14 UNL     1     -17.990  -1.524  -9.205  1.00  0.00     0.024 C
ENDROOT
BRANCH  11  16
HETATM   16  O2  UNL     1     -16.672  -4.608  -7.697  1.00  0.00    -0.389 OA
ATOM     17  H2  UNL     1     -15.830  -4.308  -8.018  1.00  0.00     0.210 HD
ENDBRANCH  11  16
TORSDOF 1
ENDMDL