MODEL 5
REMARK VINA RESULT: -5.897605434      2.591      3.949
REMARK  6 active torsions:
REMARK  status: ('A' for Active; 'I' for Inactive)
REMARK    1  A    between atoms: C2_2  and  C3_3
REMARK    2  A    between atoms: C3_3  and  C4_4
REMARK    3  A    between atoms: C4_4  and  C5_5
REMARK    4  A    between atoms: C5_5  and  C6_6
REMARK    5  A    between atoms: C7_7  and  C8_8
REMARK    6  A    between atoms: N1_11  and  O2_12
ROOT
HETATM    1  C8  UNL     1      19.933  -0.693  53.280  1.00  0.00     0.176 C
HETATM    2  C9  UNL     1      20.622  -1.978  53.004  1.00  0.00     0.267 C
HETATM    3  O1  UNL     1      20.489  -3.043  53.622  1.00  0.00    -0.269 OA
HETATM    4  N1  UNL     1      21.463  -1.735  51.887  1.00  0.00    -0.155 N
HETATM    5  C10 UNL     1      21.086  -0.497  51.268  1.00  0.00     0.260 C
HETATM    6  O3  UNL     1      21.743   0.151  50.387  1.00  0.00    -0.270 OA
HETATM    7  C11 UNL     1      19.776  -0.140  51.874  1.00  0.00     0.059 C
HETATM    8  C12 UNL     1      19.554   1.356  51.882  1.00  0.00     0.027 C
HETATM    9  C13 UNL     1      18.679  -0.840  51.137  1.00  0.00     0.027 C
ENDROOT
BRANCH   1  10
HETATM   10  C7  UNL     1      20.787   0.224  54.038  1.00  0.00    -0.091 C
HETATM   11  C6  UNL     1      21.492   0.961  54.675  1.00  0.00    -0.106 C
BRANCH  11  12
HETATM   12  C5  UNL     1      22.382   1.854  55.465  1.00  0.00     0.094 C
BRANCH  12  13
HETATM   13  C4  UNL     1      21.683   2.076  56.763  1.00  0.00     0.012 C
BRANCH  13  14
HETATM   14  C3  UNL     1      21.896   0.897  57.665  1.00  0.00     0.000 C
BRANCH  14  15
HETATM   15  C2  UNL     1      20.606   0.394  58.228  1.00  0.00    -0.005 C
HETATM   16  C1  UNL     1      20.306  -0.974  57.612  1.00  0.00     0.005 C
ENDBRANCH  14  15
ENDBRANCH  13  14
ENDBRANCH  12  13
ENDBRANCH  11  12
ENDBRANCH   1  10
BRANCH   4  17
HETATM   17  O2  UNL     1      22.486  -2.511  51.422  1.00  0.00    -0.277 OA
ATOM     18  H2  UNL     1      22.717  -2.692  50.519  1.00  0.00     0.245 HD
ENDBRANCH   4  17
TORSDOF 6
ENDMDL