MODEL 4
REMARK VINA RESULT: -5.636878522      3.679      4.939
REMARK  3 active torsions:
REMARK  status: ('A' for Active; 'I' for Inactive)
REMARK    1  A    between atoms: C2_2  and  C4_4
REMARK    2  A    between atoms: C4_4  and  C5_5
REMARK    3  A    between atoms: C5_5  and  C6_6
ROOT
HETATM    1  C6  UNL     1      20.125  -0.087  52.748  1.00  0.00     0.143 C
HETATM    2  C7  UNL     1      19.067   0.819  52.225  1.00  0.00     0.135 C
HETATM    3  C8  UNL     1      17.863   0.215  51.634  1.00  0.00     0.047 C
HETATM    4  C9  UNL     1      18.640   1.815  53.288  1.00  0.00     0.047 C
HETATM    5  N1  UNL     1      19.719   1.644  51.191  1.00  0.00    -0.065 N
ATOM      6  H11 UNL     1      20.566   2.079  51.557  1.00  0.00     0.278 HD
ATOM      7  H12 UNL     1      19.169   2.481  50.996  1.00  0.00     0.278 HD
HETATM    8  C10 UNL     1      19.996   0.933  49.989  1.00  0.00     0.248 C
HETATM    9  C11 UNL     1      21.170  -0.026  50.098  1.00  0.00     0.168 C
HETATM   10  S1  UNL     1      20.787  -1.120  51.465  1.00  0.00     0.152 S
HETATM   11  O1  UNL     1      19.909  -2.235  51.079  1.00  0.00    -0.227 OA
HETATM   12  O2  UNL     1      22.080  -1.694  51.986  1.00  0.00    -0.227 OA
ENDROOT
BRANCH   1  13
HETATM   13  C5  UNL     1      19.847  -0.814  54.005  1.00  0.00     0.023 C
BRANCH  13  14
HETATM   14  C4  UNL     1      20.891  -0.812  55.050  1.00  0.00     0.005 C
BRANCH  14  15
HETATM   15  C2  UNL     1      20.852   0.524  55.775  1.00  0.00    -0.023 C
HETATM   16  C1  UNL     1      22.035   1.393  55.431  1.00  0.00     0.009 C
HETATM   17  C3  UNL     1      20.809   0.356  57.267  1.00  0.00     0.009 C
ENDBRANCH  14  15
ENDBRANCH  13  14
ENDBRANCH   1  13
TORSDOF 3
ENDMDL