MODEL 5
REMARK VINA RESULT: -5.904773692      2.536      5.387
REMARK  6 active torsions:
REMARK  status: ('A' for Active; 'I' for Inactive)
REMARK    1  A    between atoms: C2_2  and  N1_3
REMARK    2  A    between atoms: N1_3  and  C3_5
REMARK    3  A    between atoms: C5_9  and  O1_10
REMARK    4  A    between atoms: O1_10  and  C6_11
REMARK    5  A    between atoms: C8_15  and  C9_16
REMARK    6  A    between atoms: C10_17  and  C11_18
ROOT
HETATM    1  C3  UNL     1      20.872  -0.468  55.244  1.00  0.00     0.137 A
HETATM    2  N2  UNL     1      20.477  -1.508  54.488  1.00  0.00    -0.346 N
ATOM      3  H2  UNL     1      20.462  -2.438  54.906  1.00  0.00     0.167 HD
HETATM    4  C4  UNL     1      20.098  -1.372  53.194  1.00  0.00     0.145 A
HETATM    5  C5  UNL     1      20.104  -0.132  52.590  1.00  0.00     0.159 A
HETATM    6  N3  UNL     1      20.498   0.911  53.344  1.00  0.00    -0.326 N
ATOM      7  H3  UNL     1      20.513   1.841  52.927  1.00  0.00     0.169 HD
HETATM    8  C8  UNL     1      20.873   0.768  54.633  1.00  0.00     0.133 A
ENDROOT
BRANCH   8   9
HETATM    9  C9  UNL     1      21.293   1.892  55.430  1.00  0.00    -0.044 C
HETATM   10  C10 UNL     1      21.633   2.828  56.115  1.00  0.00    -0.095 C
BRANCH  10  11
HETATM   11  C11 UNL     1      22.027   3.967  56.965  1.00  0.00     0.057 C
HETATM   12  C12 UNL     1      21.746   3.557  58.386  1.00  0.00     0.023 C
HETATM   13  C13 UNL     1      21.304   5.203  56.540  1.00  0.00     0.023 C
ENDBRANCH  10  11
ENDBRANCH   8   9
BRANCH   1  14
HETATM   14  N1  UNL     1      21.232  -0.579  56.468  1.00  0.00    -0.374 N
ATOM     15  H1  UNL     1      22.220  -0.420  56.664  1.00  0.00     0.161 HD
BRANCH  14  16
HETATM   16  C2  UNL     1      20.417  -0.898  57.577  1.00  0.00     0.116 C
HETATM   17  C1  UNL     1      20.481   0.068  58.715  1.00  0.00     0.026 C
ENDBRANCH  14  16
ENDBRANCH   1  14
BRANCH   5  18
HETATM   18  O1  UNL     1      19.712  -0.014  51.264  1.00  0.00    -0.335 OA
BRANCH  18  19
HETATM   19  C6  UNL     1      20.133   1.054  50.440  1.00  0.00     0.173 C
HETATM   20  C7  UNL     1      19.055   2.065  50.230  1.00  0.00     0.034 C
ENDBRANCH  18  19
ENDBRANCH   5  18
TORSDOF 6
ENDMDL