MODEL 1
REMARK VINA RESULT: -6.015618116      0.000      0.000
REMARK  4 active torsions:
REMARK  status: ('A' for Active; 'I' for Inactive)
REMARK    1  A    between atoms: C6_7  and  O1_8
REMARK    2  A    between atoms: C6_7  and  C7_10
REMARK    3  A    between atoms: N2_15  and  C12_16
REMARK    4  A    between atoms: C12_16  and  C13_17
ROOT
HETATM    1  C1  UNL     1      20.417   0.009  58.670  1.00  0.00     0.014 C
HETATM    2  C2  UNL     1      20.813   0.104  57.538  1.00  0.00    -0.090 C
HETATM    3  C3  UNL     1      21.290   0.180  56.179  1.00  0.00     0.192 C
HETATM    4  C4  UNL     1      20.778  -1.083  55.441  1.00  0.00     0.313 C
HETATM    5  N1  UNL     1      19.719  -0.619  54.592  1.00  0.00     0.117 N
HETATM    6  C5  UNL     1      19.884  -0.958  53.206  1.00  0.00     0.313 C
HETATM    7  C6  UNL     1      20.298   0.307  52.501  1.00  0.00     0.091 C
HETATM    8  C10 UNL     1      19.509   1.324  53.296  1.00  0.00     0.097 C
HETATM    9  C11 UNL     1      19.623   0.810  54.688  1.00  0.00     0.327 C
HETATM   10  N2  UNL     1      20.800   1.188  55.380  1.00  0.00    -0.347 N
ENDROOT
BRANCH  10  11
HETATM   11  C12 UNL     1      21.090   2.532  55.522  1.00  0.00     0.061 C
BRANCH  11  12
HETATM   12  C13 UNL     1      22.464   2.923  55.991  1.00  0.00     0.040 C
HETATM   13  C14 UNL     1      22.230   3.600  57.355  1.00  0.00     0.010 C
ENDBRANCH  11  12
ENDBRANCH  10  11
BRANCH   7  14
HETATM   14  O1  UNL     1      21.672   0.432  52.676  1.00  0.00    -0.388 OA
ATOM     15  H1  UNL     1      21.802   0.924  53.478  1.00  0.00     0.210 HD
ENDBRANCH   7  14
BRANCH   7  16
HETATM   16  C7  UNL     1      19.993   0.327  51.048  1.00  0.00     0.014 C
HETATM   17  C8  UNL     1      21.173   0.090  50.152  1.00  0.00     0.012 C
HETATM   18  C9  UNL     1      19.392   1.669  50.621  1.00  0.00     0.012 C
ENDBRANCH   7  16
TORSDOF 4
ENDMDL