MODEL 2
REMARK VINA RESULT: -6.395152229      1.284      1.727
REMARK  4 active torsions:
REMARK  status: ('A' for Active; 'I' for Inactive)
REMARK    1  A    between atoms: C2_2  and  O1_3
REMARK    2  A    between atoms: N1_7  and  C5_8
REMARK    3  A    between atoms: C5_8  and  C6_9
REMARK    4  A    between atoms: C6_9  and  N2_10
ROOT
HETATM    1  C1  UNL     1      18.649   1.605  48.785  1.00  0.00     0.045 C
HETATM    2  C2  UNL     1      19.024   1.881  50.230  1.00  0.00     0.057 C
HETATM    3  C3  UNL     1      20.245   1.034  50.600  1.00  0.00     0.067 C
HETATM    4  C4  UNL     1      19.769  -0.346  50.910  1.00  0.00     0.275 C
HETATM    5  N1  UNL     1      19.067  -0.378  52.192  1.00  0.00     0.090 N
HETATM    6  C12 UNL     1      18.451   0.887  52.399  1.00  0.00     0.275 C
HETATM    7  C13 UNL     1      17.886   1.418  51.093  1.00  0.00     0.067 C
ENDROOT
BRANCH   5   8
HETATM    8  C5  UNL     1      19.962  -0.827  53.226  1.00  0.00     0.302 C
BRANCH   8   9
HETATM    9  C6  UNL     1      19.825  -0.154  54.518  1.00  0.00     0.302 C
BRANCH   9  10
HETATM   10  N2  UNL     1      20.885  -0.060  55.425  1.00  0.00     0.090 N
HETATM   11  C7  UNL     1      20.571   0.022  56.803  1.00  0.00     0.272 C
HETATM   12  C8  UNL     1      21.687   0.673  57.594  1.00  0.00     0.030 C
HETATM   13  C9  UNL     1      21.958   2.080  57.126  1.00  0.00     0.003 C
HETATM   14  C10 UNL     1      21.870   2.193  55.629  1.00  0.00     0.030 C
HETATM   15  C11 UNL     1      21.857   0.867  54.938  1.00  0.00     0.272 C
ENDBRANCH   9  10
ENDBRANCH   8   9
ENDBRANCH   5   8
BRANCH   2  16
HETATM   16  O1  UNL     1      19.341   3.229  50.417  1.00  0.00    -0.390 OA
ATOM     17  H1  UNL     1      19.020   3.542  51.255  1.00  0.00     0.210 HD
ENDBRANCH   2  16
TORSDOF 4
ENDMDL