MODEL 3
REMARK VINA RESULT: -5.537584660      2.572      6.361
REMARK  4 active torsions:
REMARK  status: ('A' for Active; 'I' for Inactive)
REMARK    1  A    between atoms: C4_6  and  N2_7
REMARK    2  A    between atoms: N2_7  and  C5_9
REMARK    3  A    between atoms: N3_15  and  C9_16
REMARK    4  A    between atoms: C9_16  and  C10_17
ROOT
HETATM    1  C1  UNL     1      20.481   0.209  58.861  1.00  0.00     0.046 C
HETATM    2  C2  UNL     1      20.907   0.729  57.723  1.00  0.00     0.056 A
HETATM    3  C3  UNL     1      21.171   2.170  57.438  1.00  0.00     0.083 A
HETATM    4  N1  UNL     1      21.107   3.320  58.070  1.00  0.00    -0.334 N
ATOM      5  H1  UNL     1      20.801   3.361  59.042  1.00  0.00     0.168 HD
HETATM    6  C4  UNL     1      21.448   4.430  57.421  1.00  0.00     0.145 A
HETATM    7  S1  UNL     1      21.873   3.850  55.875  1.00  0.00    -0.046 SA
HETATM    8  C7  UNL     1      21.587   2.177  56.141  1.00  0.00     0.105 A
HETATM    9  C8  UNL     1      21.608   0.812  55.562  1.00  0.00     0.267 A
HETATM   10  O1  UNL     1      21.966   0.616  54.366  1.00  0.00    -0.266 OA
HETATM   11  N3  UNL     1      21.183  -0.054  56.567  1.00  0.00    -0.312 N
ENDROOT
BRANCH   6  12
HETATM   12  N2  UNL     1      21.465   5.661  57.833  1.00  0.00    -0.371 N
ATOM     13  H2  UNL     1      21.948   5.917  58.694  1.00  0.00     0.161 HD
BRANCH  12  14
HETATM   14  C5  UNL     1      20.783   6.665  57.041  1.00  0.00     0.117 C
HETATM   15  C6  UNL     1      19.406   6.216  56.622  1.00  0.00     0.026 C
ENDBRANCH  12  14
ENDBRANCH   6  12
BRANCH  11  16
HETATM   16  C9  UNL     1      21.062  -1.496  56.418  1.00  0.00     0.132 C
BRANCH  16  17
HETATM   17  C10 UNL     1      19.820  -1.796  55.624  1.00  0.00     0.016 C
HETATM   18  C11 UNL     1      20.107  -2.453  54.309  1.00  0.00     0.006 C
ENDBRANCH  16  17
ENDBRANCH  11  16
TORSDOF 4
ENDMDL