MODEL 1
REMARK VINA RESULT: -5.692311029      0.000      0.000
REMARK  4 active torsions:
REMARK  status: ('A' for Active; 'I' for Inactive)
REMARK    1  A    between atoms: C2_2  and  C3_3
REMARK    2  A    between atoms: C7_8  and  C8_9
REMARK    3  A    between atoms: C8_9  and  O2_10
REMARK    4  A    between atoms: C9_12  and  N1_13
ROOT
HETATM    1  C3  UNL     1      19.980  -1.468  53.196  1.00  0.00     0.046 C
HETATM    2  C4  UNL     1      19.915  -1.670  51.678  1.00  0.00     0.043 C
HETATM    3  C5  UNL     1      21.135  -1.073  51.063  1.00  0.00     0.131 C
HETATM    4  O1  UNL     1      22.152  -1.106  52.031  1.00  0.00    -0.377 OA
HETATM    5  C6  UNL     1      21.651   0.134  52.493  1.00  0.00     0.164 C
HETATM    6  C7  UNL     1      21.114   0.409  51.126  1.00  0.00     0.069 C
HETATM    7  C9  UNL     1      20.608  -0.164  53.539  1.00  0.00     0.259 C
ENDROOT
BRANCH   7   8
HETATM    8  N1  UNL     1      21.202  -0.047  54.825  1.00  0.00     0.096 N
HETATM    9  C10 UNL     1      22.067   1.141  54.807  1.00  0.00     0.273 C
HETATM   10  C11 UNL     1      21.988   1.949  56.072  1.00  0.00     0.030 C
HETATM   11  C12 UNL     1      21.980   1.145  57.329  1.00  0.00     0.003 C
HETATM   12  C13 UNL     1      21.032  -0.005  57.187  1.00  0.00     0.030 C
HETATM   13  C14 UNL     1      20.263   0.201  55.897  1.00  0.00     0.273 C
ENDBRANCH   7   8
BRANCH   1  14
HETATM   14  C2  UNL     1      20.630  -2.675  53.741  1.00  0.00    -0.030 C
HETATM   15  C1  UNL     1      20.000  -3.366  54.676  1.00  0.00     0.007 C
ENDBRANCH   1  14
BRANCH   6  16
HETATM   16  C8  UNL     1      19.816   1.101  50.968  1.00  0.00     0.173 C
BRANCH  16  17
HETATM   17  O2  UNL     1      19.995   2.221  50.116  1.00  0.00    -0.400 OA
ATOM     18  H2  UNL     1      19.425   2.922  50.408  1.00  0.00     0.209 HD
ENDBRANCH  16  17
ENDBRANCH   6  16
TORSDOF 4
ENDMDL