MODEL 5
REMARK VINA RESULT: -4.582715549      1.609      1.985
REMARK  3 active torsions:
REMARK  status: ('A' for Active; 'I' for Inactive)
REMARK    1  A    between atoms: C4_4  and  C6_6
REMARK    2  A    between atoms: C8_11  and  C9_12
REMARK    3  A    between atoms: C10_13  and  C11_14
ROOT
HETATM    1  C1  UNL     1      20.457  -2.380  53.068  1.00  0.00     0.046 C
HETATM    2  C2  UNL     1      20.114  -1.431  51.979  1.00  0.00    -0.042 C
HETATM    3  C3  UNL     1      19.593  -1.721  50.792  1.00  0.00     0.033 C
HETATM    4  C4  UNL     1      19.429  -0.420  50.041  1.00  0.00     0.250 C
HETATM    5  C5  UNL     1      20.748  -0.188  49.333  1.00  0.00     0.069 C
HETATM    6  N1  UNL     1      19.243   0.491  51.145  1.00  0.00     0.040 N
HETATM    7  C7  UNL     1      19.354   1.868  50.785  1.00  0.00     0.359 C
HETATM    8  O2  UNL     1      18.050   0.244  51.707  1.00  0.00    -0.062 OA
HETATM    9  C8  UNL     1      20.300   0.044  52.030  1.00  0.00     0.307 C
ENDROOT
BRANCH   9  10
HETATM   10  C9  UNL     1      20.165   0.588  53.401  1.00  0.00     0.017 C
HETATM   11  C10 UNL     1      21.281   0.860  54.060  1.00  0.00    -0.012 C
BRANCH  11  12
HETATM   12  C11 UNL     1      21.185   1.408  55.441  1.00  0.00     0.077 C
HETATM   13  C12 UNL     1      22.478   2.078  55.855  1.00  0.00     0.026 C
HETATM   14  S1  UNL     1      20.883   0.045  56.625  1.00  0.00    -0.089 SA
ENDBRANCH  11  12
ENDBRANCH   9  10
BRANCH   4  15
HETATM   15  C6  UNL     1      18.292  -0.506  49.136  1.00  0.00     0.283 C
HETATM   16  O1  UNL     1      18.399  -0.153  47.982  1.00  0.00    -0.303 OA
ENDBRANCH   4  15
TORSDOF 3
ENDMDL