MODEL 1
REMARK VINA RESULT: -6.752818393      0.000      0.000
REMARK  4 active torsions:
REMARK  status: ('A' for Active; 'I' for Inactive)
REMARK    1  A    between atoms: N2_6  and  C4_8
REMARK    2  A    between atoms: C4_8  and  C5_9
REMARK    3  A    between atoms: C5_9  and  C6_10
REMARK    4  A    between atoms: N3_14  and  O1_15
ROOT
HETATM    1  C1  UNL     1      20.531  -0.113  58.685  1.00  0.00     0.070 C
HETATM    2  C2  UNL     1      20.849   0.131  57.231  1.00  0.00     0.033 A
HETATM    3  N1  UNL     1      21.330   1.349  56.955  1.00  0.00    -0.338 N
ATOM      4  H1  UNL     1      21.437   1.992  57.739  1.00  0.00     0.168 HD
HETATM    5  C3  UNL     1      21.682   1.798  55.760  1.00  0.00     0.163 A
HETATM    6  N2  UNL     1      22.140   2.952  55.477  1.00  0.00    -0.369 N
ATOM      7  H2  UNL     1      22.359   3.130  54.497  1.00  0.00     0.161 HD
HETATM    8  S1  UNL     1      21.475   0.663  54.500  1.00  0.00     0.053 SA
HETATM    9  N3  UNL     1      20.856  -0.835  55.021  1.00  0.00    -0.193 N
HETATM   10  C9  UNL     1      20.629  -0.876  56.349  1.00  0.00     0.066 A
HETATM   11  C10 UNL     1      20.079  -2.185  56.858  1.00  0.00     0.074 C
ENDROOT
BRANCH   6  12
HETATM   12  C4  UNL     1      22.378   4.020  56.392  1.00  0.00     0.122 C
BRANCH  12  13
HETATM   13  C5  UNL     1      21.130   4.638  56.951  1.00  0.00     0.023 C
BRANCH  13  14
HETATM   14  C6  UNL     1      20.958   5.998  56.294  1.00  0.00    -0.021 C
HETATM   15  C7  UNL     1      19.989   5.958  55.153  1.00  0.00     0.009 C
HETATM   16  C8  UNL     1      20.478   7.031  57.289  1.00  0.00     0.009 C
ENDBRANCH  13  14
ENDBRANCH  12  13
ENDBRANCH   6  12
BRANCH   9  17
HETATM   17  O1  UNL     1      20.606  -1.902  54.187  1.00  0.00    -0.276 OA
ATOM     18  H1  UNL     1      20.374  -2.772  54.488  1.00  0.00     0.246 HD
ENDBRANCH   9  17
TORSDOF 4
ENDMDL