MODEL 5
REMARK VINA RESULT: -5.403657145      2.430      5.543
REMARK  2 active torsions:
REMARK  status: ('A' for Active; 'I' for Inactive)
REMARK    1  A    between atoms: N2_5  and  N3_6
REMARK    2  A    between atoms: N3_6  and  C4_8
ROOT
HETATM    1  C1  UNL     1      -8.231  20.784  74.002  1.00  0.00     0.143 C
HETATM    2  N1  UNL     1      -8.441  20.590  75.401  1.00  0.00    -0.200 NA
HETATM    3  C2  UNL     1      -9.145  19.363  75.718  1.00  0.00     0.136 C
HETATM    4  C3  UNL     1     -10.387  19.801  76.508  1.00  0.00     0.130 C
HETATM    5  N2  UNL     1      -9.923  20.430  77.694  1.00  0.00    -0.232 NA
HETATM    6  C9  UNL     1      -9.166  21.624  77.477  1.00  0.00     0.141 C
HETATM    7  C10 UNL     1      -7.701  21.276  77.429  1.00  0.00     0.210 C
HETATM    8  O1  UNL     1      -7.376  20.816  76.162  1.00  0.00    -0.303 OA
ENDROOT
BRANCH   5   9
HETATM    9  N3  UNL     1      -9.388  19.604  78.641  1.00  0.00    -0.350 N
ATOM     10  H3  UNL     1      -8.429  19.703  78.975  1.00  0.00     0.174 HD
BRANCH   9  11
HETATM   11  C4  UNL     1     -10.265  18.592  79.128  1.00  0.00     0.094 C
HETATM   12  C5  UNL     1     -10.670  18.964  80.541  1.00  0.00     0.026 C
HETATM   13  C6  UNL     1      -9.763  18.143  81.433  1.00  0.00     0.002 C
HETATM   14  C7  UNL     1      -9.760  16.812  80.695  1.00  0.00     0.002 C
HETATM   15  C8  UNL     1      -9.574  17.245  79.275  1.00  0.00     0.026 C
ENDBRANCH   9  11
ENDBRANCH   5   9
TORSDOF 2
ENDMDL