MODEL 2
REMARK VINA RESULT: -5.612484866      2.555      3.842
REMARK  2 active torsions:
REMARK  status: ('A' for Active; 'I' for Inactive)
REMARK    1  A    between atoms: C2_2  and  O1_3
REMARK    2  A    between atoms: O1_3  and  C3_4
ROOT
HETATM    1  C3  UNL     1     -10.477  19.336  77.987  1.00  0.00     0.164 C
HETATM    2  C4  UNL     1      -9.952  20.680  78.451  1.00  0.00     0.038 C
HETATM    3  C5  UNL     1      -9.347  21.366  77.232  1.00  0.00     0.044 C
HETATM    4  C6  UNL     1      -8.211  20.528  76.735  1.00  0.00     0.110 C
HETATM    5  C7  UNL     1      -7.791  20.736  75.320  1.00  0.00     0.272 C
HETATM    6  N1  UNL     1      -6.387  20.763  75.754  1.00  0.00    -0.069 N
ATOM      7  H11 UNL     1      -5.689  21.311  75.251  1.00  0.00     0.277 HD
ATOM      8  H12 UNL     1      -5.787  19.946  75.648  1.00  0.00     0.277 HD
HETATM    9  C8  UNL     1      -6.867  21.175  77.051  1.00  0.00     0.272 C
HETATM   10  O2  UNL     1      -8.220  19.229  77.133  1.00  0.00    -0.355 OA
HETATM   11  C9  UNL     1      -9.432  18.610  77.192  1.00  0.00     0.257 C
HETATM   12  C10 UNL     1      -9.979  18.332  75.847  1.00  0.00     0.094 C
HETATM   13  N2  UNL     1     -10.420  18.101  74.800  1.00  0.00    -0.194 NA
ENDROOT
BRANCH   1  14
HETATM   14  O1  UNL     1     -10.923  18.540  79.010  1.00  0.00    -0.383 OA
BRANCH  14  15
HETATM   15  C2  UNL     1     -10.184  18.697  80.179  1.00  0.00     0.164 C
HETATM   16  C1  UNL     1     -11.081  18.855  81.372  1.00  0.00     0.033 C
ENDBRANCH  14  15
ENDBRANCH   1  14
TORSDOF 2
ENDMDL