MODEL 3
REMARK VINA RESULT: -4.958039856      2.119      3.946
REMARK  3 active torsions:
REMARK  status: ('A' for Active; 'I' for Inactive)
REMARK    1  A    between atoms: C5_6  and  C6_7
REMARK    2  A    between atoms: C6_7  and  C7_8
REMARK    3  A    between atoms: C7_8  and  N1_9
ROOT
HETATM    1  C1  UNL     1      -7.602  21.026  75.036  1.00  0.00     0.048 C
HETATM    2  C2  UNL     1      -8.108  20.513  76.391  1.00  0.00     0.076 C
HETATM    3  C3  UNL     1      -6.996  20.861  77.392  1.00  0.00     0.048 C
HETATM    4  C4  UNL     1      -9.327  21.234  76.809  1.00  0.00     0.209 C
HETATM    5  O1  UNL     1     -10.509  20.579  76.740  1.00  0.00    -0.350 OA
HETATM    6  C5  UNL     1     -10.492  19.231  77.001  1.00  0.00     0.192 C
HETATM    7  O2  UNL     1     -11.650  18.681  76.508  1.00  0.00    -0.353 OA
HETATM    8  C8  UNL     1     -11.421  18.135  75.279  1.00  0.00     0.174 C
HETATM    9  C9  UNL     1      -9.988  18.433  74.882  1.00  0.00     0.064 C
HETATM   10  C10 UNL     1      -9.382  18.577  76.262  1.00  0.00     0.187 C
HETATM   11  O3  UNL     1      -8.176  19.165  76.305  1.00  0.00    -0.368 OA
ENDROOT
BRANCH   6  12
HETATM   12  C6  UNL     1     -10.386  18.913  78.470  1.00  0.00     0.098 C
BRANCH  12  13
HETATM   13  C7  UNL     1     -10.031  17.442  78.670  1.00  0.00     0.235 C
BRANCH  13  14
HETATM   14  N1  UNL     1     -11.259  16.681  78.797  1.00  0.00    -0.079 N
ATOM     15  H13 UNL     1     -11.373  15.999  78.048  1.00  0.00     0.274 HD
ATOM     16  H12 UNL     1     -11.234  16.028  79.580  1.00  0.00     0.274 HD
ATOM     17  H11 UNL     1     -12.042  17.331  78.855  1.00  0.00     0.274 HD
ENDBRANCH  13  14
ENDBRANCH  12  13
ENDBRANCH   6  12
TORSDOF 3
ENDMDL