MODEL 4
REMARK VINA RESULT: -5.204295387      1.973      4.190
REMARK  2 active torsions:
REMARK  status: ('A' for Active; 'I' for Inactive)
REMARK    1  A    between atoms: C2_2  and  C3_3
REMARK    2  A    between atoms: C7_10  and  O2_11
ROOT
HETATM    1  C3  UNL     1     -10.360  17.374  77.363  1.00  0.00     0.107 C
HETATM    2  N1  UNL     1     -10.861  16.969  76.089  1.00  0.00    -0.414 N
ATOM      3  H1  UNL     1     -10.664  16.048  75.698  1.00  0.00     0.153 HD
HETATM    4  C4  UNL     1     -11.647  17.925  75.404  1.00  0.00     0.117 C
HETATM    5  C5  UNL     1     -11.036  19.298  75.547  1.00  0.00     0.054 C
HETATM    6  C6  UNL     1      -9.589  19.130  75.871  1.00  0.00     0.157 C
HETATM    7  O1  UNL     1      -8.814  20.231  75.731  1.00  0.00    -0.351 OA
HETATM    8  C7  UNL     1      -8.907  21.189  76.707  1.00  0.00     0.283 C
HETATM    9  C9  UNL     1      -9.577  20.764  77.967  1.00  0.00     0.229 C
HETATM   10  O3  UNL     1      -9.582  19.450  78.260  1.00  0.00    -0.376 OA
HETATM   11  C10 UNL     1      -9.405  18.560  77.251  1.00  0.00     0.172 C
ENDROOT
BRANCH   1  12
HETATM   12  C2  UNL     1     -11.436  17.618  78.393  1.00  0.00     0.023 C
HETATM   13  C1  UNL     1     -12.317  16.406  78.437  1.00  0.00     0.007 C
ENDBRANCH   1  12
BRANCH   8  14
HETATM   14  O2  UNL     1      -7.620  21.665  76.951  1.00  0.00    -0.364 OA
HETATM   15  C8  UNL     1      -6.726  21.189  76.002  1.00  0.00     0.204 C
ENDBRANCH   8  14
TORSDOF 2
ENDMDL