MODEL 1
REMARK VINA RESULT: -5.227111176      0.000      0.000
REMARK  3 active torsions:
REMARK  status: ('A' for Active; 'I' for Inactive)
REMARK    1  A    between atoms: O1_1  and  C1_3
REMARK    2  A    between atoms: C1_3  and  C2_4
REMARK    3  A    between atoms: C2_4  and  N1_5
ROOT
HETATM    1  N1  UNL     1     -10.300  19.217  78.440  1.00  0.00    -0.185 NA
HETATM    2  C3  UNL     1     -10.884  17.991  77.863  1.00  0.00     0.194 C
HETATM    3  S1  UNL     1     -10.536  17.823  76.115  1.00  0.00    -0.152 SA
HETATM    4  C4  UNL     1     -10.016  19.412  75.415  1.00  0.00     0.082 C
HETATM    5  C5  UNL     1      -8.614  19.656  75.878  1.00  0.00     0.026 C
HETATM    6  C6  UNL     1      -7.929  20.824  75.232  1.00  0.00     0.008 C
HETATM    7  C7  UNL     1      -6.963  21.383  76.286  1.00  0.00     0.003 C
HETATM    8  C8  UNL     1      -7.088  20.417  77.446  1.00  0.00     0.034 C
HETATM    9  C9  UNL     1      -8.590  20.104  77.347  1.00  0.00     0.150 C
HETATM   10  O2  UNL     1      -8.946  19.099  78.195  1.00  0.00    -0.297 OA
ENDROOT
BRANCH   1  11
HETATM   11  C2  UNL     1     -10.417  19.028  79.902  1.00  0.00     0.147 C
BRANCH  11  12
HETATM   12  C1  UNL     1      -9.807  17.707  80.309  1.00  0.00     0.181 C
BRANCH  12  13
HETATM   13  O1  UNL     1      -8.526  17.886  80.795  1.00  0.00    -0.400 OA
ATOM     14  H1  UNL     1      -8.424  17.467  81.641  1.00  0.00     0.209 HD
ENDBRANCH  12  13
ENDBRANCH  11  12
ENDBRANCH   1  11
TORSDOF 3
ENDMDL