MODEL 4
REMARK VINA RESULT: -4.863787789      1.602      3.796
REMARK  3 active torsions:
REMARK  status: ('A' for Active; 'I' for Inactive)
REMARK    1  A    between atoms: C2_2  and  O1_3
REMARK    2  A    between atoms: O1_3  and  C3_4
REMARK    3  A    between atoms: C6_7  and  O2_8
ROOT
HETATM    1  C3  UNL     1     -10.343  17.887  77.172  1.00  0.00     0.169 C
HETATM    2  C4  UNL     1      -9.969  18.557  75.869  1.00  0.00     0.038 C
HETATM    3  C5  UNL     1      -9.263  19.825  76.217  1.00  0.00     0.038 C
HETATM    4  C6  UNL     1      -8.738  19.594  77.616  1.00  0.00     0.166 C
HETATM    5  C7  UNL     1      -9.689  18.630  78.273  1.00  0.00     0.160 C
HETATM    6  O3  UNL     1     -10.488  19.255  79.159  1.00  0.00    -0.363 OA
HETATM    7  C8  UNL     1     -10.708  18.665  80.307  1.00  0.00     0.180 C
HETATM    8  C9  UNL     1      -9.606  17.818  80.818  1.00  0.00     0.103 C
HETATM    9  S1  UNL     1      -8.664  17.483  79.278  1.00  0.00    -0.124 SA
ENDROOT
BRANCH   1  10
HETATM   10  O1  UNL     1     -11.717  17.823  77.250  1.00  0.00    -0.382 OA
BRANCH  10  11
HETATM   11  C2  UNL     1     -12.157  16.511  77.259  1.00  0.00     0.164 C
HETATM   12  C1  UNL     1     -12.965  16.249  78.505  1.00  0.00     0.033 C
ENDBRANCH  10  11
ENDBRANCH   1  10
BRANCH   4  13
HETATM   13  O2  UNL     1      -8.624  20.797  78.275  1.00  0.00    -0.392 OA
ATOM     14  H2  UNL     1      -7.721  21.092  78.251  1.00  0.00     0.210 HD
ENDBRANCH   4  13
TORSDOF 3
ENDMDL