MODEL 2
REMARK VINA RESULT: -5.067357517      2.269      4.741
REMARK  3 active torsions:
REMARK  status: ('A' for Active; 'I' for Inactive)
REMARK    1  A    between atoms: O1_2  and  C2_3
REMARK    2  A    between atoms: C5_7  and  N1_8
REMARK    3  A    between atoms: C9_12  and  O2_13
ROOT
HETATM    1  C2  UNL     1     -11.631  17.247  77.355  1.00  0.00     0.130 C
HETATM    2  C3  UNL     1     -11.017  15.902  77.027  1.00  0.00     0.061 C
HETATM    3  S1  UNL     1     -11.445  18.243  75.816  1.00  0.00    -0.127 SA
HETATM    4  C4  UNL     1      -9.654  18.556  75.676  1.00  0.00     0.113 C
HETATM    5  C5  UNL     1      -9.282  19.368  76.918  1.00  0.00     0.233 C
HETATM    6  C8  UNL     1     -10.355  19.338  77.954  1.00  0.00     0.072 C
HETATM    7  C9  UNL     1     -10.796  17.967  78.388  1.00  0.00     0.165 C
ENDROOT
BRANCH   1   8
HETATM    8  O1  UNL     1     -12.970  17.224  77.618  1.00  0.00    -0.372 OA
HETATM    9  C1  UNL     1     -13.815  17.034  76.563  1.00  0.00     0.204 C
ENDBRANCH   1   8
BRANCH   7  10
HETATM   10  O2  UNL     1      -9.724  17.197  78.836  1.00  0.00    -0.392 OA
ATOM     11  H2  UNL     1      -9.980  16.572  79.504  1.00  0.00     0.210 HD
ENDBRANCH   7  10
BRANCH   5  12
HETATM   12  N1  UNL     1      -9.108  20.725  76.474  1.00  0.00     0.085 N
HETATM   13  C6  UNL     1      -7.846  20.870  75.740  1.00  0.00     0.309 C
HETATM   14  C7  UNL     1      -9.109  21.698  77.516  1.00  0.00     0.309 C
ENDBRANCH   5  12
TORSDOF 3
ENDMDL