MODEL 5
REMARK VINA RESULT: -5.456831598      4.667      6.912
REMARK  2 active torsions:
REMARK  status: ('A' for Active; 'I' for Inactive)
REMARK    1  A    between atoms: C2_2  and  C3_3
REMARK    2  A    between atoms: C7_8  and  O2_9
ROOT
HETATM    1  C3  UNL     1      -9.961  17.519  81.466  1.00  0.00     0.132 C
HETATM    2  O1  UNL     1     -10.833  16.653  82.211  1.00  0.00    -0.347 OA
HETATM    3  C4  UNL     1      -9.925  16.319  83.143  1.00  0.00     0.198 C
HETATM    4  C5  UNL     1      -8.927  15.613  82.309  1.00  0.00     0.074 C
HETATM    5  C6  UNL     1      -7.679  16.292  81.897  1.00  0.00     0.046 C
HETATM    6  C7  UNL     1      -7.784  17.449  82.869  1.00  0.00     0.088 C
HETATM    7  C8  UNL     1      -7.736  16.721  84.191  1.00  0.00     0.248 C
HETATM    8  O3  UNL     1      -8.623  15.911  84.667  1.00  0.00    -0.235 OA
HETATM    9  O4  UNL     1      -9.872  15.718  84.290  1.00  0.00    -0.201 OA
HETATM   10  C9  UNL     1      -9.033  18.177  82.496  1.00  0.00     0.057 C
HETATM   11  C10 UNL     1      -9.862  17.737  83.648  1.00  0.00     0.081 C
ENDROOT
BRANCH   1  12
HETATM   12  C2  UNL     1     -10.719  18.603  80.766  1.00  0.00     0.028 C
HETATM   13  C1  UNL     1     -10.308  18.988  79.412  1.00  0.00     0.007 C
ENDBRANCH   1  12
BRANCH   6  14
HETATM   14  O2  UNL     1      -6.710  18.301  82.786  1.00  0.00    -0.387 OA
ATOM     15  H2  UNL     1      -5.964  17.904  82.353  1.00  0.00     0.210 HD
ENDBRANCH   6  14
TORSDOF 2
ENDMDL