MODEL 4
REMARK VINA RESULT: -5.555625621      1.561      3.753
REMARK  2 active torsions:
REMARK  status: ('A' for Active; 'I' for Inactive)
REMARK    1  A    between atoms: N1_2  and  C2_5
REMARK    2  A    between atoms: C4_7  and  C5_8
ROOT
HETATM    1  C5  UNL     1     -12.004  16.864  76.357  1.00  0.00     0.205 C
HETATM    2  C6  UNL     1     -12.920  16.530  77.467  1.00  0.00     0.079 C
HETATM    3  N2  UNL     1     -13.643  16.265  78.342  1.00  0.00    -0.196 NA
HETATM    4  C7  UNL     1     -12.731  17.705  75.409  1.00  0.00     0.079 C
HETATM    5  N3  UNL     1     -13.308  18.370  74.664  1.00  0.00    -0.196 NA
ENDROOT
BRANCH   1   6
HETATM    6  C4  UNL     1     -10.840  17.588  76.967  1.00  0.00     0.054 C
HETATM    7  C3  UNL     1     -11.037  17.944  78.426  1.00  0.00     0.074 C
HETATM    8  C2  UNL     1     -10.143  19.163  78.537  1.00  0.00     0.420 C
HETATM    9  N4  UNL     1     -10.457  19.905  77.359  1.00  0.00     0.124 N
HETATM   10  C8  UNL     1     -10.727  18.945  76.306  1.00  0.00     0.232 C
HETATM   11  C11 UNL     1      -9.435  20.769  76.865  1.00  0.00     0.276 C
HETATM   12  C9  UNL     1      -9.539  18.937  75.396  1.00  0.00     0.038 C
HETATM   13  C10 UNL     1      -8.604  20.001  75.889  1.00  0.00     0.032 C
BRANCH   8  14
HETATM   14  N1  UNL     1      -8.747  18.800  78.628  1.00  0.00    -0.047 N
HETATM   15  C1  UNL     1      -8.508  17.666  79.463  1.00  0.00     0.269 C
ATOM     16  H12 UNL     1      -8.185  19.596  78.930  1.00  0.00     0.279 HD
ATOM     17  H11 UNL     1      -8.350  18.655  77.699  1.00  0.00     0.279 HD
ENDBRANCH   8  14
ENDBRANCH   1   6
TORSDOF 2
ENDMDL