MODEL 5
REMARK VINA RESULT: -6.768847778      4.038      7.996
REMARK  15 active torsions:
REMARK  status: ('A' for Active; 'I' for Inactive)
REMARK    1  A    between atoms: C2_2  and  N1_5
REMARK       I    between atoms: C5_7  and  N2_8
REMARK       I    between atoms: C5_7  and  N4_12
REMARK    2  A    between atoms: N4_12  and  C7_14
REMARK    3  A    between atoms: C7_14  and  C8_15
REMARK    4  A    between atoms: C8_15  and  C9_16
REMARK    5  A    between atoms: C9_16  and  C10_17
REMARK    6  A    between atoms: C10_17  and  C11_18
REMARK    7  A    between atoms: C11_18  and  C12_19
REMARK    8  A    between atoms: C12_19  and  C13_20
REMARK    9  A    between atoms: C13_20  and  C14_21
REMARK   10  A    between atoms: C14_21  and  C15_22
REMARK   11  A    between atoms: C15_22  and  N5_23
REMARK   12  A    between atoms: C17_25  and  O1_26
REMARK   13  A    between atoms: C18_28  and  O2_29
REMARK   14  A    between atoms: C19_31  and  O3_32
REMARK   15  A    between atoms: C20_34  and  O4_35
ROOT
HETATM    1  N1  UNL     1      15.428  37.885 -11.822  1.00  0.00    -0.218 N
ATOM      2  H1  UNL     1      16.327  37.473 -11.575  1.00  0.00     0.178 HD
HETATM    3  C5  UNL     1      15.356  39.144 -11.856  1.00  0.00     0.683 C
HETATM    4  N2  UNL     1      14.142  39.794 -12.191  1.00  0.00    -0.126 N
ATOM      5  H2  UNL     1      13.334  39.657 -11.584  1.00  0.00     0.197 HD
HETATM    6  C6  UNL     1      14.000  40.623 -13.326  1.00  0.00     0.196 C
HETATM    7  N3  UNL     1      13.878  41.302 -14.265  1.00  0.00    -0.171 NA
HETATM    8  N4  UNL     1      16.521  39.927 -11.548  1.00  0.00    -0.226 N
ATOM      9  H4  UNL     1      17.433  39.477 -11.468  1.00  0.00     0.177 HD
ENDROOT
BRANCH   1  10
HETATM   10  C2  UNL     1      14.360  36.999 -12.099  1.00  0.00     0.036 C
HETATM   11  C1  UNL     1      14.893  35.579 -11.824  1.00  0.00     0.038 C
HETATM   12  C3  UNL     1      13.865  36.978 -13.514  1.00  0.00     0.038 C
HETATM   13  C4  UNL     1      13.213  37.297 -11.146  1.00  0.00     0.038 C
ENDBRANCH   1  10
BRANCH   8  14
HETATM   14  C7  UNL     1      16.395  41.365 -11.351  1.00  0.00     0.138 C
BRANCH  14  15
HETATM   15  C8  UNL     1      16.223  41.736  -9.908  1.00  0.00     0.020 C
BRANCH  15  16
HETATM   16  C9  UNL     1      16.681  43.128  -9.657  1.00  0.00     0.002 C
BRANCH  16  17
HETATM   17  C10 UNL     1      15.994  43.745  -8.493  1.00  0.00     0.000 C
BRANCH  17  18
HETATM   18  C11 UNL     1      14.752  42.999  -8.146  1.00  0.00     0.000 C
BRANCH  18  19
HETATM   19  C12 UNL     1      13.467  43.764  -8.368  1.00  0.00     0.000 C
BRANCH  19  20
HETATM   20  C13 UNL     1      12.957  43.454  -9.741  1.00  0.00     0.005 C
BRANCH  20  21
HETATM   21  C14 UNL     1      12.266  42.158  -9.895  1.00  0.00     0.044 C
BRANCH  21  22
HETATM   22  C15 UNL     1      11.442  41.641  -8.793  1.00  0.00     0.061 C
BRANCH  22  23
HETATM   23  N5  UNL     1      11.904  40.583  -8.002  1.00  0.00    -0.363 N
HETATM   24  C16 UNL     1      12.990  39.782  -8.386  1.00  0.00     0.159 C
HETATM   25  C17 UNL     1      12.735  38.364  -7.831  1.00  0.00     0.167 C
HETATM   26  C18 UNL     1      11.692  38.454  -6.741  1.00  0.00     0.181 C
HETATM   27  C19 UNL     1      12.059  39.605  -5.830  1.00  0.00     0.198 C
HETATM   28  C20 UNL     1      12.057  40.910  -6.593  1.00  0.00     0.251 C
BRANCH  25  29
HETATM   29  O1  UNL     1      13.908  37.774  -7.376  1.00  0.00    -0.391 OA
ATOM     30  H1  UNL     1      14.311  37.234  -8.045  1.00  0.00     0.210 HD
ENDBRANCH  25  29
BRANCH  26  31
HETATM   31  O2  UNL     1      10.432  38.664  -7.306  1.00  0.00    -0.390 OA
ATOM     32  H2  UNL     1       9.802  38.064  -6.925  1.00  0.00     0.210 HD
ENDBRANCH  26  31
BRANCH  27  33
HETATM   33  O3  UNL     1      11.151  39.688  -4.762  1.00  0.00    -0.389 OA
ATOM     34  H3  UNL     1      11.441  40.339  -4.134  1.00  0.00     0.210 HD
ENDBRANCH  27  33
BRANCH  28  35
HETATM   35  O4  UNL     1      11.111  41.806  -6.137  1.00  0.00    -0.374 OA
ATOM     36  H4  UNL     1      10.601  41.473  -5.407  1.00  0.00     0.212 HD
ENDBRANCH  28  35
ENDBRANCH  22  23
ENDBRANCH  21  22
ENDBRANCH  20  21
ENDBRANCH  19  20
ENDBRANCH  18  19
ENDBRANCH  17  18
ENDBRANCH  16  17
ENDBRANCH  15  16
ENDBRANCH  14  15
ENDBRANCH   8  14
TORSDOF 15
ENDMDL