MODEL 5
REMARK VINA RESULT: -7.731443925      1.278      1.633
REMARK  13 active torsions:
REMARK  status: ('A' for Active; 'I' for Inactive)
REMARK    1  A    between atoms: N1_2  and  C2_3
REMARK    2  A    between atoms: N1_2  and  C5_10
REMARK    3  A    between atoms: C2_3  and  C3_4
REMARK    4  A    between atoms: C3_4  and  C4_5
REMARK    5  A    between atoms: C4_5  and  N2_6
REMARK    6  A    between atoms: C5_10  and  C6_11
REMARK    7  A    between atoms: C6_11  and  C7_12
REMARK    8  A    between atoms: C7_12  and  C8_13
REMARK    9  A    between atoms: C8_13  and  C9_14
REMARK   10  A    between atoms: N3_15  and  C10_17
REMARK   11  A    between atoms: N7_28  and  C14_29
REMARK   12  A    between atoms: C15_30  and  O1_31
REMARK   13  A    between atoms: C16_33  and  O2_34
ROOT
HETATM    1  C10 UNL     1      12.555  39.028  -7.262  1.00  0.00     0.685 A
HETATM    2  N4  UNL     1      12.137  40.136  -7.902  1.00  0.00    -0.174 N
ATOM      3  H4  UNL     1      12.520  40.325  -8.828  1.00  0.00     0.186 HD
HETATM    4  C11 UNL     1      11.249  41.009  -7.402  1.00  0.00     0.145 A
HETATM    5  N5  UNL     1      10.891  42.059  -8.079  1.00  0.00    -0.383 N
ATOM      6  H51 UNL     1      10.217  42.722  -7.699  1.00  0.00     0.157 HD
ATOM      7  H52 UNL     1      11.278  42.244  -9.004  1.00  0.00     0.157 HD
HETATM    8  C12 UNL     1      10.727  40.759  -6.153  1.00  0.00     0.123 A
HETATM    9  N6  UNL     1       9.839  41.403  -5.393  1.00  0.00    -0.346 N
ATOM     10  H6  UNL     1       9.360  42.272  -5.627  1.00  0.00     0.167 HD
HETATM   11  C13 UNL     1       9.697  40.698  -4.272  1.00  0.00     0.185 A
HETATM   12  N7  UNL     1      10.477  39.605  -4.286  1.00  0.00    -0.319 N
HETATM   13  C20 UNL     1      11.147  39.623  -5.480  1.00  0.00     0.155 A
HETATM   14  N8  UNL     1      12.026  38.787  -6.009  1.00  0.00    -0.174 N
ATOM     15  H8  UNL     1      12.315  37.959  -5.488  1.00  0.00     0.186 HD
ENDROOT
BRANCH   1  16
HETATM   16  N3  UNL     1      13.354  38.186  -7.685  1.00  0.00    -0.205 N
HETATM   17  C9  UNL     1      13.923  37.707  -8.823  1.00  0.00     0.079 C
ATOM     18  H3  UNL     1      13.720  37.660  -6.892  1.00  0.00     0.183 HD
BRANCH  17  19
HETATM   19  C8  UNL     1      13.276  37.866 -10.151  1.00  0.00     0.045 C
BRANCH  19  20
HETATM   20  C7  UNL     1      13.825  39.106 -10.873  1.00  0.00     0.010 C
BRANCH  20  21
HETATM   21  C6  UNL     1      14.674  38.768 -12.013  1.00  0.00     0.044 C
BRANCH  21  22
HETATM   22  C5  UNL     1      14.163  39.119 -13.383  1.00  0.00     0.057 C
BRANCH  22  23
HETATM   23  N1  UNL     1      14.533  38.256 -14.395  1.00  0.00    -0.398 N
HETATM   24  C1  UNL     1      14.495  38.624 -15.753  1.00  0.00     0.148 C
BRANCH  23  25
HETATM   25  C2  UNL     1      14.706  36.873 -14.136  1.00  0.00     0.123 C
BRANCH  25  26
HETATM   26  C3  UNL     1      13.461  36.053 -14.058  1.00  0.00     0.047 C
BRANCH  26  27
HETATM   27  C4  UNL     1      13.245  35.392 -12.721  1.00  0.00     0.231 C
BRANCH  27  28
HETATM   28  N2  UNL     1      14.493  35.052 -12.073  1.00  0.00    -0.079 N
ATOM     29  H23 UNL     1      14.802  35.800 -11.453  1.00  0.00     0.274 HD
ATOM     30  H22 UNL     1      14.360  34.314 -11.382  1.00  0.00     0.274 HD
ATOM     31  H21 UNL     1      15.220  34.804 -12.744  1.00  0.00     0.274 HD
ENDBRANCH  27  28
ENDBRANCH  26  27
ENDBRANCH  25  26
ENDBRANCH  23  25
ENDBRANCH  22  23
ENDBRANCH  21  22
ENDBRANCH  20  21
ENDBRANCH  19  20
ENDBRANCH  17  19
ENDBRANCH   1  16
BRANCH  12  32
HETATM   32  C14 UNL     1      10.606  38.592  -3.285  1.00  0.00     0.128 C
HETATM   33  C15 UNL     1       9.387  37.688  -3.236  1.00  0.00     0.170 C
HETATM   34  C16 UNL     1       8.841  37.772  -1.834  1.00  0.00     0.153 C
HETATM   35  C17 UNL     1       9.981  38.311  -1.004  1.00  0.00     0.024 A
HETATM   36  C18 UNL     1      10.048  39.856  -1.046  1.00  0.00     0.015 A
HETATM   37  C19 UNL     1      10.902  39.051  -1.908  1.00  0.00     0.018 A
BRANCH  33  38
HETATM   38  O1  UNL     1       8.491  38.110  -4.203  1.00  0.00    -0.391 OA
ATOM     39  H1  UNL     1       7.660  37.674  -4.053  1.00  0.00     0.210 HD
ENDBRANCH  33  38
BRANCH  34  40
HETATM   40  O2  UNL     1       8.356  36.573  -1.356  1.00  0.00    -0.393 OA
ATOM     41  H2  UNL     1       7.409  36.545  -1.285  1.00  0.00     0.210 HD
ENDBRANCH  34  40
ENDBRANCH  12  32
TORSDOF 13
ENDMDL