MODEL 5
REMARK VINA RESULT: -6.437620483      3.192      7.533
REMARK  15 active torsions:
REMARK  status: ('A' for Active; 'I' for Inactive)
REMARK    1  A    between atoms: C3_3  and  C4_4
REMARK    2  A    between atoms: C4_4  and  C5_5
REMARK    3  A    between atoms: C5_5  and  C6_6
REMARK    4  A    between atoms: C6_6  and  C7_7
REMARK    5  A    between atoms: C7_7  and  C8_8
REMARK    6  A    between atoms: C8_8  and  N1_9
REMARK    7  A    between atoms: N1_9  and  C9_11
REMARK    8  A    between atoms: C10_14  and  N3_15
REMARK    9  A    between atoms: C12_21  and  S1_22
REMARK   10  A    between atoms: S1_22  and  C13_23
REMARK   11  A    between atoms: C13_23  and  C14_24
REMARK   12  A    between atoms: C14_24  and  N5_25
REMARK   13  A    between atoms: C16_34  and  N8_35
REMARK   14  A    between atoms: N8_35  and  C17_37
REMARK   15  A    between atoms: C17_37  and  C18_38
ROOT
HETATM    1  C1  UNL     1      13.655  35.949 -15.472  1.00  0.00     0.012 C
HETATM    2  C2  UNL     1      13.457  35.822 -14.282  1.00  0.00    -0.117 C
HETATM    3  C3  UNL     1      13.214  35.643 -12.839  1.00  0.00     0.093 C
ENDROOT
BRANCH   3   4
HETATM    4  C4  UNL     1      14.520  35.966 -12.057  1.00  0.00     0.012 C
BRANCH   4   5
HETATM    5  C5  UNL     1      14.618  37.434 -12.053  1.00  0.00     0.001 C
BRANCH   5   6
HETATM    6  C6  UNL     1      13.841  38.248 -11.119  1.00  0.00     0.002 C
BRANCH   6   7
HETATM    7  C7  UNL     1      13.144  37.708  -9.959  1.00  0.00     0.020 C
BRANCH   7   8
HETATM    8  C8  UNL     1      13.351  38.318  -8.620  1.00  0.00     0.121 C
BRANCH   8   9
HETATM    9  N1  UNL     1      12.200  39.173  -8.260  1.00  0.00    -0.373 N
ATOM     10  H1  UNL     1      11.281  38.761  -8.102  1.00  0.00     0.161 HD
BRANCH   9  11
HETATM   11  C9  UNL     1      12.373  40.442  -8.148  1.00  0.00     0.147 C
HETATM   12  N2  UNL     1      12.374  41.201  -9.278  1.00  0.00    -0.324 N
HETATM   13  C10 UNL     1      12.986  42.377  -9.550  1.00  0.00     0.131 C
ATOM     14  H2  UNL     1      11.822  40.820 -10.048  1.00  0.00     0.169 HD
HETATM   15  C11 UNL     1      13.481  43.274  -8.631  1.00  0.00     0.123 A
HETATM   16  N4  UNL     1      13.921  44.509  -8.962  1.00  0.00    -0.331 N
HETATM   17  C15 UNL     1      13.632  43.134  -7.266  1.00  0.00     0.140 A
HETATM   18  C12 UNL     1      14.340  45.142  -7.853  1.00  0.00     0.146 A
ATOM     19  H4  UNL     1      13.934  44.898  -9.905  1.00  0.00     0.168 HD
HETATM   20  N6  UNL     1      14.153  44.279  -6.831  1.00  0.00    -0.321 N
ATOM     21  H6  UNL     1      14.381  44.479  -5.856  1.00  0.00     0.169 HD
HETATM   22  N7  UNL     1      13.307  42.041  -6.552  1.00  0.00    -0.323 N
HETATM   23  C16 UNL     1      12.553  40.947  -6.879  1.00  0.00     0.151 C
ATOM     24  H7  UNL     1      13.687  42.025  -5.605  1.00  0.00     0.169 HD
BRANCH  13  25
HETATM   25  N3  UNL     1      13.121  42.694 -10.791  1.00  0.00    -0.383 N
ATOM     26  H32 UNL     1      14.064  42.636 -11.175  1.00  0.00     0.157 HD
ATOM     27  H31 UNL     1      12.279  42.975 -11.292  1.00  0.00     0.157 HD
ENDBRANCH  13  25
BRANCH  18  28
HETATM   28  S1  UNL     1      15.014  46.806  -7.751  1.00  0.00    -0.092 SA
BRANCH  28  29
HETATM   29  C13 UNL     1      16.735  46.754  -8.361  1.00  0.00     0.109 C
BRANCH  29  30
HETATM   30  C14 UNL     1      17.451  45.544  -7.746  1.00  0.00     0.240 C
BRANCH  30  31
HETATM   31  N5  UNL     1      18.616  46.060  -7.074  1.00  0.00    -0.079 N
ATOM     32  H53 UNL     1      19.184  46.671  -7.661  1.00  0.00     0.274 HD
ATOM     33  H52 UNL     1      18.396  46.747  -6.352  1.00  0.00     0.274 HD
ATOM     34  H51 UNL     1      19.126  45.251  -6.719  1.00  0.00     0.274 HD
ENDBRANCH  30  31
ENDBRANCH  29  30
ENDBRANCH  28  29
ENDBRANCH  18  28
BRANCH  23  35
HETATM   35  N8  UNL     1      11.998  40.394  -5.921  1.00  0.00    -0.343 N
ATOM     36  H8  UNL     1      12.691  39.998  -5.287  1.00  0.00     0.167 HD
BRANCH  35  37
HETATM   37  C17 UNL     1      10.707  40.150  -5.450  1.00  0.00     0.174 C
BRANCH  37  38
HETATM   38  C18 UNL     1      10.434  38.680  -5.367  1.00  0.00     0.214 C
HETATM   39  O1  UNL     1       9.342  38.323  -4.866  1.00  0.00    -0.643 OA
HETATM   40  O2  UNL     1      11.314  37.728  -5.810  1.00  0.00    -0.643 OA
ENDBRANCH  37  38
ENDBRANCH  35  37
ENDBRANCH  23  35
ENDBRANCH   9  11
ENDBRANCH   8   9
ENDBRANCH   7   8
ENDBRANCH   6   7
ENDBRANCH   5   6
ENDBRANCH   4   5
ENDBRANCH   3   4
TORSDOF 15
ENDMDL