MODEL 2
REMARK VINA RESULT: -7.654033521      3.604      9.754
REMARK  14 active torsions:
REMARK  status: ('A' for Active; 'I' for Inactive)
REMARK    1  A    between atoms: C2_2  and  C3_3
REMARK    2  A    between atoms: C3_3  and  C4_4
REMARK    3  A    between atoms: C4_4  and  C5_5
REMARK    4  A    between atoms: C5_5  and  C6_6
REMARK    5  A    between atoms: C6_6  and  C7_7
REMARK    6  A    between atoms: C7_7  and  N1_8
REMARK       I    between atoms: N1_8  and  C8_10
REMARK       I    between atoms: C8_10  and  N2_11
REMARK    7  A    between atoms: N2_11  and  C9_13
REMARK    8  A    between atoms: C9_13  and  C10_14
REMARK    9  A    between atoms: C11_15  and  O1_16
REMARK   10  A    between atoms: N4_21  and  C13_23
REMARK   11  A    between atoms: C13_23  and  C14_24
REMARK   12  A    between atoms: C14_24  and  C15_25
REMARK   13  A    between atoms: C15_25  and  C16_26
REMARK   14  A    between atoms: C16_26  and  N5_27
ROOT
HETATM    1  N1  UNL     1      11.212  39.564  -5.182  1.00  0.00    -0.225 N
ATOM      2  H1  UNL     1      11.877  40.284  -4.899  1.00  0.00     0.177 HD
HETATM    3  C8  UNL     1      10.269  39.095  -4.249  1.00  0.00     0.686 C
HETATM    4  N2  UNL     1       9.019  39.812  -4.211  1.00  0.00    -0.200 N
ATOM      5  H2  UNL     1       8.165  39.351  -4.528  1.00  0.00     0.183 HD
HETATM    6  N7  UNL     1      10.403  38.125  -3.450  1.00  0.00    -0.126 N
ATOM      7  H7  UNL     1      11.286  37.616  -3.469  1.00  0.00     0.197 HD
HETATM    8  C19 UNL     1       9.432  37.700  -2.544  1.00  0.00     0.196 C
HETATM    9  N8  UNL     1       8.607  37.359  -1.792  1.00  0.00    -0.171 NA
ENDROOT
BRANCH   1  10
HETATM   10  C7  UNL     1      11.258  39.054  -6.515  1.00  0.00     0.138 C
BRANCH  10  11
HETATM   11  C6  UNL     1      12.580  38.662  -7.016  1.00  0.00     0.020 C
BRANCH  11  12
HETATM   12  C5  UNL     1      12.801  38.439  -8.468  1.00  0.00     0.002 C
BRANCH  12  13
HETATM   13  C4  UNL     1      14.197  38.161  -8.867  1.00  0.00     0.000 C
BRANCH  13  14
HETATM   14  C3  UNL     1      14.279  37.089  -9.961  1.00  0.00    -0.000 C
BRANCH  14  15
HETATM   15  C2  UNL     1      13.173  37.227 -10.954  1.00  0.00    -0.005 C
HETATM   16  C1  UNL     1      13.383  36.194 -12.070  1.00  0.00     0.005 C
ENDBRANCH  14  15
ENDBRANCH  13  14
ENDBRANCH  12  13
ENDBRANCH  11  12
ENDBRANCH  10  11
ENDBRANCH   1  10
BRANCH   4  17
HETATM   17  C9  UNL     1       8.963  41.026  -3.784  1.00  0.00     0.127 C
BRANCH  17  18
HETATM   18  C10 UNL     1       8.163  41.976  -4.543  1.00  0.00     0.099 C
HETATM   19  C11 UNL     1       6.825  42.097  -4.231  1.00  0.00     0.159 C
HETATM   20  N3  UNL     1       5.927  43.034  -4.670  1.00  0.00    -0.318 N
HETATM   21  C12 UNL     1       6.164  44.226  -5.240  1.00  0.00     0.172 C
ATOM     22  H3  UNL     1       4.944  42.792  -4.547  1.00  0.00     0.169 HD
HETATM   23  N4  UNL     1       5.215  45.078  -5.277  1.00  0.00    -0.372 N
HETATM   24  C17 UNL     1       7.347  44.647  -5.804  1.00  0.00     0.292 C
ATOM     25  H4  UNL     1       5.369  45.990  -5.705  1.00  0.00     0.161 HD
HETATM   26  O2  UNL     1       7.353  45.866  -6.108  1.00  0.00    -0.264 OA
HETATM   27  N6  UNL     1       8.456  43.912  -6.055  1.00  0.00    -0.286 N
HETATM   28  C18 UNL     1       8.813  42.702  -5.533  1.00  0.00     0.264 C
ATOM     29  H6  UNL     1       9.112  44.316  -6.723  1.00  0.00     0.172 HD
HETATM   30  O3  UNL     1       9.838  42.149  -5.969  1.00  0.00    -0.267 OA
BRANCH  19  31
HETATM   31  O1  UNL     1       6.342  41.145  -3.366  1.00  0.00    -0.345 OA
ATOM     32  H1  UNL     1       6.563  41.284  -2.453  1.00  0.00     0.219 HD
ENDBRANCH  19  31
BRANCH  23  33
HETATM   33  C13 UNL     1       3.933  44.757  -4.719  1.00  0.00     0.121 C
BRANCH  33  34
HETATM   34  C14 UNL     1       2.895  44.686  -5.836  1.00  0.00     0.021 C
BRANCH  34  35
HETATM   35  C15 UNL     1       2.408  43.263  -5.994  1.00  0.00     0.029 C
BRANCH  35  36
HETATM   36  C16 UNL     1       2.076  42.759  -4.601  1.00  0.00     0.229 C
BRANCH  36  37
HETATM   37  N5  UNL     1       1.208  41.625  -4.619  1.00  0.00    -0.079 N
ATOM     38  H53 UNL     1       0.253  41.890  -4.381  1.00  0.00     0.274 HD
ATOM     39  H52 UNL     1       1.055  41.296  -5.573  1.00  0.00     0.274 HD
ATOM     40  H51 UNL     1       1.538  40.867  -4.020  1.00  0.00     0.274 HD
ENDBRANCH  36  37
ENDBRANCH  35  36
ENDBRANCH  34  35
ENDBRANCH  33  34
ENDBRANCH  23  33
ENDBRANCH  17  18
ENDBRANCH   4  17
TORSDOF 14
ENDMDL