MODEL 4
REMARK VINA RESULT: -7.522655610      1.930      3.605
REMARK  12 active torsions:
REMARK  status: ('A' for Active; 'I' for Inactive)
REMARK    1  A    between atoms: N1_1  and  C1_4
REMARK    2  A    between atoms: C6_19  and  C7_20
REMARK    3  A    between atoms: C7_20  and  N6_21
REMARK    4  A    between atoms: N6_21  and  C8_24
REMARK    5  A    between atoms: C8_24  and  C9_25
REMARK    6  A    between atoms: C9_25  and  C10_26
REMARK    7  A    between atoms: C10_26  and  C11_27
REMARK    8  A    between atoms: C11_27  and  C12_28
REMARK    9  A    between atoms: C12_28  and  C13_29
REMARK   10  A    between atoms: C13_29  and  C14_30
REMARK   11  A    between atoms: C14_30  and  S1_31
REMARK   12  A    between atoms: S1_31  and  C15_32
ROOT
HETATM    1  C7  UNL     1      10.876  38.479  -5.808  1.00  0.00     0.263 C
ENDROOT
BRANCH   1   2
HETATM    2  C6  UNL     1      10.815  39.098  -4.399  1.00  0.00     0.164 A
HETATM    3  C2  UNL     1       9.800  40.162  -4.481  1.00  0.00     0.083 A
HETATM    4  N2  UNL     1      10.096  41.202  -5.316  1.00  0.00    -0.191 N
HETATM    5  C3  UNL     1       8.621  40.097  -3.774  1.00  0.00     0.131 A
HETATM    6  C1  UNL     1       9.196  42.192  -5.444  1.00  0.00     0.679 A
ATOM      7  H2  UNL     1      10.976  41.226  -5.830  1.00  0.00     0.184 HD
HETATM    8  N3  UNL     1       8.034  42.155  -4.766  1.00  0.00    -0.154 N
HETATM    9  C4  UNL     1       7.722  41.138  -3.936  1.00  0.00     0.288 A
ATOM     10  H3  UNL     1       7.368  42.919  -4.883  1.00  0.00     0.187 HD
HETATM   11  O1  UNL     1       6.649  41.075  -3.290  1.00  0.00    -0.265 OA
HETATM   12  N4  UNL     1       8.324  39.021  -2.891  1.00  0.00    -0.302 N
HETATM   13  C5  UNL     1       9.278  37.985  -2.737  1.00  0.00     0.321 A
ATOM     14  H4  UNL     1       7.443  38.997  -2.380  1.00  0.00     0.171 HD
HETATM   15  O2  UNL     1       9.012  37.026  -1.951  1.00  0.00    -0.247 OA
HETATM   16  N5  UNL     1      10.486  38.058  -3.461  1.00  0.00    -0.331 N
ATOM     17  H5  UNL     1      11.176  37.322  -3.309  1.00  0.00     0.165 HD
BRANCH   6  18
HETATM   18  N1  UNL     1       9.428  43.202  -6.223  1.00  0.00    -0.234 N
ATOM     19  H12 UNL     1       9.046  43.187  -7.168  1.00  0.00     0.174 HD
ATOM     20  H11 UNL     1       9.982  43.994  -5.897  1.00  0.00     0.174 HD
ENDBRANCH   6  18
ENDBRANCH   1   2
BRANCH   1  21
HETATM   21  N6  UNL     1      12.260  38.269  -6.158  1.00  0.00    -0.073 N
ATOM     22  H62 UNL     1      12.879  38.499  -5.380  1.00  0.00     0.277 HD
ATOM     23  H61 UNL     1      12.475  37.276  -6.245  1.00  0.00     0.277 HD
BRANCH  21  24
HETATM   24  C8  UNL     1      12.627  38.989  -7.345  1.00  0.00     0.232 C
BRANCH  24  25
HETATM   25  C9  UNL     1      13.495  38.107  -8.240  1.00  0.00     0.027 C
BRANCH  25  26
HETATM   26  C10 UNL     1      13.271  38.526  -9.664  1.00  0.00     0.002 C
BRANCH  26  27
HETATM   27  C11 UNL     1      13.208  37.323 -10.566  1.00  0.00     0.000 C
BRANCH  27  28
HETATM   28  C12 UNL     1      14.517  36.621 -10.588  1.00  0.00     0.001 C
BRANCH  28  29
HETATM   29  C13 UNL     1      15.281  36.574 -11.856  1.00  0.00     0.010 C
BRANCH  29  30
HETATM   30  C14 UNL     1      15.495  37.806 -12.627  1.00  0.00     0.076 C
BRANCH  30  31
HETATM   31  S1  UNL     1      14.436  38.173 -14.003  1.00  0.00    -0.136 SA
BRANCH  31  32
HETATM   32  C15 UNL     1      14.311  36.890 -15.242  1.00  0.00     0.208 C
HETATM   33  C16 UNL     1      13.460  35.709 -14.865  1.00  0.00     0.275 C
HETATM   34  N7  UNL     1      13.082  35.018 -16.083  1.00  0.00    -0.070 N
HETATM   35  C17 UNL     1      14.076  35.217 -17.080  1.00  0.00     0.258 C
ATOM     36  H72 UNL     1      12.896  34.028 -15.920  1.00  0.00     0.277 HD
ATOM     37  H71 UNL     1      12.154  35.292 -16.407  1.00  0.00     0.277 HD
HETATM   38  C18 UNL     1      15.473  35.357 -16.514  1.00  0.00     0.197 C
HETATM   39  O3  UNL     1      15.574  36.467 -15.685  1.00  0.00    -0.372 OA
ENDBRANCH  31  32
ENDBRANCH  30  31
ENDBRANCH  29  30
ENDBRANCH  28  29
ENDBRANCH  27  28
ENDBRANCH  26  27
ENDBRANCH  25  26
ENDBRANCH  24  25
ENDBRANCH  21  24
ENDBRANCH   1  21
TORSDOF 12
ENDMDL