MODEL 5
REMARK VINA RESULT: -8.155740716      4.209      5.665
REMARK  11 active torsions:
REMARK  status: ('A' for Active; 'I' for Inactive)
REMARK    1  A    between atoms: N1_2  and  C2_5
REMARK       I    between atoms: N2_9  and  C6_10
REMARK    2  A    between atoms: C6_10  and  C7_12
REMARK    3  A    between atoms: C7_12  and  C8_13
REMARK    4  A    between atoms: C8_13  and  C9_14
REMARK    5  A    between atoms: C9_14  and  C10_15
REMARK    6  A    between atoms: C10_15  and  C11_16
REMARK    7  A    between atoms: C11_16  and  N3_17
REMARK    8  A    between atoms: C13_22  and  C14_23
REMARK    9  A    between atoms: C14_23  and  C15_24
REMARK   10  A    between atoms: C16_25  and  C17_26
REMARK   11  A    between atoms: C19_33  and  O3_34
ROOT
HETATM    1  N3  UNL     1      10.895  40.356  -5.429  1.00  0.00    -0.356 N
ATOM      2  H3  UNL     1      10.402  41.062  -4.882  1.00  0.00     0.163 HD
HETATM    3  C12 UNL     1      11.613  40.742  -6.422  1.00  0.00     0.215 C
HETATM    4  N4  UNL     1      12.368  39.919  -7.298  1.00  0.00    -0.349 N
ATOM      5  H4  UNL     1      12.263  38.912  -7.424  1.00  0.00     0.163 HD
HETATM    6  C13 UNL     1      13.311  40.773  -7.975  1.00  0.00     0.112 C
HETATM    7  C20 UNL     1      13.055  42.149  -7.478  1.00  0.00     0.204 C
HETATM    8  O4  UNL     1      11.791  42.079  -6.841  1.00  0.00    -0.320 OA
ENDROOT
BRANCH   1   9
HETATM    9  C11 UNL     1      10.753  38.984  -5.052  1.00  0.00     0.123 C
BRANCH   9  10
HETATM   10  C10 UNL     1      10.017  38.732  -3.770  1.00  0.00     0.020 C
BRANCH  10  11
HETATM   11  C9  UNL     1       8.660  39.300  -3.661  1.00  0.00     0.002 C
BRANCH  11  12
HETATM   12  C8  UNL     1       8.490  40.621  -3.017  1.00  0.00     0.009 C
BRANCH  12  13
HETATM   13  C7  UNL     1       7.416  41.499  -3.559  1.00  0.00     0.103 C
BRANCH  13  14
HETATM   14  C6  UNL     1       7.835  42.406  -4.647  1.00  0.00     0.221 C
HETATM   15  N2  UNL     1       6.891  43.159  -5.378  1.00  0.00    -0.324 N
HETATM   16  C2  UNL     1       5.455  43.150  -5.185  1.00  0.00     0.288 C
HETATM   17  C5  UNL     1       7.212  44.074  -6.451  1.00  0.00     0.128 C
HETATM   18  C3  UNL     1       4.867  44.034  -6.262  1.00  0.00     0.056 C
HETATM   19  C4  UNL     1       5.996  45.008  -6.523  1.00  0.00     0.024 C
HETATM   20  O1  UNL     1       9.048  42.511  -4.925  1.00  0.00    -0.273 OA
BRANCH  16  21
HETATM   21  N1  UNL     1       5.155  43.784  -3.898  1.00  0.00    -0.058 N
HETATM   22  C1  UNL     1       3.933  43.301  -3.328  1.00  0.00     0.269 C
ATOM     23  H12 UNL     1       5.147  44.800  -3.980  1.00  0.00     0.279 HD
ATOM     24  H11 UNL     1       5.932  43.679  -3.246  1.00  0.00     0.279 HD
ENDBRANCH  16  21
ENDBRANCH  13  14
ENDBRANCH  12  13
ENDBRANCH  11  12
ENDBRANCH  10  11
ENDBRANCH   9  10
ENDBRANCH   1   9
BRANCH   6  25
HETATM   25  C14 UNL     1      13.096  40.632  -9.469  1.00  0.00     0.054 C
BRANCH  25  26
HETATM   26  C15 UNL     1      13.285  39.204  -9.893  1.00  0.00    -0.022 C
HETATM   27  C16 UNL     1      13.846  38.968 -11.046  1.00  0.00     0.030 C
BRANCH  27  28
HETATM   28  C17 UNL     1      14.098  37.648 -11.597  1.00  0.00     0.087 A
HETATM   29  N5  UNL     1      13.163  36.663 -11.622  1.00  0.00    -0.305 N
HETATM   30  C18 UNL     1      13.670  35.558 -12.184  1.00  0.00     0.326 A
ATOM     31  H5  UNL     1      12.212  36.751 -11.264  1.00  0.00     0.171 HD
HETATM   32  O2  UNL     1      13.076  34.444 -12.372  1.00  0.00    -0.247 OA
HETATM   33  N6  UNL     1      14.934  35.821 -12.530  1.00  0.00    -0.287 N
HETATM   34  C19 UNL     1      15.207  37.095 -12.176  1.00  0.00     0.171 A
ATOM     35  H6  UNL     1      15.580  35.173 -12.981  1.00  0.00     0.172 HD
BRANCH  34  36
HETATM   36  O3  UNL     1      16.425  37.756 -12.364  1.00  0.00    -0.344 OA
ATOM     37  H3  UNL     1      17.266  37.444 -12.051  1.00  0.00     0.219 HD
ENDBRANCH  34  36
ENDBRANCH  27  28
ENDBRANCH  25  26
ENDBRANCH   6  25
TORSDOF 11
ENDMDL