MODEL 1
REMARK VINA RESULT: -7.615582353      0.000      0.000
REMARK  14 active torsions:
REMARK  status: ('A' for Active; 'I' for Inactive)
REMARK    1  A    between atoms: C2_3  and  N2_4
REMARK    2  A    between atoms: N2_4  and  C3_6
REMARK    3  A    between atoms: C3_6  and  C4_7
REMARK    4  A    between atoms: C4_7  and  C5_8
REMARK    5  A    between atoms: C5_8  and  C6_9
REMARK    6  A    between atoms: C6_9  and  N3_10
REMARK    7  A    between atoms: N3_10  and  C7_12
REMARK    8  A    between atoms: C7_12  and  C8_13
REMARK    9  A    between atoms: C8_13  and  O1_14
REMARK   10  A    between atoms: O1_14  and  C9_15
REMARK   11  A    between atoms: C9_15  and  C10_16
REMARK   12  A    between atoms: C10_16  and  N4_17
REMARK   13  A    between atoms: C18_29  and  N7_30
REMARK   14  A    between atoms: C19_35  and  N9_36
ROOT
HETATM    1  N2  UNL     1      14.486  38.251  -9.691  1.00  0.00    -0.226 N
ATOM      2  H2  UNL     1      15.173  38.937 -10.003  1.00  0.00     0.177 HD
ENDROOT
BRANCH   1   3
HETATM    3  C2  UNL     1      13.710  38.565  -8.724  1.00  0.00     0.682 A
HETATM    4  N1  UNL     1      13.021  39.716  -8.609  1.00  0.00    -0.180 N
HETATM    5  C1  UNL     1      13.039  40.796  -9.556  1.00  0.00     0.176 C
HETATM    6  C20 UNL     1      12.328  39.637  -7.441  1.00  0.00     0.140 A
HETATM    7  C17 UNL     1      12.615  38.406  -6.852  1.00  0.00     0.167 A
HETATM    8  C19 UNL     1      11.465  40.468  -6.773  1.00  0.00     0.146 A
HETATM    9  N5  UNL     1      13.465  37.791  -7.678  1.00  0.00    -0.174 N
HETATM   10  N6  UNL     1      12.089  38.026  -5.693  1.00  0.00    -0.174 N
ATOM     11  H5  UNL     1      13.864  36.865  -7.526  1.00  0.00     0.186 HD
HETATM   12  C18 UNL     1      11.259  38.865  -5.084  1.00  0.00     0.679 A
ATOM     13  H6  UNL     1      12.316  37.119  -5.284  1.00  0.00     0.186 HD
HETATM   14  N8  UNL     1      10.940  40.049  -5.582  1.00  0.00    -0.175 N
ATOM     15  H8  UNL     1      10.297  40.655  -5.072  1.00  0.00     0.186 HD
BRANCH  12  16
HETATM   16  N7  UNL     1      10.741  38.494  -3.950  1.00  0.00    -0.234 N
ATOM     17  H72 UNL     1       9.901  37.916  -3.952  1.00  0.00     0.174 HD
ATOM     18  H71 UNL     1      11.203  38.797  -3.092  1.00  0.00     0.174 HD
ENDBRANCH  12  16
BRANCH   8  19
HETATM   19  N9  UNL     1      11.157  41.595  -7.236  1.00  0.00    -0.383 N
ATOM     20  H92 UNL     1      11.872  42.249  -7.553  1.00  0.00     0.157 HD
ATOM     21  H91 UNL     1      10.177  41.872  -7.300  1.00  0.00     0.157 HD
ENDBRANCH   8  19
ENDBRANCH   1   3
BRANCH   1  22
HETATM   22  C3  UNL     1      14.438  36.984 -10.358  1.00  0.00     0.138 C
BRANCH  22  23
HETATM   23  C4  UNL     1      13.210  37.059 -11.328  1.00  0.00     0.025 C
BRANCH  23  24
HETATM   24  C5  UNL     1      13.393  35.905 -12.243  1.00  0.00     0.046 C
BRANCH  24  25
HETATM   25  C6  UNL     1      13.616  36.101 -13.682  1.00  0.00     0.055 C
BRANCH  25  26
HETATM   26  N3  UNL     1      14.904  35.954 -14.176  1.00  0.00    -0.400 N
ATOM     27  H3  UNL     1      15.203  35.061 -14.567  1.00  0.00     0.158 HD
BRANCH  26  28
HETATM   28  C7  UNL     1      15.791  37.035 -14.134  1.00  0.00     0.145 C
BRANCH  28  29
HETATM   29  C8  UNL     1      16.987  36.696 -13.211  1.00  0.00     0.187 C
BRANCH  29  30
HETATM   30  O1  UNL     1      17.776  37.794 -12.996  1.00  0.00    -0.388 OA
BRANCH  30  31
HETATM   31  C9  UNL     1      17.139  39.000 -13.004  1.00  0.00     0.182 C
BRANCH  31  32
HETATM   32  C10 UNL     1      18.130  40.166 -12.966  1.00  0.00     0.122 C
BRANCH  32  33
HETATM   33  N4  UNL     1      18.102  40.740 -11.667  1.00  0.00    -0.281 NA
HETATM   34  C11 UNL     1      19.127  41.817 -11.502  1.00  0.00     0.174 C
HETATM   35  C12 UNL     1      18.590  42.779 -10.626  1.00  0.00    -0.168 C
HETATM   36  C13 UNL     1      17.922  43.655  -9.760  1.00  0.00     0.085 C
HETATM   37  C14 UNL     1      16.476  43.077  -9.571  1.00  0.00     0.039 C
HETATM   38  C15 UNL     1      16.378  41.633 -10.029  1.00  0.00    -0.014 C
HETATM   39  C16 UNL     1      16.758  41.180 -11.341  1.00  0.00     0.056 C
ENDBRANCH  32  33
ENDBRANCH  31  32
ENDBRANCH  30  31
ENDBRANCH  29  30
ENDBRANCH  28  29
ENDBRANCH  26  28
ENDBRANCH  25  26
ENDBRANCH  24  25
ENDBRANCH  23  24
ENDBRANCH  22  23
ENDBRANCH   1  22
TORSDOF 14
ENDMDL