MODEL 5
REMARK VINA RESULT: -6.379713541      4.862      9.529
REMARK  17 active torsions:
REMARK  status: ('A' for Active; 'I' for Inactive)
REMARK    1  A    between atoms: C2_2  and  C3_3
REMARK    2  A    between atoms: C3_3  and  C4_4
REMARK    3  A    between atoms: C4_4  and  C5_5
REMARK    4  A    between atoms: C5_5  and  C6_6
REMARK    5  A    between atoms: C6_6  and  C7_7
REMARK    6  A    between atoms: C7_7  and  C8_8
REMARK    7  A    between atoms: C8_8  and  N1_9
REMARK    8  A    between atoms: N1_9  and  C9_10
REMARK    9  A    between atoms: N1_9  and  C11_12
REMARK   10  A    between atoms: C11_12  and  C12_13
REMARK   11  A    between atoms: C13_15  and  C14_16
REMARK   12  A    between atoms: C14_16  and  O2_17
REMARK   13  A    between atoms: C15_19  and  N2_20
REMARK   14  A    between atoms: N2_20  and  C16_21
REMARK   15  A    between atoms: C19_26  and  N4_27
REMARK   16  A    between atoms: C20_32  and  O3_33
REMARK   17  A    between atoms: C21_35  and  O4_36
ROOT
HETATM    1  C12 UNL     1      14.287  39.242 -11.534  1.00  0.00     0.181 C
HETATM    2  O1  UNL     1      13.472  38.147 -11.824  1.00  0.00    -0.371 OA
HETATM    3  C13 UNL     1      14.137  36.953 -11.881  1.00  0.00     0.184 C
HETATM    4  C15 UNL     1      15.276  36.958 -12.886  1.00  0.00     0.227 C
HETATM    5  C20 UNL     1      16.103  38.234 -12.755  1.00  0.00     0.188 C
HETATM    6  C21 UNL     1      15.703  38.861 -11.388  1.00  0.00     0.180 C
ENDROOT
BRANCH   1   7
HETATM    7  C11 UNL     1      13.707  40.154 -10.531  1.00  0.00     0.306 C
BRANCH   7   8
HETATM    8  N1  UNL     1      12.950  39.668  -9.459  1.00  0.00     0.090 N
BRANCH   8   9
HETATM    9  C8  UNL     1      12.387  40.820  -8.722  1.00  0.00     0.272 C
BRANCH   9  10
HETATM   10  C7  UNL     1      13.387  41.886  -8.496  1.00  0.00     0.030 C
BRANCH  10  11
HETATM   11  C6  UNL     1      13.342  42.381  -7.069  1.00  0.00     0.002 C
BRANCH  11  12
HETATM   12  C5  UNL     1      14.428  43.381  -6.877  1.00  0.00     0.000 C
BRANCH  12  13
HETATM   13  C4  UNL     1      15.263  43.655  -8.115  1.00  0.00     0.000 C
BRANCH  13  14
HETATM   14  C3  UNL     1      16.494  44.422  -7.805  1.00  0.00    -0.000 C
BRANCH  14  15
HETATM   15  C2  UNL     1      17.493  44.330  -8.919  1.00  0.00    -0.005 C
HETATM   16  C1  UNL     1      17.136  43.210  -9.862  1.00  0.00     0.005 C
ENDBRANCH  14  15
ENDBRANCH  13  14
ENDBRANCH  12  13
ENDBRANCH  11  12
ENDBRANCH  10  11
ENDBRANCH   9  10
ENDBRANCH   8   9
BRANCH   8  17
HETATM   17  C9  UNL     1      13.435  38.681  -8.585  1.00  0.00     0.268 C
HETATM   18  C10 UNL     1      12.628  38.444  -7.328  1.00  0.00     0.037 C
ENDBRANCH   8  17
ENDBRANCH   7   8
ENDBRANCH   1   7
BRANCH   6  19
HETATM   19  O4  UNL     1      16.541  39.976 -11.195  1.00  0.00    -0.390 OA
ATOM     20  H4  UNL     1      17.333  39.754 -10.719  1.00  0.00     0.210 HD
ENDBRANCH   6  19
BRANCH   3  21
HETATM   21  C14 UNL     1      13.143  35.898 -12.302  1.00  0.00     0.199 C
BRANCH  21  22
HETATM   22  O2  UNL     1      13.707  34.634 -12.430  1.00  0.00    -0.398 OA
ATOM     23  H2  UNL     1      13.209  33.956 -11.991  1.00  0.00     0.209 HD
ENDBRANCH  21  22
ENDBRANCH   3  21
BRANCH   5  24
HETATM   24  O3  UNL     1      17.458  37.968 -12.785  1.00  0.00    -0.390 OA
ATOM     25  H3  UNL     1      17.774  37.658 -11.944  1.00  0.00     0.210 HD
ENDBRANCH   5  24
BRANCH   4  26
HETATM   26  N2  UNL     1      14.968  36.712 -14.160  1.00  0.00    -0.419 NA
BRANCH  26  27
HETATM   27  C16 UNL     1      14.884  36.349 -15.305  1.00  0.00     0.189 A
HETATM   28  C17 UNL     1      15.393  37.169 -16.333  1.00  0.00     0.081 A
HETATM   29  C18 UNL     1      15.302  36.755 -17.627  1.00  0.00     0.111 A
HETATM   30  N3  UNL     1      14.728  35.567 -17.946  1.00  0.00    -0.202 N
HETATM   31  C19 UNL     1      14.237  34.772 -16.989  1.00  0.00     0.678 A
ATOM     32  H3  UNL     1      14.671  35.279 -18.923  1.00  0.00     0.183 HD
HETATM   33  N5  UNL     1      14.331  35.180 -15.730  1.00  0.00    -0.165 N
ATOM     34  H5  UNL     1      13.952  34.560 -15.013  1.00  0.00     0.187 HD
BRANCH  31  35
HETATM   35  N4  UNL     1      13.675  33.623 -17.277  1.00  0.00    -0.234 N
ATOM     36  H42 UNL     1      12.663  33.550 -17.370  1.00  0.00     0.174 HD
ATOM     37  H41 UNL     1      14.232  32.779 -17.417  1.00  0.00     0.174 HD
ENDBRANCH  31  35
ENDBRANCH  26  27
ENDBRANCH   4  26
TORSDOF 17
ENDMDL