MODEL 2
REMARK VINA RESULT: -6.901660292      2.827      5.335
REMARK  18 active torsions:
REMARK  status: ('A' for Active; 'I' for Inactive)
REMARK    1  A    between atoms: C4_9  and  C5_10
REMARK    2  A    between atoms: C5_10  and  C6_11
REMARK    3  A    between atoms: C6_11  and  C7_12
REMARK    4  A    between atoms: C7_12  and  C8_13
REMARK    5  A    between atoms: C8_13  and  C9_14
REMARK    6  A    between atoms: C9_14  and  C10_15
REMARK    7  A    between atoms: C10_15  and  C11_16
REMARK    8  A    between atoms: C11_16  and  C12_17
REMARK    9  A    between atoms: C12_17  and  C13_18
REMARK   10  A    between atoms: C13_18  and  C14_19
REMARK   11  A    between atoms: C14_19  and  O1_20
REMARK   12  A    between atoms: O1_20  and  C15_21
REMARK   13  A    between atoms: C15_21  and  C16_22
REMARK   14  A    between atoms: C17_24  and  C18_25
REMARK   15  A    between atoms: C18_25  and  O3_26
REMARK   16  A    between atoms: C19_28  and  O4_29
REMARK   17  A    between atoms: C20_31  and  O5_32
REMARK   18  A    between atoms: C21_34  and  O6_35
ROOT
HETATM    1  C12 UNL     1      12.648  42.828  -9.936  1.00  0.00     0.002 C
ENDROOT
BRANCH   1   2
HETATM    2  C11 UNL     1      11.609  42.064  -9.194  1.00  0.00     0.000 C
BRANCH   2   3
HETATM    3  C10 UNL     1      11.439  42.584  -7.797  1.00  0.00     0.000 C
BRANCH   3   4
HETATM    4  C9  UNL     1      11.183  41.455  -6.815  1.00  0.00     0.001 C
BRANCH   4   5
HETATM    5  C8  UNL     1      12.142  40.343  -7.198  1.00  0.00     0.012 C
BRANCH   5   6
HETATM    6  C7  UNL     1      11.446  38.985  -7.022  1.00  0.00     0.094 C
BRANCH   6   7
HETATM    7  C6  UNL     1      11.060  38.791  -5.625  1.00  0.00    -0.098 C
BRANCH   7   8
HETATM    8  C5  UNL     1      10.740  38.651  -4.469  1.00  0.00    -0.030 C
BRANCH   8   9
HETATM    9  C4  UNL     1      10.339  38.495  -3.082  1.00  0.00     0.162 A
HETATM   10  N2  UNL     1      10.336  39.545  -2.236  1.00  0.00    -0.345 N
HETATM   11  C3  UNL     1       9.971  39.435  -0.948  1.00  0.00     0.094 A
ATOM     12  H2  UNL     1      10.623  40.458  -2.589  1.00  0.00     0.167 HD
HETATM   13  C2  UNL     1       9.588  38.197  -0.488  1.00  0.00     0.065 A
HETATM   14  C1  UNL     1       9.577  37.104  -1.317  1.00  0.00     0.101 A
HETATM   15  N1  UNL     1       9.213  35.968  -0.849  1.00  0.00    -0.385 N
HETATM   16  N3  UNL     1       9.958  37.302  -2.592  1.00  0.00    -0.322 N
ATOM     17  H12 UNL     1       8.925  35.818   0.117  1.00  0.00     0.157 HD
ATOM     18  H11 UNL     1       9.206  35.156  -1.465  1.00  0.00     0.157 HD
ATOM     19  H3  UNL     1       9.958  36.501  -3.224  1.00  0.00     0.169 HD
ENDBRANCH   8   9
ENDBRANCH   7   8
ENDBRANCH   6   7
ENDBRANCH   5   6
ENDBRANCH   4   5
ENDBRANCH   3   4
ENDBRANCH   2   3
ENDBRANCH   1   2
BRANCH   1  20
HETATM   20  C13 UNL     1      13.742  42.032 -10.550  1.00  0.00     0.026 C
BRANCH  20  21
HETATM   21  C14 UNL     1      14.657  41.327  -9.610  1.00  0.00     0.167 C
BRANCH  21  22
HETATM   22  O1  UNL     1      14.870  39.996  -9.842  1.00  0.00    -0.389 OA
BRANCH  22  23
HETATM   23  C15 UNL     1      13.900  39.395 -10.598  1.00  0.00     0.202 C
BRANCH  23  24
HETATM   24  C16 UNL     1      14.392  38.318 -11.520  1.00  0.00     0.177 C
HETATM   25  O2  UNL     1      13.301  37.710 -12.102  1.00  0.00    -0.371 OA
HETATM   26  C17 UNL     1      13.592  36.661 -12.934  1.00  0.00     0.177 C
HETATM   27  C19 UNL     1      14.670  36.922 -13.933  1.00  0.00     0.180 C
HETATM   28  C20 UNL     1      15.814  37.738 -13.402  1.00  0.00     0.180 C
HETATM   29  C21 UNL     1      15.191  38.937 -12.676  1.00  0.00     0.180 C
BRANCH  26  30
HETATM   30  C18 UNL     1      13.822  35.410 -12.113  1.00  0.00     0.198 C
BRANCH  30  31
HETATM   31  O3  UNL     1      13.021  34.354 -12.499  1.00  0.00    -0.398 OA
ATOM     32  H3  UNL     1      13.187  33.560 -12.004  1.00  0.00     0.209 HD
ENDBRANCH  30  31
ENDBRANCH  26  30
BRANCH  27  33
HETATM   33  O4  UNL     1      15.077  35.741 -14.522  1.00  0.00    -0.390 OA
ATOM     34  H4  UNL     1      15.543  35.918 -15.332  1.00  0.00     0.210 HD
ENDBRANCH  27  33
BRANCH  28  35
HETATM   35  O5  UNL     1      16.535  37.030 -12.443  1.00  0.00    -0.390 OA
ATOM     36  H5  UNL     1      17.278  36.584 -12.831  1.00  0.00     0.210 HD
ENDBRANCH  28  35
BRANCH  29  37
HETATM   37  O6  UNL     1      16.137  39.829 -12.235  1.00  0.00    -0.390 OA
ATOM     38  H6  UNL     1      16.997  39.647 -12.593  1.00  0.00     0.210 HD
ENDBRANCH  29  37
ENDBRANCH  23  24
ENDBRANCH  22  23
ENDBRANCH  21  22
ENDBRANCH  20  21
ENDBRANCH   1  20
TORSDOF 18
ENDMDL