MODEL 2
REMARK VINA RESULT: -6.555862103      4.635      6.458
REMARK  15 active torsions:
REMARK  status: ('A' for Active; 'I' for Inactive)
REMARK    1  A    between atoms: O1_1  and  C1_3
REMARK    2  A    between atoms: C1_3  and  C2_4
REMARK    3  A    between atoms: C2_4  and  N1_5
REMARK    4  A    between atoms: N1_5  and  C3_8
REMARK    5  A    between atoms: C3_8  and  C4_9
REMARK    6  A    between atoms: C4_9  and  N2_10
REMARK    7  A    between atoms: N2_10  and  C5_12
REMARK    8  A    between atoms: C5_12  and  C6_13
REMARK    9  A    between atoms: C6_13  and  C7_14
REMARK   10  A    between atoms: C7_14  and  O2_15
REMARK   11  A    between atoms: O2_15  and  C8_16
REMARK   12  A    between atoms: C9_18  and  C10_19
REMARK   13  A    between atoms: C20_29  and  C21_30
REMARK   14  A    between atoms: C21_30  and  O4_31
REMARK   15  A    between atoms: C22_33  and  O5_34
ROOT
HETATM    1  C8  UNL     1      15.000  38.698 -11.955  1.00  0.00     0.289 C
HETATM    2  O3  UNL     1      14.697  38.703 -13.285  1.00  0.00    -0.352 OA
HETATM    3  C9  UNL     1      13.839  37.639 -13.600  1.00  0.00     0.142 C
HETATM    4  C20 UNL     1      13.603  36.940 -12.371  1.00  0.00     0.073 C
HETATM    5  C22 UNL     1      14.874  37.235 -11.592  1.00  0.00     0.181 C
ENDROOT
BRANCH   1   6
HETATM    6  O2  UNL     1      14.113  39.527 -11.305  1.00  0.00    -0.358 OA
BRANCH   6   7
HETATM    7  C7  UNL     1      14.704  40.522 -10.554  1.00  0.00     0.176 C
BRANCH   7   8
HETATM    8  C6  UNL     1      14.000  40.983  -9.355  1.00  0.00     0.070 C
BRANCH   8   9
HETATM    9  C5  UNL     1      12.744  40.321  -8.913  1.00  0.00     0.057 C
BRANCH   9  10
HETATM   10  N2  UNL     1      12.698  38.959  -8.641  1.00  0.00    -0.401 N
ATOM     11  H2  UNL     1      12.623  38.313  -9.426  1.00  0.00     0.158 HD
BRANCH  10  12
HETATM   12  C4  UNL     1      12.747  38.426  -7.350  1.00  0.00     0.146 C
BRANCH  12  13
HETATM   13  C3  UNL     1      11.637  38.990  -6.449  1.00  0.00     0.251 C
BRANCH  13  14
HETATM   14  N1  UNL     1      11.646  38.445  -5.135  1.00  0.00    -0.072 N
ATOM     15  H12 UNL     1      12.356  38.891  -4.553  1.00  0.00     0.277 HD
ATOM     16  H11 UNL     1      12.011  37.493  -5.130  1.00  0.00     0.277 HD
BRANCH  14  17
HETATM   17  C2  UNL     1      10.354  38.512  -4.523  1.00  0.00     0.258 C
BRANCH  17  18
HETATM   18  C1  UNL     1      10.427  38.859  -3.036  1.00  0.00     0.191 C
BRANCH  18  19
HETATM   19  O1  UNL     1      11.735  39.206  -2.703  1.00  0.00    -0.399 OA
ATOM     20  H1  UNL     1      12.069  38.598  -2.053  1.00  0.00     0.209 HD
ENDBRANCH  18  19
ENDBRANCH  17  18
ENDBRANCH  14  17
ENDBRANCH  13  14
ENDBRANCH  12  13
ENDBRANCH  10  12
ENDBRANCH   9  10
ENDBRANCH   8   9
ENDBRANCH   7   8
ENDBRANCH   6   7
ENDBRANCH   1   6
BRANCH   5  21
HETATM   21  O5  UNL     1      14.700  37.044 -10.230  1.00  0.00    -0.390 OA
ATOM     22  H5  UNL     1      15.486  36.713  -9.808  1.00  0.00     0.210 HD
ENDBRANCH   5  21
BRANCH   3  23
HETATM   23  C10 UNL     1      14.415  37.035 -14.820  1.00  0.00    -0.013 C
HETATM   24  C11 UNL     1      15.833  36.586 -14.761  1.00  0.00     0.017 C
HETATM   25  C12 UNL     1      16.303  36.106 -16.108  1.00  0.00    -0.013 C
HETATM   26  C13 UNL     1      16.418  37.302 -17.018  1.00  0.00     0.009 C
HETATM   27  C17 UNL     1      15.370  35.112 -16.738  1.00  0.00     0.009 C
HETATM   28  C14 UNL     1      15.050  37.932 -17.097  1.00  0.00    -0.013 C
HETATM   29  C15 UNL     1      14.142  36.963 -17.826  1.00  0.00     0.009 C
HETATM   30  C19 UNL     1      14.487  38.270 -15.765  1.00  0.00     0.017 C
HETATM   31  C16 UNL     1      13.999  35.766 -16.948  1.00  0.00    -0.013 C
HETATM   32  C18 UNL     1      13.498  36.104 -15.550  1.00  0.00     0.017 C
ENDBRANCH   3  23
BRANCH   4  33
HETATM   33  C21 UNL     1      13.054  35.603 -12.229  1.00  0.00     0.174 C
BRANCH  33  34
HETATM   34  O4  UNL     1      14.095  34.678 -12.119  1.00  0.00    -0.400 OA
ATOM     35  H4  UNL     1      14.275  34.299 -12.972  1.00  0.00     0.209 HD
ENDBRANCH  33  34
ENDBRANCH   4  33
TORSDOF 15
ENDMDL