MODEL 2
REMARK VINA RESULT: -9.169437520      1.835      8.173
REMARK  6 active torsions:
REMARK  status: ('A' for Active; 'I' for Inactive)
REMARK    1  A    between atoms: O1_2  and  C2_3
REMARK    2  A    between atoms: C3_4  and  C4_5
REMARK    3  A    between atoms: C4_5  and  C5_6
REMARK    4  A    between atoms: C9_10  and  O2_11
REMARK    5  A    between atoms: C12_15  and  C13_16
REMARK    6  A    between atoms: C19_24  and  C20_25
ROOT
HETATM    1  C2  UNL     1      37.705  23.884  53.864  1.00  0.00     0.092 A
HETATM    2  C3  UNL     1      37.855  24.869  52.907  1.00  0.00     0.014 A
HETATM    3  C9  UNL     1      36.794  25.698  52.628  1.00  0.00     0.090 A
HETATM    4  C10 UNL     1      35.579  25.573  53.275  1.00  0.00     0.067 A
HETATM    5  C11 UNL     1      35.471  24.566  54.234  1.00  0.00     0.049 A
HETATM    6  C12 UNL     1      36.487  23.701  54.565  1.00  0.00     0.059 A
HETATM    7  C15 UNL     1      34.276  24.359  55.040  1.00  0.00     0.195 C
HETATM    8  O4  UNL     1      34.123  23.227  55.507  1.00  0.00    -0.287 OA
HETATM    9  C16 UNL     1      33.221  25.351  55.368  1.00  0.00     0.029 A
HETATM   10  C17 UNL     1      32.605  25.035  56.552  1.00  0.00     0.017 A
HETATM   11  C18 UNL     1      31.580  25.856  57.021  1.00  0.00     0.008 A
HETATM   12  C19 UNL     1      31.163  26.979  56.328  1.00  0.00    -0.054 A
HETATM   13  C23 UNL     1      31.799  27.272  55.141  1.00  0.00     0.024 A
HETATM   14  C24 UNL     1      32.814  26.467  54.670  1.00  0.00     0.033 A
HETATM   15  C25 UNL     1      33.337  26.967  53.393  1.00  0.00     0.233 C
HETATM   16  O5  UNL     1      32.611  27.796  52.801  1.00  0.00    -0.283 OA
HETATM   17  C26 UNL     1      34.602  26.569  52.803  1.00  0.00     0.236 C
HETATM   18  O6  UNL     1      34.911  27.152  51.744  1.00  0.00    -0.283 OA
ENDROOT
BRANCH   2  19
HETATM   19  C4  UNL     1      39.130  25.009  52.166  1.00  0.00     0.072 C
BRANCH  19  20
HETATM   20  C5  UNL     1      39.846  26.271  52.403  1.00  0.00    -0.020 C
HETATM   21  C6  UNL     1      40.265  27.108  51.436  1.00  0.00    -0.091 C
HETATM   22  C7  UNL     1      40.068  26.885  49.988  1.00  0.00     0.042 C
HETATM   23  C8  UNL     1      40.995  28.373  51.817  1.00  0.00     0.042 C
ENDBRANCH  19  20
ENDBRANCH   2  19
BRANCH   1  24
HETATM   24  O1  UNL     1      38.706  23.034  54.204  1.00  0.00    -0.354 OA
HETATM   25  C1  UNL     1      39.825  23.178  55.005  1.00  0.00     0.210 C
ENDBRANCH   1  24
BRANCH   3  26
HETATM   26  O2  UNL     1      36.865  26.709  51.686  1.00  0.00    -0.359 OA
ATOM     27  H2  UNL     1      36.247  27.430  51.661  1.00  0.00     0.217 HD
ENDBRANCH   3  26
BRANCH   6  28
HETATM   28  C13 UNL     1      36.418  22.674  55.585  1.00  0.00     0.159 C
HETATM   29  C14 UNL     1      36.053  21.259  55.396  1.00  0.00     0.097 C
HETATM   30  O3  UNL     1      36.709  23.017  56.760  1.00  0.00    -0.293 OA
ENDBRANCH   6  28
BRANCH  12  31
HETATM   31  C20 UNL     1      30.062  27.830  56.859  1.00  0.00     0.010 C
HETATM   32  C21 UNL     1      29.612  28.727  55.717  1.00  0.00     0.015 C
HETATM   33  C22 UNL     1      30.546  28.709  57.996  1.00  0.00     0.015 C
ENDBRANCH  12  31
TORSDOF 6
ENDMDL