MODEL 3
REMARK VINA RESULT: -6.566504227      3.217      6.341
REMARK  8 active torsions:
REMARK  status: ('A' for Active; 'I' for Inactive)
REMARK    1  A    between atoms: C2_2  and  O1_3
REMARK    2  A    between atoms: O1_3  and  C3_4
REMARK    3  A    between atoms: C3_4  and  C4_6
REMARK    4  A    between atoms: C4_6  and  N1_7
REMARK       I    between atoms: N1_7  and  C5_9
REMARK    5  A    between atoms: C5_9  and  O4_11
REMARK    6  A    between atoms: O4_11  and  C6_12
REMARK    7  A    between atoms: C17_23  and  C18_24
REMARK    8  A    between atoms: C23_29  and  O5_30
ROOT
HETATM    1  C4  UNL     1      35.045  25.892  53.147  1.00  0.00     0.199 C
HETATM    2  C10 UNL     1      34.468  26.245  51.809  1.00  0.00     0.074 C
HETATM    3  C11 UNL     1      33.835  27.605  51.802  1.00  0.00    -0.031 C
HETATM    4  C12 UNL     1      34.982  28.591  51.574  1.00  0.00     0.016 C
HETATM    5  C13 UNL     1      32.965  27.697  50.545  1.00  0.00     0.016 C
HETATM    6  C14 UNL     1      32.970  27.951  52.960  1.00  0.00     0.003 C
HETATM    7  C15 UNL     1      32.933  29.466  53.108  1.00  0.00     0.022 C
HETATM    8  C16 UNL     1      31.517  27.526  52.633  1.00  0.00     0.022 C
HETATM    9  C17 UNL     1      33.365  27.330  54.239  1.00  0.00     0.029 C
HETATM   10  N2  UNL     1      34.279  26.447  54.213  1.00  0.00    -0.357 N
ATOM     11  H2  UNL     1      34.507  26.062  55.129  1.00  0.00     0.162 HD
ENDROOT
BRANCH   1  12
HETATM   12  C3  UNL     1      35.058  24.388  53.314  1.00  0.00     0.308 C
HETATM   13  O2  UNL     1      34.720  23.594  52.418  1.00  0.00    -0.260 OA
BRANCH  12  14
HETATM   14  O1  UNL     1      35.469  23.901  54.531  1.00  0.00    -0.318 OA
BRANCH  14  15
HETATM   15  C2  UNL     1      36.391  22.848  54.702  1.00  0.00     0.174 C
HETATM   16  C1  UNL     1      37.711  23.451  55.137  1.00  0.00     0.034 C
ENDBRANCH  14  15
ENDBRANCH  12  14
ENDBRANCH   1  12
BRANCH   1  17
HETATM   17  N1  UNL     1      36.405  26.326  53.319  1.00  0.00    -0.301 N
HETATM   18  C5  UNL     1      37.509  25.991  52.497  1.00  0.00     0.363 C
HETATM   19  O3  UNL     1      37.332  25.251  51.508  1.00  0.00    -0.238 OA
ATOM     20  H1  UNL     1      36.594  26.937  54.113  1.00  0.00     0.167 HD
BRANCH  18  21
HETATM   21  O4  UNL     1      38.792  26.455  52.741  1.00  0.00    -0.294 OA
BRANCH  21  22
HETATM   22  C6  UNL     1      39.845  26.376  51.832  1.00  0.00     0.061 C
HETATM   23  C7  UNL     1      40.711  27.600  52.006  1.00  0.00     0.046 C
HETATM   24  C8  UNL     1      39.363  26.305  50.391  1.00  0.00     0.046 C
HETATM   25  C9  UNL     1      40.696  25.160  52.143  1.00  0.00     0.046 C
ENDBRANCH  21  22
ENDBRANCH  18  21
ENDBRANCH   1  17
BRANCH   9  26
HETATM   26  C18 UNL     1      32.747  27.660  55.548  1.00  0.00     0.020 A
HETATM   27  C19 UNL     1      32.693  28.901  56.112  1.00  0.00     0.016 A
HETATM   28  C20 UNL     1      32.135  29.125  57.375  1.00  0.00     0.001 A
HETATM   29  C21 UNL     1      31.620  28.067  58.075  1.00  0.00     0.003 A
HETATM   30  C22 UNL     1      31.671  26.814  57.509  1.00  0.00     0.037 A
HETATM   31  C23 UNL     1      32.218  26.588  56.272  1.00  0.00     0.080 A
BRANCH  31  32
HETATM   32  O5  UNL     1      32.261  25.325  55.719  1.00  0.00    -0.355 OA
HETATM   33  C24 UNL     1      32.597  24.237  56.561  1.00  0.00     0.210 C
ENDBRANCH  31  32
ENDBRANCH   9  26
TORSDOF 8
ENDMDL