MODEL 1
REMARK VINA RESULT: -10.359786215      0.000      0.000
REMARK  5 active torsions:
REMARK  status: ('A' for Active; 'I' for Inactive)
REMARK    1  A    between atoms: C6_7  and  C7_8
REMARK    2  A    between atoms: C11_12  and  N1_13
REMARK    3  A    between atoms: N1_13  and  S1_15
REMARK    4  A    between atoms: S1_15  and  C12_18
REMARK    5  A    between atoms: C17_23  and  N2_24
ROOT
HETATM    1  C7  UNL     1      36.710  23.471  54.897  1.00  0.00    -0.024 A
HETATM    2  C8  UNL     1      36.489  22.263  55.544  1.00  0.00     0.012 A
HETATM    3  C9  UNL     1      35.292  21.923  56.075  1.00  0.00     0.003 A
HETATM    4  C10 UNL     1      34.219  22.818  55.976  1.00  0.00     0.030 A
HETATM    5  C11 UNL     1      34.388  24.017  55.351  1.00  0.00     0.043 A
HETATM    6  C18 UNL     1      35.658  24.327  54.812  1.00  0.00     0.042 A
ENDROOT
BRANCH   5   7
HETATM    7  N1  UNL     1      33.397  24.988  55.174  1.00  0.00    -0.281 N
ATOM      8  H1  UNL     1      32.465  24.669  55.441  1.00  0.00     0.179 HD
BRANCH   7   9
HETATM    9  S1  UNL     1      33.424  26.579  54.609  1.00  0.00     0.265 S
HETATM   10  O2  UNL     1      33.710  26.476  53.087  1.00  0.00    -0.200 OA
HETATM   11  O3  UNL     1      34.584  27.378  55.145  1.00  0.00    -0.200 OA
BRANCH   9  12
HETATM   12  C12 UNL     1      31.936  27.467  54.740  1.00  0.00     0.112 A
HETATM   13  C13 UNL     1      31.439  28.093  53.574  1.00  0.00     0.028 A
HETATM   14  C14 UNL     1      30.222  28.720  53.510  1.00  0.00     0.002 A
HETATM   15  C15 UNL     1      29.431  28.749  54.635  1.00  0.00     0.003 A
HETATM   16  C16 UNL     1      29.863  28.161  55.790  1.00  0.00     0.038 A
HETATM   17  C17 UNL     1      31.125  27.519  55.838  1.00  0.00     0.126 A
BRANCH  17  18
HETATM   18  N2  UNL     1      31.444  27.006  57.113  1.00  0.00    -0.114 N
HETATM   19  O4  UNL     1      31.449  25.809  57.348  1.00  0.00    -0.532 OA
HETATM   20  O5  UNL     1      31.849  27.870  58.097  1.00  0.00    -0.532 OA
ENDBRANCH  17  18
ENDBRANCH   9  12
ENDBRANCH   7   9
ENDBRANCH   5   7
BRANCH   1  21
HETATM   21  C6  UNL     1      38.028  23.764  54.349  1.00  0.00    -0.025 A
HETATM   22  C5  UNL     1      38.254  24.820  53.499  1.00  0.00     0.026 A
HETATM   23  C4  UNL     1      39.532  25.074  52.989  1.00  0.00    -0.001 A
HETATM   24  C3  UNL     1      39.761  26.128  52.141  1.00  0.00     0.020 A
HETATM   25  C21 UNL     1      40.592  24.263  53.333  1.00  0.00     0.089 A
HETATM   26  C2  UNL     1      41.047  26.332  51.667  1.00  0.00     0.083 A
HETATM   27  C1  UNL     1      42.060  25.498  52.040  1.00  0.00     0.288 A
HETATM   28  O1  UNL     1      43.208  25.733  51.577  1.00  0.00    -0.260 OA
HETATM   29  O6  UNL     1      41.812  24.506  52.846  1.00  0.00    -0.275 OA
HETATM   30  C20 UNL     1      40.372  23.207  54.180  1.00  0.00     0.039 A
HETATM   31  C19 UNL     1      39.103  22.976  54.670  1.00  0.00     0.015 A
ENDBRANCH   1  21
TORSDOF 5
ENDMDL