MODEL 2
REMARK VINA RESULT: -9.507733496      2.690      3.657
REMARK  6 active torsions:
REMARK  status: ('A' for Active; 'I' for Inactive)
REMARK    1  A    between atoms: O1_2  and  C2_3
REMARK    2  A    between atoms: C5_6  and  C6_7
REMARK    3  A    between atoms: N1_8  and  N2_10
REMARK    4  A    between atoms: N2_10  and  C7_12
REMARK    5  A    between atoms: C11_21  and  O4_22
REMARK    6  A    between atoms: O4_22  and  C12_23
ROOT
HETATM    1  C7  UNL     1      34.907  23.496  54.803  1.00  0.00     0.129 C
HETATM    2  N3  UNL     1      35.225  24.152  53.762  1.00  0.00    -0.265 N
ATOM      3  H3  UNL     1      36.054  23.797  53.288  1.00  0.00     0.180 HD
HETATM    4  S1  UNL     1      34.525  25.524  53.002  1.00  0.00     0.265 S
HETATM    5  O2  UNL     1      33.613  25.050  51.902  1.00  0.00    -0.200 OA
HETATM    6  O3  UNL     1      35.580  26.411  52.403  1.00  0.00    -0.200 OA
HETATM    7  C8  UNL     1      33.598  26.491  54.120  1.00  0.00     0.090 A
HETATM    8  C9  UNL     1      33.499  27.781  53.674  1.00  0.00     0.029 A
HETATM    9  C10 UNL     1      32.792  28.684  54.447  1.00  0.00     0.039 A
HETATM   10  C11 UNL     1      32.213  28.283  55.623  1.00  0.00     0.076 A
HETATM   11  C18 UNL     1      32.333  26.970  56.041  1.00  0.00     0.050 A
HETATM   12  C19 UNL     1      33.031  26.045  55.293  1.00  0.00    -0.010 A
HETATM   13  C20 UNL     1      33.025  24.743  55.923  1.00  0.00     0.017 C
HETATM   14  C21 UNL     1      33.806  23.723  55.699  1.00  0.00     0.051 C
ENDROOT
BRANCH   1  15
HETATM   15  N2  UNL     1      35.791  22.389  55.085  1.00  0.00    -0.285 N
ATOM     16  H2  UNL     1      35.756  21.526  54.543  1.00  0.00     0.188 HD
BRANCH  15  17
HETATM   17  N1  UNL     1      36.677  22.554  56.110  1.00  0.00    -0.309 N
HETATM   18  C6  UNL     1      37.850  22.963  56.196  1.00  0.00     0.118 C
ATOM     19  H1  UNL     1      36.290  22.278  57.012  1.00  0.00     0.186 HD
BRANCH  18  20
HETATM   20  C5  UNL     1      38.749  23.443  55.161  1.00  0.00    -0.019 A
HETATM   21  C4  UNL     1      39.928  22.738  54.884  1.00  0.00     0.015 A
HETATM   22  C3  UNL     1      40.822  23.138  53.918  1.00  0.00     0.037 A
HETATM   23  C2  UNL     1      40.607  24.264  53.160  1.00  0.00     0.068 A
HETATM   24  C23 UNL     1      39.455  24.970  53.417  1.00  0.00     0.037 A
HETATM   25  C22 UNL     1      38.541  24.569  54.399  1.00  0.00     0.015 A
BRANCH  23  26
HETATM   26  O1  UNL     1      41.515  24.667  52.181  1.00  0.00    -0.356 OA
HETATM   27  C1  UNL     1      41.460  25.990  51.684  1.00  0.00     0.210 C
ENDBRANCH  23  26
ENDBRANCH  18  20
ENDBRANCH  15  17
ENDBRANCH   1  15
BRANCH  10  28
HETATM   28  O4  UNL     1      31.507  29.191  56.391  1.00  0.00    -0.311 OA
BRANCH  28  29
HETATM   29  C12 UNL     1      30.285  28.842  56.944  1.00  0.00     0.076 A
HETATM   30  C13 UNL     1      29.970  29.206  58.232  1.00  0.00     0.037 A
HETATM   31  C14 UNL     1      28.772  28.879  58.816  1.00  0.00     0.003 A
HETATM   32  C15 UNL     1      27.848  28.159  58.089  1.00  0.00     0.000 A
HETATM   33  C16 UNL     1      28.140  27.783  56.800  1.00  0.00     0.003 A
HETATM   34  C17 UNL     1      29.340  28.119  56.237  1.00  0.00     0.037 A
ENDBRANCH  28  29
ENDBRANCH  10  28
TORSDOF 6
ENDMDL