MODEL 3
REMARK VINA RESULT: -8.904912506      2.152      3.174
REMARK  6 active torsions:
REMARK  status: ('A' for Active; 'I' for Inactive)
REMARK    1  A    between atoms: O1_2  and  C2_3
REMARK    2  A    between atoms: C4_5  and  C5_6
REMARK    3  A    between atoms: C7_8  and  O2_9
REMARK    4  A    between atoms: C17_20  and  O4_21
REMARK    5  A    between atoms: C23_28  and  O5_29
REMARK    6  A    between atoms: C25_31  and  O6_32
ROOT
HETATM    1  C5  UNL     1      35.098  26.629  53.926  1.00  0.00    -0.022 A
HETATM    2  C6  UNL     1      35.601  25.763  54.906  1.00  0.00     0.050 A
HETATM    3  C7  UNL     1      36.819  25.103  54.761  1.00  0.00     0.081 A
HETATM    4  C9  UNL     1      37.490  25.344  53.606  1.00  0.00     0.019 A
HETATM    5  C10 UNL     1      37.021  26.210  52.610  1.00  0.00    -0.015 A
HETATM    6  C11 UNL     1      35.833  26.837  52.781  1.00  0.00     0.025 A
HETATM    7  C12 UNL     1      37.711  26.646  51.478  1.00  0.00    -0.047 C
HETATM    8  C13 UNL     1      36.864  27.044  50.365  1.00  0.00     0.049 C
HETATM    9  C14 UNL     1      39.105  26.740  51.415  1.00  0.00     0.063 C
HETATM   10  C15 UNL     1      40.079  26.153  52.193  1.00  0.00     0.186 C
HETATM   11  O3  UNL     1      41.217  26.608  52.260  1.00  0.00    -0.287 OA
HETATM   12  C16 UNL     1      39.876  25.011  52.956  1.00  0.00     0.058 A
HETATM   13  C17 UNL     1      40.951  24.186  53.032  1.00  0.00     0.080 A
HETATM   14  C18 UNL     1      40.835  22.955  53.640  1.00  0.00     0.037 A
HETATM   15  C19 UNL     1      39.613  22.567  54.170  1.00  0.00     0.004 A
HETATM   16  C20 UNL     1      38.495  23.379  54.114  1.00  0.00     0.013 A
HETATM   17  C21 UNL     1      38.647  24.587  53.517  1.00  0.00    -0.005 A
ENDROOT
BRANCH   1  18
HETATM   18  C4  UNL     1      33.817  27.307  54.100  1.00  0.00    -0.020 A
HETATM   19  C3  UNL     1      32.899  27.333  53.078  1.00  0.00     0.052 A
HETATM   20  C2  UNL     1      31.669  27.960  53.184  1.00  0.00     0.105 A
HETATM   21  C25 UNL     1      31.383  28.578  54.386  1.00  0.00     0.135 A
HETATM   22  C23 UNL     1      32.282  28.578  55.452  1.00  0.00     0.105 A
HETATM   23  C22 UNL     1      33.469  27.942  55.275  1.00  0.00     0.052 A
BRANCH  20  24
HETATM   24  O1  UNL     1      30.753  27.976  52.139  1.00  0.00    -0.353 OA
HETATM   25  C1  UNL     1      30.989  27.141  51.020  1.00  0.00     0.210 C
ENDBRANCH  20  24
BRANCH  21  26
HETATM   26  O6  UNL     1      30.146  29.211  54.502  1.00  0.00    -0.351 OA
HETATM   27  C26 UNL     1      29.027  28.532  55.066  1.00  0.00     0.210 C
ENDBRANCH  21  26
BRANCH  22  28
HETATM   28  O5  UNL     1      31.883  29.225  56.595  1.00  0.00    -0.353 OA
HETATM   29  C24 UNL     1      31.658  28.637  57.839  1.00  0.00     0.210 C
ENDBRANCH  22  28
ENDBRANCH   1  18
BRANCH   3  30
HETATM   30  O2  UNL     1      37.306  24.279  55.732  1.00  0.00    -0.355 OA
HETATM   31  C8  UNL     1      36.548  23.264  56.395  1.00  0.00     0.210 C
ENDBRANCH   3  30
BRANCH  13  32
HETATM   32  O4  UNL     1      42.132  24.667  52.467  1.00  0.00    -0.360 OA
ATOM     33  H4  UNL     1      42.886  24.705  53.045  1.00  0.00     0.217 HD
ENDBRANCH  13  32
TORSDOF 6
ENDMDL