MODEL 4
REMARK VINA RESULT: -8.732849794      3.358      6.437
REMARK  8 active torsions:
REMARK  status: ('A' for Active; 'I' for Inactive)
REMARK    1  A    between atoms: O1_2  and  C2_3
REMARK    2  A    between atoms: C5_6  and  N1_7
REMARK    3  A    between atoms: C7_10  and  C8_11
REMARK    4  A    between atoms: C8_11  and  C9_12
REMARK    5  A    between atoms: C13_16  and  O3_17
REMARK    6  A    between atoms: C16_22  and  N2_23
REMARK    7  A    between atoms: N2_23  and  C17_25
REMARK    8  A    between atoms: C21_29  and  O5_30
ROOT
HETATM    1  N1  UNL     1      34.854  26.605  53.617  1.00  0.00    -0.260 N
HETATM    2  C6  UNL     1      36.223  26.501  54.042  1.00  0.00     0.268 A
HETATM    3  O2  UNL     1      36.620  26.690  55.245  1.00  0.00    -0.267 OA
HETATM    4  C7  UNL     1      37.032  26.163  52.899  1.00  0.00     0.087 A
HETATM    5  C15 UNL     1      36.122  26.052  51.715  1.00  0.00     0.232 A
HETATM    6  O4  UNL     1      36.494  25.770  50.550  1.00  0.00    -0.283 OA
HETATM    7  C16 UNL     1      34.803  26.336  52.232  1.00  0.00     0.168 A
ENDROOT
BRANCH   7   8
HETATM    8  N2  UNL     1      33.715  26.351  51.546  1.00  0.00    -0.339 N
ATOM      9  H2  UNL     1      33.457  25.473  51.094  1.00  0.00     0.167 HD
BRANCH   8  10
HETATM   10  C17 UNL     1      32.848  27.423  51.347  1.00  0.00     0.036 A
HETATM   11  C18 UNL     1      33.261  28.695  51.035  1.00  0.00     0.029 A
HETATM   12  C19 UNL     1      32.324  29.687  50.859  1.00  0.00     0.005 A
HETATM   13  C20 UNL     1      30.955  29.461  50.984  1.00  0.00     0.037 A
HETATM   14  C21 UNL     1      30.535  28.184  51.299  1.00  0.00     0.070 A
HETATM   15  C23 UNL     1      31.493  27.209  51.469  1.00  0.00     0.066 A
BRANCH  14  16
HETATM   16  O5  UNL     1      29.176  27.970  51.421  1.00  0.00    -0.356 OA
HETATM   17  C22 UNL     1      28.348  27.596  50.337  1.00  0.00     0.210 C
ENDBRANCH  14  16
ENDBRANCH   8  10
ENDBRANCH   7   8
BRANCH   1  18
HETATM   18  C5  UNL     1      33.771  26.921  54.481  1.00  0.00     0.044 A
HETATM   19  C4  UNL     1      33.149  25.849  55.110  1.00  0.00     0.033 A
HETATM   20  C3  UNL     1      32.087  26.077  55.963  1.00  0.00     0.039 A
HETATM   21  C2  UNL     1      31.651  27.377  56.184  1.00  0.00     0.068 A
HETATM   22  C25 UNL     1      32.284  28.421  55.549  1.00  0.00     0.039 A
HETATM   23  C24 UNL     1      33.350  28.192  54.693  1.00  0.00     0.033 A
BRANCH  21  24
HETATM   24  O1  UNL     1      30.588  27.628  57.037  1.00  0.00    -0.356 OA
HETATM   25  C1  UNL     1      30.548  28.730  57.911  1.00  0.00     0.210 C
ENDBRANCH  21  24
ENDBRANCH   1  18
BRANCH   4  26
HETATM   26  C8  UNL     1      38.333  25.942  52.815  1.00  0.00     0.032 C
BRANCH  26  27
HETATM   27  C9  UNL     1      39.068  24.853  53.398  1.00  0.00    -0.033 A
HETATM   28  C10 UNL     1      40.392  24.550  53.183  1.00  0.00     0.011 A
HETATM   29  C11 UNL     1      41.013  23.464  53.767  1.00  0.00     0.004 A
HETATM   30  C12 UNL     1      40.329  22.616  54.611  1.00  0.00     0.036 A
HETATM   31  C13 UNL     1      39.002  22.909  54.836  1.00  0.00     0.066 A
HETATM   32  C14 UNL     1      38.381  23.978  54.263  1.00  0.00     0.048 A
BRANCH  31  33
HETATM   33  O3  UNL     1      38.312  22.038  55.700  1.00  0.00    -0.361 OA
ATOM     34  H3  UNL     1      38.781  21.763  56.479  1.00  0.00     0.217 HD
ENDBRANCH  31  33
ENDBRANCH  26  27
ENDBRANCH   4  26
TORSDOF 8
ENDMDL