MODEL 5
REMARK VINA RESULT: -8.876470271      1.522      2.249
REMARK  6 active torsions:
REMARK  status: ('A' for Active; 'I' for Inactive)
REMARK    1  A    between atoms: C3_3  and  N1_4
REMARK    2  A    between atoms: N1_4  and  S1_6
REMARK    3  A    between atoms: S1_6  and  C4_9
REMARK    4  A    between atoms: C7_12  and  C8_13
REMARK    5  A    between atoms: C14_19  and  N2_20
REMARK    6  A    between atoms: N5_28  and  C18_29
ROOT
HETATM    1  C1  UNL     1      36.023  26.067  54.593  1.00  0.00     0.073 C
HETATM    2  C2  UNL     1      36.603  26.371  53.266  1.00  0.00     0.062 A
HETATM    3  C3  UNL     1      36.036  27.295  52.350  1.00  0.00     0.113 A
HETATM    4  C14 UNL     1      36.837  27.281  51.290  1.00  0.00     0.157 A
HETATM    5  N4  UNL     1      37.842  26.387  51.552  1.00  0.00    -0.276 N
ATOM      6  H4  UNL     1      38.603  26.174  50.907  1.00  0.00     0.189 HD
HETATM    7  N5  UNL     1      37.706  25.835  52.741  1.00  0.00    -0.257 N
ENDROOT
BRANCH   3   8
HETATM    8  N1  UNL     1      34.823  27.992  52.590  1.00  0.00    -0.275 N
ATOM      9  H1  UNL     1      34.924  28.972  52.856  1.00  0.00     0.179 HD
BRANCH   8  10
HETATM   10  S1  UNL     1      33.242  27.428  52.496  1.00  0.00     0.263 S
HETATM   11  O1  UNL     1      33.318  25.871  52.460  1.00  0.00    -0.200 OA
HETATM   12  O2  UNL     1      32.623  27.829  51.139  1.00  0.00    -0.200 OA
BRANCH  10  13
HETATM   13  C4  UNL     1      32.098  27.792  53.728  1.00  0.00     0.079 A
HETATM   14  C5  UNL     1      31.046  28.687  53.491  1.00  0.00     0.026 A
HETATM   15  C6  UNL     1      30.058  28.930  54.396  1.00  0.00     0.009 A
HETATM   16  C7  UNL     1      30.030  28.296  55.634  1.00  0.00    -0.051 A
HETATM   17  C12 UNL     1      31.060  27.418  55.885  1.00  0.00     0.009 A
HETATM   18  C13 UNL     1      32.056  27.177  54.965  1.00  0.00     0.026 A
BRANCH  16  19
HETATM   19  C8  UNL     1      28.914  28.542  56.551  1.00  0.00    -0.024 C
HETATM   20  C9  UNL     1      27.862  29.479  55.993  1.00  0.00     0.019 C
HETATM   21  C10 UNL     1      28.232  27.250  56.936  1.00  0.00     0.019 C
HETATM   22  C11 UNL     1      29.476  29.188  57.816  1.00  0.00     0.019 C
ENDBRANCH  16  19
ENDBRANCH  10  13
ENDBRANCH   8  10
ENDBRANCH   3   8
BRANCH   4  23
HETATM   23  N2  UNL     1      36.879  28.022  50.062  1.00  0.00    -0.300 N
HETATM   24  C15 UNL     1      35.789  28.402  49.393  1.00  0.00     0.116 A
HETATM   25  C16 UNL     1      36.165  29.158  48.294  1.00  0.00     0.106 A
HETATM   26  N3  UNL     1      37.501  29.227  48.309  1.00  0.00    -0.360 N
HETATM   27  C17 UNL     1      37.916  28.522  49.403  1.00  0.00     0.189 A
ATOM     28  H3  UNL     1      38.094  29.711  47.635  1.00  0.00     0.166 HD
ENDBRANCH   4  23
BRANCH   7  29
HETATM   29  C18 UNL     1      38.625  24.880  53.269  1.00  0.00     0.056 A
HETATM   30  C19 UNL     1      38.249  23.898  54.150  1.00  0.00     0.031 A
HETATM   31  C20 UNL     1      39.132  22.985  54.682  1.00  0.00     0.002 A
HETATM   32  C21 UNL     1      40.477  23.039  54.320  1.00  0.00     0.000 A
HETATM   33  C22 UNL     1      40.871  24.006  53.445  1.00  0.00     0.002 A
HETATM   34  C23 UNL     1      39.982  24.916  52.921  1.00  0.00     0.031 A
ENDBRANCH   7  29
TORSDOF 6
ENDMDL