MODEL 3
REMARK VINA RESULT: -9.355463308      4.164      9.869
REMARK  5 active torsions:
REMARK  status: ('A' for Active; 'I' for Inactive)
REMARK    1  A    between atoms: C3_4  and  O2_5
REMARK    2  A    between atoms: O2_5  and  C4_6
REMARK    3  A    between atoms: C4_6  and  C5_7
REMARK    4  A    between atoms: C12_14  and  C13_15
REMARK    5  A    between atoms: C16_18  and  C17_19
ROOT
HETATM    1  O1  UNL     1      36.292  20.896  56.004  1.00  0.00    -0.293 OA
HETATM    2  C1  UNL     1      36.331  22.120  55.849  1.00  0.00     0.159 C
HETATM    3  C2  UNL     1      37.343  22.771  55.034  1.00  0.00     0.088 C
HETATM    4  C3  UNL     1      37.082  23.918  54.435  1.00  0.00     0.086 C
HETATM    5  C11 UNL     1      35.758  24.595  54.552  1.00  0.00     0.044 C
HETATM    6  C12 UNL     1      35.528  25.710  53.921  1.00  0.00     0.029 C
HETATM    7  C23 UNL     1      34.796  23.891  55.360  1.00  0.00     0.169 C
HETATM    8  O5  UNL     1      33.568  23.953  55.147  1.00  0.00    -0.292 OA
HETATM    9  C24 UNL     1      35.322  23.045  56.500  1.00  0.00     0.167 C
ENDROOT
BRANCH   4  10
HETATM   10  O2  UNL     1      38.018  24.577  53.650  1.00  0.00    -0.346 OA
BRANCH  10  11
HETATM   11  C4  UNL     1      39.372  24.181  53.757  1.00  0.00     0.214 C
BRANCH  11  12
HETATM   12  C5  UNL     1      40.283  25.004  52.924  1.00  0.00    -0.034 A
HETATM   13  C6  UNL     1      39.830  26.170  52.341  1.00  0.00     0.009 A
HETATM   14  C7  UNL     1      40.624  26.985  51.558  1.00  0.00     0.001 A
HETATM   15  C8  UNL     1      41.930  26.570  51.378  1.00  0.00     0.000 A
HETATM   16  C9  UNL     1      42.432  25.418  51.935  1.00  0.00     0.001 A
HETATM   17  C10 UNL     1      41.594  24.645  52.707  1.00  0.00     0.009 A
ENDBRANCH  11  12
ENDBRANCH  10  11
ENDBRANCH   4  10
BRANCH   6  18
HETATM   18  C13 UNL     1      34.291  26.451  53.972  1.00  0.00    -0.035 A
HETATM   19  C14 UNL     1      33.299  26.353  53.002  1.00  0.00     0.012 A
HETATM   20  C15 UNL     1      32.130  27.069  53.075  1.00  0.00     0.012 A
HETATM   21  C16 UNL     1      31.888  27.933  54.139  1.00  0.00    -0.035 A
HETATM   22  C21 UNL     1      32.843  28.047  55.103  1.00  0.00     0.012 A
HETATM   23  C22 UNL     1      34.004  27.322  55.009  1.00  0.00     0.012 A
BRANCH  21  24
HETATM   24  C17 UNL     1      30.649  28.702  54.212  1.00  0.00     0.036 C
HETATM   25  C18 UNL     1      29.770  28.655  55.163  1.00  0.00     0.079 A
HETATM   26  S1  UNL     1      29.856  27.639  56.619  1.00  0.00    -0.024 SA
HETATM   27  C20 UNL     1      28.533  29.381  55.295  1.00  0.00     0.266 A
HETATM   28  C19 UNL     1      28.425  28.345  57.439  1.00  0.00     0.291 A
HETATM   29  O3  UNL     1      28.056  28.093  58.618  1.00  0.00    -0.260 OA
HETATM   30  N1  UNL     1      27.848  29.209  56.483  1.00  0.00    -0.283 N
ATOM     31  H1  UNL     1      26.963  29.685  56.662  1.00  0.00     0.172 HD
HETATM   32  O4  UNL     1      28.123  30.138  54.338  1.00  0.00    -0.267 OA
ENDBRANCH  21  24
ENDBRANCH   6  18
TORSDOF 5
ENDMDL