MODEL 1
REMARK VINA RESULT: -9.262964336      0.000      0.000
REMARK  6 active torsions:
REMARK  status: ('A' for Active; 'I' for Inactive)
REMARK    1  A    between atoms: C2_2  and  C3_3
REMARK    2  A    between atoms: C3_3  and  N1_4
REMARK    3  A    between atoms: C6_11  and  C7_12
REMARK    4  A    between atoms: N3_14  and  C9_15
REMARK    5  A    between atoms: C15_23  and  C16_24
REMARK    6  A    between atoms: C19_27  and  N5_28
ROOT
HETATM    1  C7  UNL     1      36.064  26.683  53.535  1.00  0.00     0.012 A
HETATM    2  C8  UNL     1      36.657  25.743  54.352  1.00  0.00     0.130 A
HETATM    3  N3  UNL     1      37.618  25.091  53.670  1.00  0.00    -0.266 N
HETATM    4  N4  UNL     1      37.626  25.618  52.448  1.00  0.00    -0.293 N
ATOM      5  H4  UNL     1      38.255  25.325  51.701  1.00  0.00     0.187 HD
HETATM    6  C15 UNL     1      36.701  26.586  52.324  1.00  0.00     0.070 A
ENDROOT
BRANCH   1   7
HETATM    7  C6  UNL     1      34.993  27.575  53.959  1.00  0.00     0.040 C
HETATM    8  C5  UNL     1      33.868  27.154  54.479  1.00  0.00     0.077 C
HETATM    9  S1  UNL     1      33.444  25.440  54.767  1.00  0.00    -0.049 SA
HETATM   10  C22 UNL     1      32.737  27.901  54.932  1.00  0.00     0.267 C
HETATM   11  C4  UNL     1      32.198  25.852  56.022  1.00  0.00     0.148 C
HETATM   12  N1  UNL     1      31.855  27.193  55.754  1.00  0.00    -0.290 N
HETATM   13  N2  UNL     1      31.802  25.024  56.902  1.00  0.00    -0.379 N
ATOM     14  H22 UNL     1      31.102  25.256  57.607  1.00  0.00     0.158 HD
ATOM     15  H21 UNL     1      32.050  24.054  57.097  1.00  0.00     0.158 HD
HETATM   16  O3  UNL     1      32.572  29.122  54.594  1.00  0.00    -0.266 OA
BRANCH  12  17
HETATM   17  C3  UNL     1      30.619  27.767  56.319  1.00  0.00     0.161 C
BRANCH  17  18
HETATM   18  C2  UNL     1      30.976  28.378  57.608  1.00  0.00    -0.017 C
HETATM   19  C1  UNL     1      30.070  28.827  58.444  1.00  0.00     0.008 C
ENDBRANCH  17  18
ENDBRANCH  12  17
ENDBRANCH   1   7
BRANCH   6  20
HETATM   20  C16 UNL     1      36.405  27.423  51.171  1.00  0.00    -0.007 A
HETATM   21  C17 UNL     1      37.445  27.801  50.358  1.00  0.00     0.016 A
HETATM   22  C18 UNL     1      37.263  28.606  49.247  1.00  0.00     0.037 A
HETATM   23  C19 UNL     1      35.993  29.046  48.941  1.00  0.00     0.102 A
HETATM   24  C20 UNL     1      34.932  28.669  49.755  1.00  0.00     0.037 A
HETATM   25  C21 UNL     1      35.137  27.866  50.859  1.00  0.00     0.016 A
BRANCH  23  26
HETATM   26  N5  UNL     1      35.808  29.871  47.809  1.00  0.00    -0.116 N
HETATM   27  O1  UNL     1      35.882  31.102  47.901  1.00  0.00    -0.532 OA
HETATM   28  O2  UNL     1      35.539  29.302  46.596  1.00  0.00    -0.532 OA
ENDBRANCH  23  26
ENDBRANCH   6  20
BRANCH   3  29
HETATM   29  C9  UNL     1      38.450  24.055  54.176  1.00  0.00     0.056 A
HETATM   30  C10 UNL     1      38.044  23.115  55.095  1.00  0.00     0.031 A
HETATM   31  C11 UNL     1      38.934  22.128  55.535  1.00  0.00     0.002 A
HETATM   32  C12 UNL     1      40.226  22.074  55.064  1.00  0.00     0.000 A
HETATM   33  C13 UNL     1      40.615  23.013  54.152  1.00  0.00     0.002 A
HETATM   34  C14 UNL     1      39.762  23.997  53.699  1.00  0.00     0.031 A
ENDBRANCH   3  29
TORSDOF 6
ENDMDL