MODEL 5
REMARK VINA RESULT: -6.598837566      2.745      6.411
REMARK  6 active torsions:
REMARK  status: ('A' for Active; 'I' for Inactive)
REMARK    1  A    between atoms: C2_2  and  C4_4
REMARK    2  A    between atoms: C19_23  and  C20_24
REMARK    3  A    between atoms: C20_24  and  C21_25
REMARK    4  A    between atoms: C21_25  and  C22_26
REMARK    5  A    between atoms: C22_26  and  C23_28
REMARK    6  A    between atoms: C23_28  and  O6_31
ROOT
HETATM    1  C4  UNL     1      32.362  28.284  52.537  1.00  0.00    -0.036 C
HETATM    2  C5  UNL     1      33.513  28.662  51.721  1.00  0.00     0.164 C
HETATM    3  O1  UNL     1      34.538  29.306  52.419  1.00  0.00    -0.350 OA
HETATM    4  C6  UNL     1      35.424  29.620  51.392  1.00  0.00     0.270 C
HETATM    5  O2  UNL     1      34.900  30.660  50.675  1.00  0.00    -0.350 OA
HETATM    6  C7  UNL     1      35.804  31.492  50.078  1.00  0.00     0.057 C
HETATM    7  C8  UNL     1      35.176  32.888  50.026  1.00  0.00     0.045 C
HETATM    8  C9  UNL     1      37.111  31.636  50.800  1.00  0.00     0.045 C
HETATM    9  C10 UNL     1      36.111  31.117  48.648  1.00  0.00     0.037 C
HETATM   10  C11 UNL     1      36.391  29.640  48.496  1.00  0.00     0.004 C
HETATM   11  C12 UNL     1      35.334  28.766  49.052  1.00  0.00     0.015 C
HETATM   12  C13 UNL     1      35.479  28.393  50.504  1.00  0.00     0.017 C
HETATM   13  C14 UNL     1      36.736  27.623  50.786  1.00  0.00     0.021 C
HETATM   14  C15 UNL     1      34.226  27.662  50.915  1.00  0.00     0.087 C
HETATM   15  C16 UNL     1      34.576  26.424  51.701  1.00  0.00     0.275 A
HETATM   16  O3  UNL     1      33.373  25.812  52.050  1.00  0.00    -0.324 OA
HETATM   17  C17 UNL     1      33.607  26.278  53.366  1.00  0.00     0.174 A
HETATM   18  C18 UNL     1      33.682  25.105  54.277  1.00  0.00     0.080 C
HETATM   19  O4  UNL     1      34.829  26.759  53.000  1.00  0.00    -0.324 OA
HETATM   20  C19 UNL     1      32.586  27.310  53.679  1.00  0.00     0.080 C
ENDROOT
BRANCH  20  21
HETATM   21  C20 UNL     1      32.920  28.087  54.904  1.00  0.00     0.022 C
BRANCH  21  22
HETATM   22  C21 UNL     1      31.992  29.018  55.524  1.00  0.00     0.082 C
BRANCH  22  23
HETATM   23  C22 UNL     1      30.657  28.497  55.919  1.00  0.00     0.160 C
HETATM   24  O5  UNL     1      29.710  28.508  55.152  1.00  0.00    -0.295 OA
BRANCH  23  25
HETATM   25  C23 UNL     1      30.424  27.940  57.267  1.00  0.00     0.111 C
HETATM   26  C24 UNL     1      29.114  28.400  57.874  1.00  0.00     0.053 C
HETATM   27  C25 UNL     1      31.557  28.291  58.202  1.00  0.00     0.053 C
BRANCH  25  28
HETATM   28  O6  UNL     1      30.358  26.555  57.171  1.00  0.00    -0.383 OA
ATOM     29  H6  UNL     1      30.636  26.180  57.998  1.00  0.00     0.211 HD
ENDBRANCH  25  28
ENDBRANCH  23  25
ENDBRANCH  22  23
ENDBRANCH  21  22
ENDBRANCH  20  21
BRANCH   1  30
HETATM   30  C2  UNL     1      31.140  28.083  51.744  1.00  0.00    -0.066 C
HETATM   31  C1  UNL     1      30.256  29.111  51.709  1.00  0.00     0.019 C
HETATM   32  C3  UNL     1      30.750  26.884  50.977  1.00  0.00     0.047 C
ENDBRANCH   1  30
TORSDOF 6
ENDMDL