MODEL 4
REMARK VINA RESULT: -7.194408705      3.797      7.437
REMARK  5 active torsions:
REMARK  status: ('A' for Active; 'I' for Inactive)
REMARK       I    between atoms: C1_4  and  N2_5
REMARK       I    between atoms: C1_4  and  N9_31
REMARK    1  A    between atoms: N2_5  and  C2_7
REMARK    2  A    between atoms: C4_13  and  N5_14
REMARK    3  A    between atoms: C8_25  and  C9_26
REMARK    4  A    between atoms: C9_26  and  O2_27
REMARK    5  A    between atoms: N9_31  and  N10_33
ROOT
HETATM    1  C2  UNL     1       4.418  22.809   6.213  1.00  0.00     0.302 C
HETATM    2  N3  UNL     1       4.210  21.523   5.504  1.00  0.00    -0.336 N
ATOM      3  H3  UNL     1       3.866  20.765   6.094  1.00  0.00     0.165 HD
HETATM    4  C3  UNL     1       4.394  21.195   4.247  1.00  0.00     0.152 A
HETATM    5  N4  UNL     1       4.062  19.921   4.108  1.00  0.00    -0.175 N
ATOM      6  H4  UNL     1       3.739  19.375   4.907  1.00  0.00     0.186 HD
HETATM    7  C4  UNL     1       4.164  19.359   2.878  1.00  0.00     0.680 A
HETATM    8  N6  UNL     1       4.595  20.089   1.815  1.00  0.00    -0.154 N
ATOM      9  H6  UNL     1       4.664  19.649   0.897  1.00  0.00     0.187 HD
HETATM   10  C5  UNL     1       4.932  21.382   1.957  1.00  0.00     0.289 A
HETATM   11  O1  UNL     1       5.335  22.086   0.995  1.00  0.00    -0.265 OA
HETATM   12  C6  UNL     1       4.841  21.978   3.190  1.00  0.00     0.142 A
HETATM   13  N7  UNL     1       5.231  23.204   3.103  1.00  0.00    -0.380 N
ATOM     14  H7  UNL     1       5.490  23.438   2.144  1.00  0.00     0.160 HD
HETATM   15  C7  UNL     1       5.406  24.339   3.978  1.00  0.00     0.147 C
HETATM   16  C8  UNL     1       4.224  24.751   4.765  1.00  0.00     0.121 C
HETATM   17  N8  UNL     1       3.557  23.758   5.524  1.00  0.00    -0.377 N
ATOM     18  H8  UNL     1       2.540  23.711   5.583  1.00  0.00     0.157 HD
ENDROOT
BRANCH   1  19
HETATM   19  N2  UNL     1       3.970  22.587   7.561  1.00  0.00    -0.187 N
HETATM   20  C1  UNL     1       4.911  22.550   8.610  1.00  0.00     0.694 C
HETATM   21  N1  UNL     1       6.118  22.181   8.343  1.00  0.00    -0.233 N
HETATM   22  N9  UNL     1       4.558  22.908   9.943  1.00  0.00    -0.072 N
ATOM     23  H12 UNL     1       6.371  21.925   7.388  1.00  0.00     0.174 HD
ATOM     24  H11 UNL     1       6.799  22.155   9.103  1.00  0.00     0.174 HD
ATOM     25  H9  UNL     1       5.208  23.454  10.509  1.00  0.00     0.212 HD
ATOM     26  H2  UNL     1       2.977  22.457   7.758  1.00  0.00     0.181 HD
BRANCH  22  27
HETATM   27  N10 UNL     1       3.317  22.514  10.488  1.00  0.00    -0.024 N
HETATM   28  O3  UNL     1       3.227  21.760  11.476  1.00  0.00    -0.516 OA
HETATM   29  O4  UNL     1       2.155  22.975   9.917  1.00  0.00    -0.516 OA
ENDBRANCH  22  27
ENDBRANCH   1  19
BRANCH  16  30
HETATM   30  C9  UNL     1       3.193  25.320   3.776  1.00  0.00     0.190 C
BRANCH  30  31
HETATM   31  O2  UNL     1       3.900  25.794   2.681  1.00  0.00    -0.399 OA
ATOM     32  H2  UNL     1       3.438  25.502   1.904  1.00  0.00     0.209 HD
ENDBRANCH  30  31
ENDBRANCH  16  30
BRANCH   7  33
HETATM   33  N5  UNL     1       3.844  18.118   2.729  1.00  0.00    -0.234 N
ATOM     34  H52 UNL     1       3.805  17.495   3.536  1.00  0.00     0.174 HD
ATOM     35  H51 UNL     1       3.630  17.772   1.794  1.00  0.00     0.174 HD
ENDBRANCH   7  33
TORSDOF 5
ENDMDL