MODEL 5
REMARK VINA RESULT: -6.048964140      4.252      6.478
REMARK  9 active torsions:
REMARK  status: ('A' for Active; 'I' for Inactive)
REMARK    1  A    between atoms: C2_2  and  O1_3
REMARK    2  A    between atoms: C2_2  and  C3_5
REMARK    3  A    between atoms: C2_2  and  C7_24
REMARK       I    between atoms: C3_5  and  N1_7
REMARK    4  A    between atoms: N1_7  and  C4_9
REMARK    5  A    between atoms: C4_9  and  O3_10
REMARK    6  A    between atoms: C6_18  and  N3_19
REMARK    7  A    between atoms: N3_19  and  N4_21
REMARK    8  A    between atoms: C7_24  and  N5_25
REMARK    9  A    between atoms: C7_24  and  C8_29
ROOT
HETATM    1  C3  UNL     1       3.708  21.796   7.026  1.00  0.00     0.257 C
HETATM    2  O2  UNL     1       4.864  21.405   6.748  1.00  0.00    -0.270 OA
HETATM    3  N1  UNL     1       3.126  22.781   6.191  1.00  0.00    -0.320 N
ATOM      4  H1  UNL     1       2.188  23.091   6.448  1.00  0.00     0.166 HD
ENDROOT
BRANCH   3   5
HETATM    5  C4  UNL     1       3.688  23.383   5.050  1.00  0.00     0.211 C
HETATM    6  C5  UNL     1       3.092  24.776   4.781  1.00  0.00     0.233 C
HETATM    7  S1  UNL     1       3.990  25.015   3.227  1.00  0.00     0.236 S
HETATM    8  O4  UNL     1       3.279  25.923   2.318  1.00  0.00    -0.205 OA
HETATM    9  O5  UNL     1       5.395  25.374   3.521  1.00  0.00    -0.205 OA
HETATM   10  N2  UNL     1       3.863  23.343   2.750  1.00  0.00    -0.268 N
HETATM   11  C6  UNL     1       3.710  22.625   3.805  1.00  0.00     0.163 C
ATOM     12  H2  UNL     1       3.902  22.992   1.793  1.00  0.00     0.180 HD
BRANCH   5  13
HETATM   13  O3  UNL     1       5.055  23.688   5.307  1.00  0.00    -0.363 OA
ATOM     14  H3  UNL     1       5.521  23.752   4.482  1.00  0.00     0.213 HD
ENDBRANCH   5  13
BRANCH  11  15
HETATM   15  N3  UNL     1       3.600  21.200   3.667  1.00  0.00    -0.291 N
ATOM     16  H3  UNL     1       2.687  20.777   3.499  1.00  0.00     0.188 HD
BRANCH  15  17
HETATM   17  N4  UNL     1       4.712  20.404   3.760  1.00  0.00    -0.344 N
ATOM     18  H42 UNL     1       5.575  20.713   3.313  1.00  0.00     0.176 HD
ATOM     19  H41 UNL     1       4.675  19.520   4.267  1.00  0.00     0.176 HD
ENDBRANCH  15  17
ENDBRANCH  11  15
ENDBRANCH   3   5
BRANCH   1  20
HETATM   20  C2  UNL     1       3.033  21.203   8.188  1.00  0.00     0.172 C
HETATM   21  C1  UNL     1       1.839  20.349   7.758  1.00  0.00     0.059 C
BRANCH  20  22
HETATM   22  O1  UNL     1       3.909  20.364   8.871  1.00  0.00    -0.378 OA
ATOM     23  H1  UNL     1       4.751  20.427   8.436  1.00  0.00     0.211 HD
ENDBRANCH  20  22
BRANCH  20  24
HETATM   24  C7  UNL     1       2.605  22.255   9.169  1.00  0.00     0.326 C
BRANCH  24  25
HETATM   25  N5  UNL     1       1.323  21.890   9.798  1.00  0.00    -0.062 N
ATOM     26  H53 UNL     1       0.748  21.316   9.181  1.00  0.00     0.275 HD
ATOM     27  H52 UNL     1       1.450  21.218  10.555  1.00  0.00     0.275 HD
ATOM     28  H51 UNL     1       0.825  22.723  10.112  1.00  0.00     0.275 HD
ENDBRANCH  24  25
BRANCH  24  29
HETATM   29  C8  UNL     1       3.566  22.330  10.329  1.00  0.00     0.208 C
HETATM   30  O6  UNL     1       3.269  21.882  11.478  1.00  0.00    -0.646 OA
HETATM   31  O7  UNL     1       4.809  22.886  10.198  1.00  0.00    -0.646 OA
ENDBRANCH  24  29
ENDBRANCH  20  24
ENDBRANCH   1  20
TORSDOF 9
ENDMDL