MODEL 2
REMARK VINA RESULT: -6.452000437      4.244      7.315
REMARK  7 active torsions:
REMARK  status: ('A' for Active; 'I' for Inactive)
REMARK    1  A    between atoms: C3_9  and  C4_10
REMARK       I    between atoms: C4_10  and  N3_12
REMARK    2  A    between atoms: N3_12  and  N4_14
REMARK    3  A    between atoms: N6_25  and  C9_26
REMARK    4  A    between atoms: C9_26  and  C10_27
REMARK    5  A    between atoms: C10_27  and  O5_28
REMARK    6  A    between atoms: C10_27  and  C11_30
REMARK    7  A    between atoms: C11_30  and  O6_31
ROOT
HETATM    1  N1  UNL     1       3.528  19.773   2.049  1.00  0.00    -0.394 N
ATOM      2  H11 UNL     1       2.846  19.076   2.348  1.00  0.00     0.156 HD
ATOM      3  H12 UNL     1       3.848  19.669   1.086  1.00  0.00     0.156 HD
HETATM    4  C1  UNL     1       3.884  20.647   2.883  1.00  0.00     0.112 C
HETATM    5  C2  UNL     1       4.882  21.668   2.445  1.00  0.00     0.269 C
HETATM    6  O1  UNL     1       5.312  21.597   1.257  1.00  0.00    -0.266 OA
HETATM    7  N2  UNL     1       5.293  22.644   3.358  1.00  0.00    -0.337 N
ATOM      8  H2  UNL     1       6.171  23.131   3.179  1.00  0.00     0.164 HD
HETATM    9  C3  UNL     1       4.544  22.999   4.537  1.00  0.00     0.230 C
HETATM   10  C5  UNL     1       3.864  21.823   5.106  1.00  0.00     0.066 A
HETATM   11  C6  UNL     1       3.423  20.796   4.266  1.00  0.00     0.089 A
HETATM   12  C7  UNL     1       2.643  19.783   4.791  1.00  0.00     0.264 A
HETATM   13  O3  UNL     1       2.218  18.844   4.083  1.00  0.00    -0.267 OA
HETATM   14  N5  UNL     1       2.318  19.794   6.121  1.00  0.00    -0.275 N
ATOM     15  H5  UNL     1       1.742  19.050   6.514  1.00  0.00     0.173 HD
HETATM   16  C8  UNL     1       2.759  20.781   6.896  1.00  0.00     0.329 A
HETATM   17  O4  UNL     1       2.428  20.741   8.133  1.00  0.00    -0.246 OA
HETATM   18  N6  UNL     1       3.512  21.767   6.402  1.00  0.00    -0.297 N
ENDROOT
BRANCH   9  19
HETATM   19  C4  UNL     1       3.545  24.027   4.040  1.00  0.00     0.264 C
HETATM   20  O2  UNL     1       2.324  23.889   4.321  1.00  0.00    -0.269 OA
HETATM   21  N3  UNL     1       3.908  25.149   3.272  1.00  0.00    -0.275 N
ATOM     22  H3  UNL     1       4.892  25.282   3.038  1.00  0.00     0.189 HD
BRANCH  21  23
HETATM   23  N4  UNL     1       2.976  26.092   2.816  1.00  0.00    -0.343 N
ATOM     24  H42 UNL     1       2.511  26.673   3.514  1.00  0.00     0.176 HD
ATOM     25  H41 UNL     1       2.751  26.214   1.828  1.00  0.00     0.176 HD
ENDBRANCH  21  23
ENDBRANCH   9  19
BRANCH  18  26
HETATM   26  C9  UNL     1       3.988  22.733   7.357  1.00  0.00     0.167 C
BRANCH  26  27
HETATM   27  C10 UNL     1       5.102  22.104   8.163  1.00  0.00     0.160 C
BRANCH  27  28
HETATM   28  O5  UNL     1       6.346  22.169   7.566  1.00  0.00    -0.392 OA
ATOM     29  H5  UNL     1       7.031  21.711   8.037  1.00  0.00     0.210 HD
ENDBRANCH  27  28
BRANCH  27  30
HETATM   30  C11 UNL     1       5.129  22.735   9.547  1.00  0.00     0.197 C
BRANCH  30  31
HETATM   31  O6  UNL     1       4.130  22.245  10.356  1.00  0.00    -0.398 OA
ATOM     32  H6  UNL     1       4.040  22.750  11.156  1.00  0.00     0.209 HD
ENDBRANCH  30  31
ENDBRANCH  27  30
ENDBRANCH  26  27
ENDBRANCH  18  26
TORSDOF 7
ENDMDL