MODEL 4
REMARK VINA RESULT: -7.249020979      1.848      3.160
REMARK  7 active torsions:
REMARK  status: ('A' for Active; 'I' for Inactive)
REMARK    1  A    between atoms: C5_10  and  N3_11
REMARK    2  A    between atoms: N3_11  and  C6_13
REMARK    3  A    between atoms: C6_13  and  C7_19
REMARK    4  A    between atoms: N4_14  and  N5_16
REMARK    5  A    between atoms: C7_19  and  O3_20
REMARK    6  A    between atoms: C7_19  and  N6_22
REMARK    7  A    between atoms: N6_22  and  N7_24
ROOT
HETATM    1  N3  UNL     1       3.718  21.129   3.043  1.00  0.00    -0.326 N
ATOM      2  H3  UNL     1       3.306  21.474   2.176  1.00  0.00     0.169 HD
ENDROOT
BRANCH   1   3
HETATM    3  C5  UNL     1       4.179  19.930   3.126  1.00  0.00     0.127 A
HETATM    4  C4  UNL     1       5.322  19.707   2.353  1.00  0.00     0.120 A
HETATM    5  C3  UNL     1       5.893  20.694   1.576  1.00  0.00     0.267 A
HETATM    6  C10 UNL     1       5.877  18.447   2.389  1.00  0.00     0.131 A
HETATM    7  N2  UNL     1       6.994  20.397   0.859  1.00  0.00    -0.274 N
HETATM    8  O2  UNL     1       5.353  21.822   1.577  1.00  0.00    -0.267 OA
HETATM    9  C2  UNL     1       7.548  19.171   0.884  1.00  0.00     0.330 A
ATOM     10  H2  UNL     1       7.420  21.122   0.282  1.00  0.00     0.173 HD
HETATM   11  N1  UNL     1       6.985  18.214   1.646  1.00  0.00    -0.289 N
HETATM   12  O1  UNL     1       8.586  18.901   0.206  1.00  0.00    -0.246 OA
HETATM   13  C1  UNL     1       7.547  16.892   1.697  1.00  0.00     0.163 C
HETATM   14  N11 UNL     1       5.332  17.471   3.143  1.00  0.00    -0.337 N
HETATM   15  C9  UNL     1       4.230  17.750   3.866  1.00  0.00     0.183 A
ATOM     16  H11 UNL     1       5.747  16.540   3.166  1.00  0.00     0.168 HD
HETATM   17  N10 UNL     1       3.641  18.958   3.875  1.00  0.00    -0.338 N
ATOM     18  H10 UNL     1       2.806  19.130   4.435  1.00  0.00     0.168 HD
ENDBRANCH   1   3
BRANCH   1  19
HETATM   19  C6  UNL     1       3.804  21.975   4.219  1.00  0.00     0.148 C
HETATM   20  N4  UNL     1       4.946  22.216   4.740  1.00  0.00    -0.292 N
ATOM     21  H4  UNL     1       5.739  21.777   4.272  1.00  0.00     0.188 HD
BRANCH  20  22
HETATM   22  N5  UNL     1       5.261  22.976   5.833  1.00  0.00    -0.344 N
ATOM     23  H52 UNL     1       5.016  22.545   6.723  1.00  0.00     0.176 HD
ATOM     24  H51 UNL     1       5.699  23.897   5.878  1.00  0.00     0.176 HD
ENDBRANCH  20  22
BRANCH  19  25
HETATM   25  C7  UNL     1       2.588  22.570   4.803  1.00  0.00     0.302 C
BRANCH  25  26
HETATM   26  O3  UNL     1       1.419  22.205   4.143  1.00  0.00    -0.368 OA
ATOM     27  H3  UNL     1       1.565  21.609   3.417  1.00  0.00     0.212 HD
ENDBRANCH  25  26
BRANCH  25  28
HETATM   28  N6  UNL     1       2.684  24.002   4.816  1.00  0.00    -0.299 N
ATOM     29  H6  UNL     1       2.944  24.505   5.665  1.00  0.00     0.183 HD
BRANCH  28  30
HETATM   30  N7  UNL     1       2.405  24.697   3.613  1.00  0.00    -0.278 N
HETATM   31  C8  UNL     1       3.371  25.296   3.023  1.00  0.00     0.215 C
HETATM   32  N8  UNL     1       4.663  25.253   3.571  1.00  0.00    -0.065 NA
HETATM   33  N9  UNL     1       3.099  25.997   1.812  1.00  0.00    -0.065 NA
ATOM     34  H7  UNL     1       1.461  24.719   3.227  1.00  0.00     0.189 HD
ENDBRANCH  28  30
ENDBRANCH  25  28
ENDBRANCH  19  25
ENDBRANCH   1  19
TORSDOF 7
ENDMDL