MODEL 1
REMARK VINA RESULT: -6.845308770      0.000      0.000
REMARK  7 active torsions:
REMARK  status: ('A' for Active; 'I' for Inactive)
REMARK    1  A    between atoms: N1_1  and  C1_5
REMARK    2  A    between atoms: C1_5  and  C2_6
REMARK       I    between atoms: C2_6  and  N2_8
REMARK    3  A    between atoms: N2_8  and  C3_10
REMARK    4  A    between atoms: C4_13  and  N5_14
REMARK    5  A    between atoms: N6_17  and  N7_18
REMARK       I    between atoms: N7_18  and  C7_20
REMARK    6  A    between atoms: C10_25  and  O3_26
REMARK    7  A    between atoms: C10_25  and  O4_28
ROOT
HETATM    1  C3  UNL     1       4.672  22.022   2.939  1.00  0.00     0.261 C
HETATM    2  N3  UNL     1       5.034  21.760   1.592  1.00  0.00    -0.115 NA
HETATM    3  N4  UNL     1       5.337  20.440   1.426  1.00  0.00    -0.115 NA
HETATM    4  C4  UNL     1       5.115  19.776   2.718  1.00  0.00     0.260 C
HETATM    5  C10 UNL     1       4.081  20.677   3.371  1.00  0.00     0.234 C
ENDROOT
BRANCH   4   6
HETATM    6  N5  UNL     1       4.768  18.457   2.506  1.00  0.00    -0.363 N
HETATM    7  C5  UNL     1       4.797  17.470   3.482  1.00  0.00     0.106 C
HETATM    8  C6  UNL     1       5.663  16.253   3.205  1.00  0.00     0.127 C
HETATM    9  N6  UNL     1       5.875  16.010   1.838  1.00  0.00    -0.297 N
HETATM   10  C8  UNL     1       4.810  16.534   0.990  1.00  0.00     0.168 C
HETATM   11  C9  UNL     1       4.816  18.041   1.159  1.00  0.00     0.146 C
BRANCH   9  12
HETATM   12  N7  UNL     1       7.090  16.183   1.275  1.00  0.00    -0.252 N
HETATM   13  C7  UNL     1       8.229  16.912   1.651  1.00  0.00     0.347 C
HETATM   14  N8  UNL     1       9.423  16.921   0.840  1.00  0.00    -0.038 NA
HETATM   15  O2  UNL     1       8.306  17.592   2.688  1.00  0.00    -0.249 OA
ATOM     16  H7  UNL     1       7.203  15.680   0.395  1.00  0.00     0.191 HD
ENDBRANCH   9  12
ENDBRANCH   4   6
BRANCH   5  17
HETATM   17  O3  UNL     1       4.119  20.630   4.743  1.00  0.00    -0.360 OA
ATOM     18  H3  UNL     1       3.365  21.108   5.068  1.00  0.00     0.213 HD
ENDBRANCH   5  17
BRANCH   5  19
HETATM   19  O4  UNL     1       2.860  20.440   2.808  1.00  0.00    -0.360 OA
ATOM     20  H4  UNL     1       2.144  20.754   3.349  1.00  0.00     0.213 HD
ENDBRANCH   5  19
BRANCH   1  21
HETATM   21  N2  UNL     1       3.747  23.116   3.085  1.00  0.00    -0.335 N
HETATM   22  C2  UNL     1       4.244  24.398   3.395  1.00  0.00     0.244 C
HETATM   23  O1  UNL     1       5.473  24.567   3.545  1.00  0.00    -0.272 OA
ATOM     24  H2  UNL     1       2.745  22.966   2.965  1.00  0.00     0.164 HD
BRANCH  22  25
HETATM   25  C1  UNL     1       3.329  25.540   3.543  1.00  0.00     0.332 C
BRANCH  25  26
HETATM   26  N1  UNL     1       2.798  26.001   2.272  1.00  0.00    -0.071 N
ATOM     27  H13 UNL     1       3.377  25.680   1.496  1.00  0.00     0.274 HD
ATOM     28  H12 UNL     1       1.930  25.517   2.041  1.00  0.00     0.274 HD
ATOM     29  H11 UNL     1       2.673  27.012   2.242  1.00  0.00     0.274 HD
ENDBRANCH  25  26
ENDBRANCH  22  25
ENDBRANCH   1  21
TORSDOF 7
ENDMDL