MODEL 3
REMARK VINA RESULT: -6.274532563      2.995      6.372
REMARK  6 active torsions:
REMARK  status: ('A' for Active; 'I' for Inactive)
REMARK    1  A    between atoms: N1_2  and  C2_5
REMARK    2  A    between atoms: C2_5  and  C3_6
REMARK    3  A    between atoms: C3_6  and  C4_12
REMARK    4  A    between atoms: N2_7  and  N3_9
REMARK    5  A    between atoms: C6_19  and  C7_20
REMARK    6  A    between atoms: C10_28  and  O3_29
ROOT
HETATM    1  C4  UNL     1       2.675  18.592   2.468  1.00  0.00     0.438 C
HETATM    2  N4  UNL     1       2.631  20.028   2.398  1.00  0.00    -0.018 N
ATOM      3  H41 UNL     1       1.684  20.403   2.339  1.00  0.00     0.282 HD
ATOM      4  H42 UNL     1       2.968  20.402   1.511  1.00  0.00     0.282 HD
HETATM    5  C5  UNL     1       3.383  20.516   3.562  1.00  0.00     0.312 C
HETATM    6  N5  UNL     1       2.976  21.812   3.979  1.00  0.00    -0.374 N
ATOM      7  H5  UNL     1       2.502  21.978   4.867  1.00  0.00     0.156 HD
HETATM    8  C6  UNL     1       3.280  22.864   3.066  1.00  0.00     0.261 C
HETATM    9  C8  UNL     1       4.746  22.851   2.807  1.00  0.00     0.249 C
HETATM   10  O2  UNL     1       5.421  23.910   2.732  1.00  0.00    -0.271 OA
HETATM   11  N7  UNL     1       5.365  21.577   2.645  1.00  0.00    -0.345 N
ATOM     12  H7  UNL     1       6.217  21.514   2.088  1.00  0.00     0.163 HD
HETATM   13  C9  UNL     1       4.834  20.378   3.238  1.00  0.00     0.213 C
HETATM   14  C10 UNL     1       5.004  19.164   2.335  1.00  0.00     0.340 C
HETATM   15  C11 UNL     1       6.334  18.558   2.541  1.00  0.00     0.131 C
HETATM   16  N8  UNL     1       7.383  18.092   2.698  1.00  0.00    -0.192 NA
HETATM   17  N9  UNL     1       4.028  18.185   2.773  1.00  0.00     0.007 N
ATOM     18  H91 UNL     1       4.233  17.263   2.388  1.00  0.00     0.285 HD
ATOM     19  H92 UNL     1       4.136  17.974   3.765  1.00  0.00     0.285 HD
ENDROOT
BRANCH  14  20
HETATM   20  O3  UNL     1       4.822  19.578   1.036  1.00  0.00    -0.352 OA
ATOM     21  H3  UNL     1       5.171  18.904   0.466  1.00  0.00     0.213 HD
ENDBRANCH  14  20
BRANCH   1  22
HETATM   22  C3  UNL     1       2.228  17.917   1.241  1.00  0.00     0.086 C
HETATM   23  N2  UNL     1       1.870  18.648   0.259  1.00  0.00    -0.310 N
ATOM     24  H2  UNL     1       1.902  19.664   0.347  1.00  0.00     0.185 HD
BRANCH  22  25
HETATM   25  C2  UNL     1       2.166  16.456   1.071  1.00  0.00     0.289 C
BRANCH  25  26
HETATM   26  N1  UNL     1       1.378  15.797   2.084  1.00  0.00    -0.074 N
HETATM   27  C1  UNL     1      -0.009  15.816   1.602  1.00  0.00     0.267 C
ATOM     28  H12 UNL     1       1.490  16.203   3.013  1.00  0.00     0.277 HD
ATOM     29  H11 UNL     1       1.714  14.862   2.314  1.00  0.00     0.277 HD
ENDBRANCH  25  26
ENDBRANCH  22  25
BRANCH  23  30
HETATM   30  N3  UNL     1       1.442  18.075  -0.919  1.00  0.00    -0.345 N
ATOM     31  H32 UNL     1       0.820  18.609  -1.527  1.00  0.00     0.176 HD
ATOM     32  H31 UNL     1       1.742  17.136  -1.176  1.00  0.00     0.176 HD
ENDBRANCH  23  30
ENDBRANCH   1  22
BRANCH   8  33
HETATM   33  C7  UNL     1       2.835  24.162   3.625  1.00  0.00     0.263 C
HETATM   34  N6  UNL     1       2.760  24.382   5.025  1.00  0.00    -0.060 NA
HETATM   35  O1  UNL     1       2.519  25.082   2.828  1.00  0.00    -0.274 OA
ENDBRANCH   8  33
TORSDOF 6
ENDMDL