MODEL 2
REMARK VINA RESULT: -7.000924174      1.926      2.890
REMARK  11 active torsions:
REMARK  status: ('A' for Active; 'I' for Inactive)
REMARK    1  A    between atoms: N1_1  and  N2_4
REMARK    2  A    between atoms: N2_4  and  C1_6
REMARK    3  A    between atoms: C1_6  and  N3_7
REMARK    4  A    between atoms: C1_6  and  C3_12
REMARK       I    between atoms: N3_7  and  C2_9
REMARK    5  A    between atoms: C3_12  and  N6_13
REMARK    6  A    between atoms: C3_12  and  C6_28
REMARK    7  A    between atoms: N6_13  and  C4_15
REMARK    8  A    between atoms: C5_20  and  S1_21
REMARK    9  A    between atoms: S1_21  and  N9_22
REMARK   10  A    between atoms: C6_28  and  O4_29
REMARK   11  A    between atoms: C6_28  and  O5_31
ROOT
HETATM    1  C3  UNL     1       4.105  21.647   3.512  1.00  0.00     0.209 C
ENDROOT
BRANCH   1   2
HETATM    2  C1  UNL     1       4.595  23.032   3.679  1.00  0.00     0.125 C
BRANCH   2   3
HETATM    3  N2  UNL     1       5.383  23.310   4.650  1.00  0.00    -0.294 N
ATOM      4  H2  UNL     1       6.335  23.624   4.461  1.00  0.00     0.187 HD
BRANCH   3   5
HETATM    5  N1  UNL     1       4.940  23.183   5.965  1.00  0.00    -0.344 N
ATOM      6  H12 UNL     1       4.085  22.658   6.151  1.00  0.00     0.176 HD
ATOM      7  H11 UNL     1       5.468  23.611   6.725  1.00  0.00     0.176 HD
ENDBRANCH   3   5
ENDBRANCH   2   3
BRANCH   2   8
HETATM    8  N3  UNL     1       4.194  24.051   2.763  1.00  0.00    -0.320 N
HETATM    9  C2  UNL     1       3.516  25.084   3.141  1.00  0.00     0.202 C
HETATM   10  N4  UNL     1       3.122  25.283   4.490  1.00  0.00    -0.066 NA
HETATM   11  N5  UNL     1       3.169  26.032   2.158  1.00  0.00    -0.066 NA
ATOM     12  H3  UNL     1       4.449  23.961   1.780  1.00  0.00     0.169 HD
ENDBRANCH   2   8
ENDBRANCH   1   2
BRANCH   1  13
HETATM   13  N6  UNL     1       4.528  21.174   2.237  1.00  0.00    -0.338 N
ATOM     14  H6  UNL     1       3.923  21.413   1.452  1.00  0.00     0.164 HD
BRANCH  13  15
HETATM   15  C4  UNL     1       5.553  20.498   1.954  1.00  0.00     0.242 A
HETATM   16  N7  UNL     1       6.656  21.029   1.398  1.00  0.00    -0.262 N
HETATM   17  N8  UNL     1       7.550  20.072   1.224  1.00  0.00    -0.265 N
ATOM     18  H7  UNL     1       6.782  22.011   1.150  1.00  0.00     0.190 HD
HETATM   19  C5  UNL     1       7.007  18.927   1.675  1.00  0.00     0.284 A
ATOM     20  H8  UNL     1       8.481  20.181   0.822  1.00  0.00     0.190 HD
HETATM   21  O3  UNL     1       5.807  19.225   2.104  1.00  0.00    -0.248 OA
BRANCH  19  22
HETATM   22  S1  UNL     1       7.833  17.395   1.643  1.00  0.00     0.297 S
HETATM   23  O1  UNL     1       8.289  16.973   3.009  1.00  0.00    -0.197 OA
HETATM   24  O2  UNL     1       6.876  16.347   1.158  1.00  0.00    -0.197 OA
BRANCH  22  25
HETATM   25  N9  UNL     1       9.173  17.473   0.568  1.00  0.00    -0.321 N
ATOM     26  H92 UNL     1       9.315  18.214  -0.118  1.00  0.00     0.169 HD
ATOM     27  H91 UNL     1       9.789  16.676   0.722  1.00  0.00     0.169 HD
ENDBRANCH  22  25
ENDBRANCH  19  22
ENDBRANCH  13  15
ENDBRANCH   1  13
BRANCH   1  28
HETATM   28  C6  UNL     1       2.620  21.659   3.718  1.00  0.00     0.284 C
BRANCH  28  29
HETATM   29  O4  UNL     1       2.174  20.339   3.788  1.00  0.00    -0.369 OA
ATOM     30  H4  UNL     1       1.580  20.263   4.525  1.00  0.00     0.212 HD
ENDBRANCH  28  29
BRANCH  28  31
HETATM   31  O5  UNL     1       2.197  22.388   4.790  1.00  0.00    -0.369 OA
ATOM     32  H5  UNL     1       1.431  22.926   4.628  1.00  0.00     0.212 HD
ENDBRANCH  28  31
ENDBRANCH   1  28
TORSDOF 11
ENDMDL