MODEL 5
REMARK VINA RESULT: -7.264553202      2.878      6.402
REMARK  5 active torsions:
REMARK  status: ('A' for Active; 'I' for Inactive)
REMARK    1  A    between atoms: C1_2  and  C2_3
REMARK       I    between atoms: C2_3  and  N2_5
REMARK    2  A    between atoms: N2_5  and  N3_7
REMARK    3  A    between atoms: N3_7  and  C3_9
REMARK    4  A    between atoms: C5_15  and  C6_16
REMARK       I    between atoms: C6_16  and  N7_18
REMARK    5  A    between atoms: N7_18  and  C7_20
ROOT
HETATM    1  C3  UNL     1       3.492  22.872   6.594  1.00  0.00     0.303 C
HETATM    2  N4  UNL     1       2.270  22.206   6.573  1.00  0.00    -0.290 N
ATOM      3  H4  UNL     1       1.406  22.705   6.363  1.00  0.00     0.180 HD
HETATM    4  N5  UNL     1       2.261  20.851   6.845  1.00  0.00    -0.034 NA
HETATM    5  N6  UNL     1       1.867  20.110   5.767  1.00  0.00    -0.124 NA
HETATM    6  C4  UNL     1       2.997  19.342   5.143  1.00  0.00     0.167 C
HETATM    7  C5  UNL     1       3.714  20.230   4.203  1.00  0.00     0.193 C
HETATM    8  N12 UNL     1       4.653  21.148   4.898  1.00  0.00    -0.343 N
ATOM      9  H12 UNL     1       5.567  21.202   4.448  1.00  0.00     0.163 HD
HETATM   10  C8  UNL     1       4.551  21.952   6.032  1.00  0.00     0.263 C
HETATM   11  O3  UNL     1       5.599  21.879   6.758  1.00  0.00    -0.269 OA
ENDROOT
BRANCH   7  12
HETATM   12  C6  UNL     1       4.344  19.664   3.042  1.00  0.00     0.260 C
HETATM   13  O2  UNL     1       3.751  19.848   1.919  1.00  0.00    -0.270 OA
HETATM   14  N7  UNL     1       5.577  18.949   3.090  1.00  0.00    -0.155 N
ATOM     15  H7  UNL     1       5.741  18.230   3.794  1.00  0.00     0.187 HD
BRANCH  14  16
HETATM   16  C7  UNL     1       6.489  19.243   2.205  1.00  0.00     0.713 A
HETATM   17  N8  UNL     1       6.747  20.401   1.603  1.00  0.00    -0.118 N
HETATM   18  N9  UNL     1       7.768  20.298   0.824  1.00  0.00    -0.212 N
ATOM     19  H8  UNL     1       6.209  21.257   1.741  1.00  0.00     0.207 HD
HETATM   20  N10 UNL     1       8.257  19.060   0.863  1.00  0.00     0.009 NA
ATOM     21  H9  UNL     1       8.148  21.057   0.258  1.00  0.00     0.206 HD
HETATM   22  N11 UNL     1       7.438  18.385   1.742  1.00  0.00    -0.113 N
ATOM     23  H11 UNL     1       7.528  17.403   2.003  1.00  0.00     0.203 HD
ENDBRANCH  14  16
ENDBRANCH   7  12
BRANCH   1  24
HETATM   24  N3  UNL     1       3.521  24.076   5.894  1.00  0.00    -0.301 N
ATOM     25  H3  UNL     1       3.718  24.908   6.450  1.00  0.00     0.183 HD
BRANCH  24  26
HETATM   26  N2  UNL     1       3.327  24.279   4.609  1.00  0.00    -0.268 N
HETATM   27  C2  UNL     1       4.084  24.810   3.587  1.00  0.00     0.272 C
HETATM   28  O1  UNL     1       5.264  25.234   3.680  1.00  0.00    -0.266 OA
ATOM     29  H2  UNL     1       2.404  23.974   4.298  1.00  0.00     0.190 HD
BRANCH  27  30
HETATM   30  C1  UNL     1       3.463  24.913   2.204  1.00  0.00     0.175 C
HETATM   31  N1  UNL     1       2.994  26.165   1.810  1.00  0.00    -0.109 NA
ENDBRANCH  27  30
ENDBRANCH  24  26
ENDBRANCH   1  24
TORSDOF 5
ENDMDL