MODEL 5
REMARK VINA RESULT: -7.054334620      5.829      8.188
REMARK  6 active torsions:
REMARK  status: ('A' for Active; 'I' for Inactive)
REMARK       I    between atoms: C1_4  and  N3_6
REMARK    1  A    between atoms: N3_6  and  N4_8
REMARK    2  A    between atoms: N4_8  and  C2_10
REMARK    3  A    between atoms: C4_16  and  N7_17
REMARK    4  A    between atoms: N7_17  and  C5_19
REMARK    5  A    between atoms: C5_19  and  C6_20
REMARK    6  A    between atoms: N10_30  and  O4_31
ROOT
HETATM    1  C2  UNL     1       5.553  20.660   2.155  1.00  0.00     0.728 A
HETATM    2  N5  UNL     1       5.205  19.547   2.841  1.00  0.00    -0.171 N
ATOM      3  H5  UNL     1       4.380  19.565   3.440  1.00  0.00     0.186 HD
HETATM    4  C3  UNL     1       5.936  18.403   2.745  1.00  0.00     0.158 A
HETATM    5  N6  UNL     1       5.575  17.307   3.433  1.00  0.00    -0.175 N
ATOM      6  H6  UNL     1       4.747  17.346   4.028  1.00  0.00     0.186 HD
HETATM    7  C4  UNL     1       6.277  16.154   3.361  1.00  0.00     0.683 A
HETATM    8  N9  UNL     1       7.364  16.141   2.568  1.00  0.00    -0.155 N
ATOM      9  H9  UNL     1       7.906  15.279   2.505  1.00  0.00     0.187 HD
HETATM   10  C7  UNL     1       7.776  17.202   1.856  1.00  0.00     0.279 A
HETATM   11  O2  UNL     1       8.792  17.179   1.118  1.00  0.00    -0.266 OA
HETATM   12  C8  UNL     1       7.052  18.369   1.937  1.00  0.00     0.148 A
HETATM   13  C9  UNL     1       7.406  19.502   1.240  1.00  0.00     0.307 A
HETATM   14  O3  UNL     1       8.404  19.520   0.500  1.00  0.00    -0.264 OA
HETATM   15  N10 UNL     1       6.641  20.628   1.368  1.00  0.00    -0.011 N
ENDROOT
BRANCH   1  16
HETATM   16  N4  UNL     1       4.871  21.748   2.237  1.00  0.00    -0.127 N
ATOM     17  H4  UNL     1       3.907  21.701   1.907  1.00  0.00     0.205 HD
BRANCH  16  18
HETATM   18  N3  UNL     1       5.288  22.961   2.715  1.00  0.00    -0.259 N
HETATM   19  C1  UNL     1       4.914  23.367   4.020  1.00  0.00     0.201 C
HETATM   20  N1  UNL     1       5.490  24.366   4.579  1.00  0.00    -0.372 N
HETATM   21  N2  UNL     1       3.878  22.648   4.721  1.00  0.00    -0.062 NA
ATOM     22  H12 UNL     1       5.222  24.658   5.518  1.00  0.00     0.158 HD
ATOM     23  H11 UNL     1       6.223  24.875   4.084  1.00  0.00     0.158 HD
ATOM     24  H3  UNL     1       5.865  23.570   2.134  1.00  0.00     0.190 HD
ENDBRANCH  16  18
ENDBRANCH   1  16
BRANCH  15  25
HETATM   25  O4  UNL     1       6.982  21.757   0.681  1.00  0.00    -0.266 OA
ATOM     26  H4  UNL     1       7.797  22.192   0.899  1.00  0.00     0.246 HD
ENDBRANCH  15  25
BRANCH   7  27
HETATM   27  N7  UNL     1       5.861  15.171   4.047  1.00  0.00    -0.217 N
ATOM     28  H7  UNL     1       6.499  14.380   4.132  1.00  0.00     0.178 HD
BRANCH  27  29
HETATM   29  C5  UNL     1       4.610  15.043   4.712  1.00  0.00     0.237 C
BRANCH  29  30
HETATM   30  C6  UNL     1       4.720  15.505   6.141  1.00  0.00     0.249 C
HETATM   31  N8  UNL     1       4.220  16.797   6.478  1.00  0.00    -0.061 NA
HETATM   32  O1  UNL     1       5.241  14.750   6.973  1.00  0.00    -0.275 OA
ENDBRANCH  29  30
ENDBRANCH  27  29
ENDBRANCH   7  27
TORSDOF 6
ENDMDL