MODEL 5
REMARK VINA RESULT: -6.906617809      2.181      7.520
REMARK  10 active torsions:
REMARK  status: ('A' for Active; 'I' for Inactive)
REMARK    1  A    between atoms: N1_1  and  C1_5
REMARK    2  A    between atoms: C1_5  and  C2_6
REMARK    3  A    between atoms: C1_5  and  C3_11
REMARK    4  A    between atoms: C2_6  and  O1_7
REMARK    5  A    between atoms: C2_6  and  O2_9
REMARK    6  A    between atoms: C3_11  and  O3_12
REMARK    7  A    between atoms: C3_11  and  C4_14
REMARK    8  A    between atoms: C4_14  and  C5_16
REMARK       I    between atoms: C5_16  and  N2_18
REMARK    9  A    between atoms: N2_18  and  N3_20
REMARK       I    between atoms: N3_20  and  C6_21
REMARK   10  A    between atoms: C6_21  and  C7_23
ROOT
HETATM    1  C5  UNL     1       5.229  21.478   2.058  1.00  0.00     0.319 C
HETATM    2  O5  UNL     1       4.656  20.342   2.099  1.00  0.00    -0.262 OA
HETATM    3  N2  UNL     1       6.590  21.453   1.551  1.00  0.00    -0.192 N
ATOM      4  H2  UNL     1       7.165  22.295   1.510  1.00  0.00     0.205 HD
ENDROOT
BRANCH   1   5
HETATM    5  C4  UNL     1       4.571  22.714   2.471  1.00  0.00     0.249 C
HETATM    6  O4  UNL     1       4.312  23.559   1.593  1.00  0.00    -0.284 OA
BRANCH   5   7
HETATM    7  C3  UNL     1       4.256  22.841   3.903  1.00  0.00     0.233 C
BRANCH   7   8
HETATM    8  C1  UNL     1       4.473  24.201   4.470  1.00  0.00     0.274 C
BRANCH   8   9
HETATM    9  N1  UNL     1       5.720  24.738   3.918  1.00  0.00    -0.068 N
ATOM     10  H13 UNL     1       6.528  24.466   4.477  1.00  0.00     0.275 HD
ATOM     11  H12 UNL     1       5.976  24.276   3.045  1.00  0.00     0.275 HD
ATOM     12  H11 UNL     1       5.661  25.750   3.806  1.00  0.00     0.275 HD
ENDBRANCH   8   9
BRANCH   8  13
HETATM   13  C2  UNL     1       3.388  25.228   4.425  1.00  0.00     0.287 C
BRANCH  13  14
HETATM   14  O1  UNL     1       3.468  25.884   3.225  1.00  0.00    -0.369 OA
ATOM     15  H1  UNL     1       3.959  25.340   2.621  1.00  0.00     0.212 HD
ENDBRANCH  13  14
BRANCH  13  16
HETATM   16  O2  UNL     1       2.131  24.855   4.794  1.00  0.00    -0.369 OA
ATOM     17  H2  UNL     1       2.012  23.995   5.181  1.00  0.00     0.212 HD
ENDBRANCH  13  16
ENDBRANCH   8  13
ENDBRANCH   7   8
BRANCH   7  18
HETATM   18  O3  UNL     1       5.051  21.885   4.562  1.00  0.00    -0.385 OA
ATOM     19  H3  UNL     1       5.969  22.126   4.533  1.00  0.00     0.210 HD
ENDBRANCH   7  18
ENDBRANCH   5   7
ENDBRANCH   1   5
BRANCH   3  20
HETATM   20  N3  UNL     1       7.048  20.268   1.141  1.00  0.00    -0.276 NA
HETATM   21  C6  UNL     1       7.531  19.078   0.716  1.00  0.00     0.369 C
HETATM   22  O6  UNL     1       8.583  18.840   0.024  1.00  0.00    -0.247 OA
BRANCH  21  23
HETATM   23  C7  UNL     1       6.749  17.863   1.116  1.00  0.00     0.201 A
HETATM   24  N4  UNL     1       5.588  17.557   0.549  1.00  0.00    -0.286 N
HETATM   25  N5  UNL     1       4.919  16.487   0.901  1.00  0.00    -0.251 N
ATOM     26  H4  UNL     1       5.209  18.167  -0.175  1.00  0.00     0.187 HD
HETATM   27  C8  UNL     1       5.467  15.678   1.876  1.00  0.00     0.341 A
ATOM     28  H5  UNL     1       4.023  16.259   0.469  1.00  0.00     0.191 HD
HETATM   29  O7  UNL     1       4.796  14.642   2.186  1.00  0.00    -0.245 OA
HETATM   30  N6  UNL     1       6.625  15.945   2.460  1.00  0.00    -0.272 N
HETATM   31  C9  UNL     1       7.266  17.047   2.082  1.00  0.00     0.284 A
ATOM     32  H6  UNL     1       7.011  15.327   3.174  1.00  0.00     0.174 HD
HETATM   33  O8  UNL     1       8.387  17.378   2.614  1.00  0.00    -0.265 OA
ENDBRANCH  21  23
ENDBRANCH   3  20
TORSDOF 10
ENDMDL