MODEL 3
REMARK VINA RESULT: -7.427770700      2.003      2.383
REMARK  4 active torsions:
REMARK  status: ('A' for Active; 'I' for Inactive)
REMARK    1  A    between atoms: S1_2  and  O3_4
REMARK    2  A    between atoms: S1_2  and  N1_12
REMARK    3  A    between atoms: O3_4  and  C1_5
REMARK    4  A    between atoms: C1_5  and  C2_6
ROOT
HETATM    1  O1  UNL     1      20.711   8.868  -3.228  1.00  0.00    -0.181 OA
HETATM    2  S1  UNL     1      21.490   8.659  -4.521  1.00  0.00     0.339 S
HETATM    3  O2  UNL     1      21.260   9.909  -5.342  1.00  0.00    -0.181 OA
ENDROOT
BRANCH   2   4
HETATM    4  O3  UNL     1      20.898   7.298  -5.250  1.00  0.00    -0.263 OA
BRANCH   4   5
HETATM    5  C1  UNL     1      19.624   6.941  -4.795  1.00  0.00     0.196 C
BRANCH   5   6
HETATM    6  C2  UNL     1      18.627   7.812  -5.545  1.00  0.00     0.011 C
HETATM    7  C3  UNL     1      17.248   7.381  -5.100  1.00  0.00     0.007 C
HETATM    8  C4  UNL     1      16.148   8.079  -5.825  1.00  0.00     0.000 C
HETATM    9  C5  UNL     1      16.347   8.199  -7.301  1.00  0.00     0.000 C
HETATM   10  C6  UNL     1      17.755   8.476  -7.716  1.00  0.00     0.000 C
HETATM   11  C7  UNL     1      18.720   7.544  -7.030  1.00  0.00     0.007 C
ENDBRANCH   5   6
ENDBRANCH   4   5
ENDBRANCH   2   4
BRANCH   2  12
HETATM   12  N1  UNL     1      23.149   8.514  -4.056  1.00  0.00    -0.187 NA
HETATM   13  C8  UNL     1      23.611   7.244  -4.540  1.00  0.00     0.112 C
HETATM   14  C9  UNL     1      23.762   6.221  -3.441  1.00  0.00     0.052 C
HETATM   15  C10 UNL     1      24.861   6.724  -2.531  1.00  0.00     0.172 C
HETATM   16  F1  UNL     1      25.044   5.858  -1.465  1.00  0.00    -0.249 F
HETATM   17  C11 UNL     1      24.431   8.072  -2.008  1.00  0.00     0.052 C
HETATM   18  C12 UNL     1      23.178   8.602  -2.611  1.00  0.00     0.112 C
ENDBRANCH   2  12
TORSDOF 4
ENDMDL