MODEL 1
REMARK VINA RESULT: -7.031147684      0.000      0.000
REMARK  4 active torsions:
REMARK  status: ('A' for Active; 'I' for Inactive)
REMARK    1  A    between atoms: O1_2  and  C2_3
REMARK    2  A    between atoms: C2_3  and  C3_4
REMARK    3  A    between atoms: C3_4  and  C4_5
REMARK    4  A    between atoms: C3_4  and  N1_11
ROOT
HETATM    1  C3  UNL     1      19.254   7.098  -4.365  1.00  0.00     0.116 C
ENDROOT
BRANCH   1   2
HETATM    2  C2  UNL     1      19.175   5.653  -4.762  1.00  0.00     0.193 C
BRANCH   2   3
HETATM    3  O1  UNL     1      18.455   4.916  -3.769  1.00  0.00    -0.394 OA
HETATM    4  C1  UNL     1      19.370   4.444  -2.834  1.00  0.00     0.201 C
ENDBRANCH   2   3
ENDBRANCH   1   2
BRANCH   1   5
HETATM    5  C4  UNL     1      18.378   7.928  -5.252  1.00  0.00     0.011 C
HETATM    6  C5  UNL     1      18.597   7.590  -6.694  1.00  0.00     0.007 C
HETATM    7  C6  UNL     1      17.753   8.537  -7.535  1.00  0.00     0.000 C
HETATM    8  C7  UNL     1      16.312   8.178  -7.328  1.00  0.00     0.000 C
HETATM    9  C8  UNL     1      16.084   7.323  -6.114  1.00  0.00     0.000 C
HETATM   10  C9  UNL     1      16.912   7.761  -4.937  1.00  0.00     0.007 C
ENDBRANCH   1   5
BRANCH   1  11
HETATM   11  N1  UNL     1      20.602   7.585  -4.306  1.00  0.00    -0.366 N
HETATM   12  C10 UNL     1      21.651   6.752  -4.634  1.00  0.00     0.065 C
HETATM   13  C11 UNL     1      22.814   6.669  -3.713  1.00  0.00     0.060 C
HETATM   14  C12 UNL     1      23.136   7.885  -2.940  1.00  0.00     0.114 C
HETATM   15  N2  UNL     1      23.195   9.104  -3.662  1.00  0.00    -0.223 NA
HETATM   16 CL1  UNL     1      23.497  10.391  -2.510  1.00  0.00    -0.021 Cl
HETATM   17  C13 UNL     1      22.053   9.457  -4.425  1.00  0.00     0.153 C
HETATM   18  C14 UNL     1      20.811   8.860  -3.788  1.00  0.00     0.079 C
ENDBRANCH   1  11
TORSDOF 4
ENDMDL