MODEL 4
REMARK VINA RESULT: -6.361283921      4.111      6.068
REMARK  4 active torsions:
REMARK  status: ('A' for Active; 'I' for Inactive)
REMARK    1  A    between atoms: C1_2  and  C2_3
REMARK    2  A    between atoms: C2_3  and  N1_4
REMARK    3  A    between atoms: C5_8  and  C6_9
REMARK    4  A    between atoms: C6_9  and  N2_10
ROOT
HETATM    1  N1  UNL     1      26.639   3.442  -1.641  1.00  0.00    -0.368 N
HETATM    2  C3  UNL     1      25.375   2.914  -1.363  1.00  0.00     0.089 C
HETATM    3  C4  UNL     1      24.306   3.400  -2.343  1.00  0.00     0.213 C
HETATM    4  O1  UNL     1      24.525   4.702  -2.719  1.00  0.00    -0.377 OA
HETATM    5  C5  UNL     1      25.246   5.406  -1.736  1.00  0.00     0.168 C
HETATM    6  C14 UNL     1      26.659   4.898  -1.737  1.00  0.00     0.160 C
ENDROOT
BRANCH   5   7
HETATM    7  C6  UNL     1      25.253   6.837  -2.188  1.00  0.00     0.305 C
BRANCH   7   8
HETATM    8  N2  UNL     1      23.992   7.298  -2.733  1.00  0.00     0.090 N
HETATM    9  C7  UNL     1      24.190   7.259  -4.205  1.00  0.00     0.272 C
HETATM   10  C8  UNL     1      22.863   7.419  -4.907  1.00  0.00     0.030 C
HETATM   11  C9  UNL     1      22.573   8.855  -5.278  1.00  0.00     0.002 C
HETATM   12  C10 UNL     1      21.522   9.490  -4.425  1.00  0.00     0.000 C
HETATM   13  C11 UNL     1      22.022  10.100  -3.160  1.00  0.00     0.002 C
HETATM   14  C12 UNL     1      22.395   9.074  -2.114  1.00  0.00     0.030 C
HETATM   15  C13 UNL     1      23.816   8.685  -2.329  1.00  0.00     0.272 C
ENDBRANCH   7   8
ENDBRANCH   5   7
BRANCH   1  16
HETATM   16  C2  UNL     1      27.563   2.848  -2.488  1.00  0.00     0.078 C
BRANCH  16  17
HETATM   17  C1  UNL     1      28.688   2.054  -1.952  1.00  0.00     0.159 C
HETATM   18 CL1  UNL     1      28.690   0.384  -2.488  1.00  0.00    -0.125 Cl
ENDBRANCH  16  17
ENDBRANCH   1  16
TORSDOF 4
ENDMDL