MODEL 5
REMARK VINA RESULT: -6.380871267      3.818      5.969
REMARK  4 active torsions:
REMARK  status: ('A' for Active; 'I' for Inactive)
REMARK    1  A    between atoms: N1_8  and  C7_9
REMARK    2  A    between atoms: C7_9  and  C8_10
REMARK    3  A    between atoms: C8_10  and  C9_11
REMARK    4  A    between atoms: C9_11  and  N2_12
ROOT
HETATM    1 CL1  UNL     1      19.651   7.609  -4.959  1.00  0.00    -0.125 Cl
HETATM    2  C1  UNL     1      20.854   7.550  -3.621  1.00  0.00     0.084 C
HETATM    3  C2  UNL     1      21.119   8.904  -3.065  1.00  0.00     0.026 C
HETATM    4  C3  UNL     1      22.367   9.557  -3.552  1.00  0.00     0.017 C
HETATM    5  C4  UNL     1      22.900   8.894  -4.805  1.00  0.00     0.042 C
HETATM    6  C5  UNL     1      23.315   7.539  -4.197  1.00  0.00     0.224 C
HETATM    7  C6  UNL     1      22.019   6.756  -4.063  1.00  0.00     0.056 C
HETATM    8  N1  UNL     1      23.743   7.843  -2.878  1.00  0.00     0.093 N
HETATM    9  C14 UNL     1      23.462   9.199  -2.556  1.00  0.00     0.277 C
ENDROOT
BRANCH   8  10
HETATM   10  C7  UNL     1      25.064   7.370  -2.520  1.00  0.00     0.274 C
BRANCH  10  11
HETATM   11  C8  UNL     1      25.061   6.080  -1.818  1.00  0.00     0.060 C
BRANCH  11  12
HETATM   12  C9  UNL     1      26.138   5.088  -2.046  1.00  0.00     0.274 C
BRANCH  12  13
HETATM   13  N2  UNL     1      26.045   3.818  -1.408  1.00  0.00     0.092 N
HETATM   14  C10 UNL     1      26.967   2.851  -2.019  1.00  0.00     0.298 C
HETATM   15  C11 UNL     1      26.471   2.501  -3.383  1.00  0.00     0.198 C
HETATM   16  O1  UNL     1      25.351   1.661  -3.163  1.00  0.00    -0.388 OA
HETATM   17  C12 UNL     1      24.374   2.474  -2.667  1.00  0.00     0.198 C
HETATM   18  C13 UNL     1      24.707   3.240  -1.418  1.00  0.00     0.298 C
ENDBRANCH  12  13
ENDBRANCH  11  12
ENDBRANCH  10  11
ENDBRANCH   8  10
TORSDOF 4
ENDMDL