MODEL 1
REMARK VINA RESULT: -5.996932455      0.000      0.000
REMARK  4 active torsions:
REMARK  status: ('A' for Active; 'I' for Inactive)
REMARK    1  A    between atoms: C2_2  and  C3_3
REMARK    2  A    between atoms: C3_3  and  N1_4
REMARK       I    between atoms: N1_4  and  C4_5
REMARK    3  A    between atoms: N1_4  and  C8_10
REMARK    4  A    between atoms: C4_5  and  C5_7
ROOT
HETATM    1  C8  UNL     1      24.369   6.346  -3.024  1.00  0.00     0.687 A
HETATM    2  N2  UNL     1      23.814   5.124  -3.071  1.00  0.00    -0.200 N
ATOM      3  H2  UNL     1      22.883   5.018  -3.475  1.00  0.00     0.183 HD
HETATM    4  C9  UNL     1      24.455   4.024  -2.597  1.00  0.00     0.126 A
HETATM    5  C10 UNL     1      25.705   4.150  -2.053  1.00  0.00     0.042 A
HETATM    6 BR1  UNL     1      26.559   2.576  -1.404  1.00  0.00    -0.048 Br
HETATM    7  C11 UNL     1      26.271   5.392  -2.003  1.00  0.00     0.126 A
HETATM    8  N3  UNL     1      25.593   6.435  -2.483  1.00  0.00    -0.200 N
ATOM      9  H3  UNL     1      26.032   7.355  -2.437  1.00  0.00     0.183 HD
ENDROOT
BRANCH   1  10
HETATM   10  N1  UNL     1      23.675   7.510  -3.539  1.00  0.00    -0.147 N
HETATM   11  C4  UNL     1      23.609   8.616  -2.704  1.00  0.00     0.249 C
HETATM   12  O1  UNL     1      24.109   8.572  -1.507  1.00  0.00    -0.271 OA
BRANCH  10  13
HETATM   13  C3  UNL     1      23.075   7.518  -4.831  1.00  0.00     0.177 C
BRANCH  13  14
HETATM   14  C2  UNL     1      21.667   7.085  -4.862  1.00  0.00    -0.016 C
HETATM   15  C1  UNL     1      20.779   7.806  -5.477  1.00  0.00     0.008 C
ENDBRANCH  13  14
ENDBRANCH  10  13
BRANCH  11  16
HETATM   16  C5  UNL     1      22.972   9.886  -3.135  1.00  0.00     0.123 A
HETATM   17  C6  UNL     1      22.500  10.840  -2.149  1.00  0.00    -0.012 A
HETATM   18  C7  UNL     1      21.546  10.087  -2.661  1.00  0.00    -0.012 A
ENDBRANCH  11  16
ENDBRANCH   1  10
TORSDOF 4
ENDMDL