MODEL 4
REMARK VINA RESULT: -6.199391366      1.382      1.749
REMARK  4 active torsions:
REMARK  status: ('A' for Active; 'I' for Inactive)
REMARK    1  A    between atoms: C4_5  and  C5_6
REMARK    2  A    between atoms: C5_6  and  N1_7
REMARK    3  A    between atoms: N2_10  and  C8_11
REMARK    4  A    between atoms: C8_11  and  C9_12
ROOT
HETATM    1  N1  UNL     1      18.574   7.237  -4.712  1.00  0.00     0.092 N
HETATM    2  C6  UNL     1      19.112   7.869  -5.874  1.00  0.00     0.302 C
HETATM    3  C7  UNL     1      20.448   8.501  -5.452  1.00  0.00     0.302 C
HETATM    4  N2  UNL     1      21.389   7.417  -5.284  1.00  0.00     0.092 N
HETATM    5  C14 UNL     1      20.896   6.639  -4.143  1.00  0.00     0.302 C
HETATM    6  C15 UNL     1      19.547   7.094  -3.666  1.00  0.00     0.302 C
ENDROOT
BRANCH   4   7
HETATM    7  C8  UNL     1      22.714   7.827  -4.947  1.00  0.00     0.277 C
BRANCH   7   8
HETATM    8  C9  UNL     1      23.118   7.673  -3.528  1.00  0.00     0.018 C
HETATM    9  C10 UNL     1      24.313   6.727  -3.488  1.00  0.00     0.032 C
HETATM   10  C11 UNL     1      25.314   7.169  -2.438  1.00  0.00     0.168 C
HETATM   11  O1  UNL     1      24.656   7.468  -1.264  1.00  0.00    -0.391 OA
HETATM   12  C12 UNL     1      23.811   8.549  -1.364  1.00  0.00     0.168 C
HETATM   13  C13 UNL     1      23.514   8.923  -2.822  1.00  0.00     0.032 C
ENDBRANCH   7   8
ENDBRANCH   4   7
BRANCH   1  14
HETATM   14  C5  UNL     1      17.907   5.998  -4.919  1.00  0.00     0.280 C
BRANCH  14  15
HETATM   15  C4  UNL     1      16.699   6.019  -5.780  1.00  0.00     0.048 C
HETATM   16  C1  UNL     1      15.502   6.771  -5.274  1.00  0.00     0.175 C
HETATM   17  F1  UNL     1      15.714   7.895  -4.545  1.00  0.00    -0.249 F
HETATM   18  C2  UNL     1      15.190   5.538  -4.418  1.00  0.00     0.038 C
HETATM   19  C3  UNL     1      15.886   4.740  -5.526  1.00  0.00     0.012 C
ENDBRANCH  14  15
ENDBRANCH   1  14
TORSDOF 4
ENDMDL