MODEL 1
REMARK VINA RESULT: -6.401582868      0.000      0.000
REMARK  4 active torsions:
REMARK  status: ('A' for Active; 'I' for Inactive)
REMARK    1  A    between atoms: C2_2  and  C3_4
REMARK       I    between atoms: C3_4  and  N1_6
REMARK    2  A    between atoms: C6_10  and  C7_11
REMARK    3  A    between atoms: C7_11  and  O2_12
REMARK    4  A    between atoms: O2_12  and  C8_13
ROOT
HETATM    1  C3  UNL     1      18.737   7.112  -5.697  1.00  0.00     0.239 C
HETATM    2  O1  UNL     1      19.663   7.914  -5.964  1.00  0.00    -0.272 OA
HETATM    3  N1  UNL     1      18.892   6.183  -4.651  1.00  0.00    -0.335 N
HETATM    4  C4  UNL     1      17.871   5.234  -4.282  1.00  0.00     0.137 C
HETATM    5  C5  UNL     1      18.487   3.844  -4.530  1.00  0.00     0.096 C
HETATM    6  S1  UNL     1      20.116   4.167  -3.786  1.00  0.00    -0.140 SA
HETATM    7  C6  UNL     1      19.999   6.011  -3.786  1.00  0.00     0.172 C
ENDROOT
BRANCH   7   8
HETATM    8  C7  UNL     1      21.306   6.604  -4.209  1.00  0.00     0.204 C
BRANCH   8   9
HETATM    9  O2  UNL     1      22.058   7.117  -3.189  1.00  0.00    -0.383 OA
BRANCH   9  10
HETATM   10  C8  UNL     1      22.584   8.373  -3.470  1.00  0.00     0.121 C
HETATM   11  C9  UNL     1      21.434   9.372  -3.375  1.00  0.00     0.032 C
HETATM   12  C10 UNL     1      21.993  10.588  -2.677  1.00  0.00     0.002 C
HETATM   13  C11 UNL     1      23.485  10.358  -2.535  1.00  0.00     0.002 C
HETATM   14  C12 UNL     1      23.577   8.846  -2.454  1.00  0.00     0.032 C
ENDBRANCH   9  10
ENDBRANCH   8   9
ENDBRANCH   7   8
BRANCH   1  15
HETATM   15  C2  UNL     1      17.511   7.207  -6.532  1.00  0.00     0.170 C
HETATM   16  C1  UNL     1      17.827   8.035  -7.761  1.00  0.00     0.036 C
HETATM   17 CL1  UNL     1      16.184   7.997  -5.646  1.00  0.00    -0.115 Cl
ENDBRANCH   1  15
TORSDOF 4
ENDMDL