MODEL 5
REMARK VINA RESULT: -5.850183339      2.611      5.606
REMARK  6 active torsions:
REMARK  status: ('A' for Active; 'I' for Inactive)
REMARK    1  A    between atoms: O1_2  and  C2_3
REMARK    2  A    between atoms: C2_3  and  C3_5
REMARK    3  A    between atoms: C3_5  and  C6_8
REMARK    4  A    between atoms: C6_8  and  C7_9
REMARK    5  A    between atoms: C7_9  and  N1_10
REMARK    6  A    between atoms: N3_15  and  C8_17
ROOT
HETATM    1  C6  UNL     1      19.126   7.208  -4.320  1.00  0.00     0.040 C
HETATM    2  N3  UNL     1      19.900   8.213  -4.367  1.00  0.00    -0.384 N
ATOM      3  H3  UNL     1      19.712   8.928  -5.070  1.00  0.00     0.160 HD
ENDROOT
BRANCH   1   4
HETATM    4  C3  UNL     1      17.971   6.951  -5.176  1.00  0.00     0.084 C
HETATM    5  C4  UNL     1      16.748   7.778  -4.761  1.00  0.00     0.032 C
HETATM    6  C5  UNL     1      17.582   5.480  -4.960  1.00  0.00     0.032 C
BRANCH   4   7
HETATM    7  C2  UNL     1      18.220   7.160  -6.612  1.00  0.00     0.272 C
HETATM    8  O2  UNL     1      19.378   6.972  -7.053  1.00  0.00    -0.264 OA
BRANCH   7   9
HETATM    9  O1  UNL     1      17.246   7.557  -7.511  1.00  0.00    -0.326 OA
HETATM   10  C1  UNL     1      17.288   8.842  -8.151  1.00  0.00     0.213 C
ENDBRANCH   7   9
ENDBRANCH   4   7
ENDBRANCH   1   4
BRANCH   1  11
HETATM   11  C7  UNL     1      19.426   6.193  -3.293  1.00  0.00     0.132 C
BRANCH  11  12
HETATM   12  N1  UNL     1      20.311   5.321  -3.443  1.00  0.00    -0.317 N
HETATM   13  N2  UNL     1      20.855   4.214  -3.466  1.00  0.00    -0.345 N
ATOM     14  H22 UNL     1      20.044   3.673  -3.167  1.00  0.00     0.176 HD
ATOM     15  H21 UNL     1      21.577   3.503  -3.588  1.00  0.00     0.176 HD
ATOM     16  H1  UNL     1      21.091   5.908  -3.738  1.00  0.00     0.185 HD
ENDBRANCH  11  12
ENDBRANCH   1  11
BRANCH   2  17
HETATM   17  C8  UNL     1      21.033   8.410  -3.485  1.00  0.00     0.115 C
HETATM   18  C9  UNL     1      20.910   9.587  -2.604  1.00  0.00     0.028 C
HETATM   19  C10 UNL     1      22.044  10.526  -2.547  1.00  0.00     0.002 C
HETATM   20  C11 UNL     1      23.388  10.014  -2.872  1.00  0.00     0.003 C
HETATM   21  C12 UNL     1      23.430   8.588  -3.359  1.00  0.00     0.039 C
HETATM   22  C13 UNL     1      22.292   8.420  -4.346  1.00  0.00     0.192 C
HETATM   23  F1  UNL     1      22.382   7.191  -4.940  1.00  0.00    -0.247 F
ENDBRANCH   2  17
TORSDOF 6
ENDMDL