MODEL 4
REMARK VINA RESULT: -7.076223916      2.022      8.736
REMARK  5 active torsions:
REMARK  status: ('A' for Active; 'I' for Inactive)
REMARK    1  A    between atoms: N1_6  and  C6_7
REMARK    2  A    between atoms: C6_7  and  C7_8
REMARK    3  A    between atoms: C7_8  and  C8_9
REMARK    4  A    between atoms: C8_9  and  N2_11
REMARK    5  A    between atoms: N3_15  and  C12_16
ROOT
HETATM    1  N2  UNL     1      25.731   4.535  -2.687  1.00  0.00    -0.394 N
HETATM    2  C9  UNL     1      24.936   3.442  -2.370  1.00  0.00     0.123 C
HETATM    3  C10 UNL     1      25.149   2.348  -3.433  1.00  0.00     0.064 C
HETATM    4  C11 UNL     1      26.611   2.353  -3.857  1.00  0.00     0.060 C
HETATM    5  N3  UNL     1      27.427   2.076  -2.744  1.00  0.00    -0.387 N
HETATM    6  C17 UNL     1      27.576   3.134  -1.798  1.00  0.00     0.141 C
HETATM    7  C18 UNL     1      27.094   4.455  -2.274  1.00  0.00     0.138 C
ENDROOT
BRANCH   1   8
HETATM    8  C8  UNL     1      25.309   5.843  -2.752  1.00  0.00     0.178 C
HETATM    9 CL1  UNL     1      26.747   6.880  -2.325  1.00  0.00    -0.103 Cl
BRANCH   8  10
HETATM   10  C7  UNL     1      24.662   6.464  -3.905  1.00  0.00     0.071 C
BRANCH  10  11
HETATM   11  C6  UNL     1      24.359   7.900  -3.741  1.00  0.00     0.276 C
BRANCH  11  12
HETATM   12  N1  UNL     1      22.949   8.172  -3.507  1.00  0.00     0.092 N
HETATM   13  C2  UNL     1      22.571   9.465  -3.991  1.00  0.00     0.219 C
HETATM   14  C1  UNL     1      22.137  10.393  -2.850  1.00  0.00     0.043 C
HETATM   15  C3  UNL     1      21.458   9.339  -4.973  1.00  0.00     0.037 C
HETATM   16  C4  UNL     1      20.878   7.980  -4.632  1.00  0.00     0.032 C
HETATM   17  C5  UNL     1      22.063   7.222  -4.067  1.00  0.00     0.273 C
ENDBRANCH  11  12
ENDBRANCH  10  11
ENDBRANCH   8  10
ENDBRANCH   1   8
BRANCH   5  18
HETATM   18  C12 UNL     1      28.535   1.221  -2.910  1.00  0.00     0.083 C
HETATM   19  C13 UNL     1      28.370   0.459  -4.218  1.00  0.00     0.025 C
HETATM   20  C14 UNL     1      29.064  -0.864  -4.012  1.00  0.00     0.002 C
HETATM   21  C15 UNL     1      29.086  -1.110  -2.524  1.00  0.00     0.002 C
HETATM   22  C16 UNL     1      28.766   0.210  -1.846  1.00  0.00     0.025 C
ENDBRANCH   5  18
TORSDOF 5
ENDMDL