MODEL 2
REMARK VINA RESULT: -7.697168465      1.446      1.609
REMARK  5 active torsions:
REMARK  status: ('A' for Active; 'I' for Inactive)
REMARK    1  A    between atoms: C7_8  and  C8_9
REMARK    2  A    between atoms: C8_9  and  C9_10
REMARK    3  A    between atoms: C9_10  and  N1_11
REMARK    4  A    between atoms: C13_15  and  C14_16
REMARK    5  A    between atoms: C14_16  and  N2_17
ROOT
HETATM    1  N1  UNL     1      25.409   4.137  -2.169  1.00  0.00     0.089 N
HETATM    2  C10 UNL     1      26.520   4.600  -1.359  1.00  0.00     0.272 C
HETATM    3  C11 UNL     1      27.398   5.490  -2.179  1.00  0.00     0.031 C
HETATM    4  C12 UNL     1      26.620   6.799  -2.374  1.00  0.00     0.013 C
HETATM    5  C13 UNL     1      25.217   6.505  -2.787  1.00  0.00     0.053 C
HETATM    6  C20 UNL     1      25.178   5.036  -3.252  1.00  0.00     0.282 C
ENDROOT
BRANCH   1   7
HETATM    7  C9  UNL     1      25.760   2.794  -2.635  1.00  0.00     0.273 C
BRANCH   7   8
HETATM    8  C8  UNL     1      26.810   2.825  -3.690  1.00  0.00     0.036 C
BRANCH   8   9
HETATM    9  C7  UNL     1      27.513   1.547  -3.958  1.00  0.00    -0.001 C
HETATM   10  C2  UNL     1      28.647   1.204  -3.057  1.00  0.00    -0.022 C
HETATM   11  C1  UNL     1      28.277   0.679  -1.713  1.00  0.00     0.017 C
HETATM   12  C3  UNL     1      29.575   2.397  -2.847  1.00  0.00     0.017 C
HETATM   13  C4  UNL     1      29.475   0.142  -3.782  1.00  0.00     0.176 C
HETATM   14  O1  UNL     1      28.693  -0.499  -4.709  1.00  0.00    -0.390 OA
HETATM   15  C5  UNL     1      27.459  -0.871  -4.207  1.00  0.00     0.168 C
HETATM   16  C6  UNL     1      26.583   0.361  -4.067  1.00  0.00     0.032 C
ENDBRANCH   8   9
ENDBRANCH   7   8
ENDBRANCH   1   7
BRANCH   5  17
HETATM   17  C14 UNL     1      24.720   7.342  -3.940  1.00  0.00     0.074 C
BRANCH  17  18
HETATM   18  N2  UNL     1      23.873   8.387  -3.552  1.00  0.00    -0.354 N
HETATM   19  C15 UNL     1      24.455   9.541  -3.002  1.00  0.00     0.070 C
HETATM   20  C16 UNL     1      23.554  10.476  -2.290  1.00  0.00     0.082 C
HETATM   21  C17 UNL     1      22.138  10.513  -2.738  1.00  0.00     0.179 C
HETATM   22  F1  UNL     1      21.691  11.827  -2.943  1.00  0.00    -0.249 F
HETATM   23  C18 UNL     1      21.907   9.771  -4.010  1.00  0.00     0.082 C
HETATM   24  C19 UNL     1      22.510   8.383  -3.853  1.00  0.00     0.070 C
ENDBRANCH  17  18
ENDBRANCH   5  17
TORSDOF 5
ENDMDL