MODEL 4
REMARK VINA RESULT: -5.708849619     11.096     13.798
REMARK  5 active torsions:
REMARK  status: ('A' for Active; 'I' for Inactive)
REMARK    1  A    between atoms: C2_2  and  N1_3
REMARK    2  A    between atoms: N2_6  and  C5_7
REMARK    3  A    between atoms: C5_7  and  C6_8
REMARK    4  A    between atoms: C12_15  and  C13_16
REMARK    5  A    between atoms: C12_15  and  C14_18
ROOT
HETATM    1  N1  UNL     1      29.145  -3.478  -8.504  1.00  0.00    -0.408 N
HETATM    2  C3  UNL     1      29.297  -2.313  -7.726  1.00  0.00     0.161 C
HETATM    3  C4  UNL     1      28.645  -2.585  -6.359  1.00  0.00     0.083 C
HETATM    4  N2  UNL     1      29.479  -3.030  -5.364  1.00  0.00    -0.356 N
HETATM    5  C12 UNL     1      30.167  -4.289  -5.517  1.00  0.00     0.068 C
HETATM    6  C18 UNL     1      30.109  -4.930  -6.835  1.00  0.00     0.056 C
HETATM    7  C19 UNL     1      28.984  -4.713  -7.765  1.00  0.00     0.120 C
ENDROOT
BRANCH   4   8
HETATM    8  C5  UNL     1      29.398  -2.487  -4.081  1.00  0.00     0.100 C
BRANCH   8   9
HETATM    9  C6  UNL     1      28.532  -1.333  -3.789  1.00  0.00     0.262 C
HETATM   10  C7  UNL     1      29.343  -0.033  -3.595  1.00  0.00     0.048 C
HETATM   11  C8  UNL     1      28.424   0.789  -2.759  1.00  0.00     0.018 C
HETATM   12  C9  UNL     1      28.778   0.453  -1.313  1.00  0.00     0.036 C
HETATM   13  C11 UNL     1      27.114  -0.020  -2.797  1.00  0.00     0.278 C
HETATM   14  C10 UNL     1      28.532  -1.041  -1.373  1.00  0.00     0.273 C
HETATM   15  N3  UNL     1      27.768  -1.336  -2.562  1.00  0.00     0.098 N
ENDBRANCH   8   9
ENDBRANCH   4   8
BRANCH   5  16
HETATM   16  C13 UNL     1      29.547  -5.238  -4.511  1.00  0.00     0.150 C
HETATM   17 CL1  UNL     1      29.603  -6.932  -5.122  1.00  0.00    -0.128 Cl
ENDBRANCH   5  16
BRANCH   5  18
HETATM   18  C14 UNL     1      31.579  -3.924  -5.130  1.00  0.00     0.007 C
HETATM   19  C15 UNL     1      32.567  -4.844  -4.660  1.00  0.00    -0.089 C
HETATM   20  C16 UNL     1      33.047  -6.015  -5.419  1.00  0.00     0.042 C
HETATM   21  C17 UNL     1      32.434  -5.262  -3.206  1.00  0.00     0.042 C
ENDBRANCH   5  18
BRANCH   1  22
HETATM   22  C2  UNL     1      28.362  -3.395  -9.679  1.00  0.00     0.112 C
HETATM   23  C1  UNL     1      29.122  -2.941 -10.901  1.00  0.00     0.026 C
ENDBRANCH   1  22
TORSDOF 5
ENDMDL