MODEL 2
REMARK VINA RESULT: -6.256462019      4.087      7.265
REMARK  7 active torsions:
REMARK  status: ('A' for Active; 'I' for Inactive)
REMARK    1  A    between atoms: C2_2  and  C3_3
REMARK    2  A    between atoms: C3_3  and  N1_4
REMARK    3  A    between atoms: N1_4  and  C4_5
REMARK    4  A    between atoms: N1_4  and  C12_17
REMARK    5  A    between atoms: C4_5  and  C5_6
REMARK    6  A    between atoms: C6_7  and  C7_8
REMARK    7  A    between atoms: C12_17  and  C13_18
ROOT
HETATM    1  C5  UNL     1      26.132   5.853  -2.465  1.00  0.00    -0.087 C
HETATM    2  C6  UNL     1      26.160   4.663  -2.300  1.00  0.00    -0.045 C
ENDROOT
BRANCH   2   3
HETATM    3  C7  UNL     1      26.162   3.230  -2.055  1.00  0.00     0.345 C
HETATM    4  O1  UNL     1      27.210   2.744  -1.347  1.00  0.00    -0.329 OA
HETATM    5  C8  UNL     1      27.353   1.368  -1.389  1.00  0.00     0.228 C
HETATM    6 CL1  UNL     1      29.078   0.966  -1.706  1.00  0.00    -0.095 Cl
HETATM    7  C9  UNL     1      26.434   0.599  -2.252  1.00  0.00     0.065 C
HETATM    8  C10 UNL     1      25.686  -0.514  -1.509  1.00  0.00     0.017 C
HETATM    9  C11 UNL     1      25.471   1.390  -3.080  1.00  0.00     0.204 C
HETATM   10 BR1  UNL     1      24.966   0.524  -4.730  1.00  0.00    -0.061 Br
HETATM   11  O2  UNL     1      26.046   2.628  -3.324  1.00  0.00    -0.334 OA
ENDBRANCH   2   3
BRANCH   1  12
HETATM   12  C4  UNL     1      26.055   7.300  -2.629  1.00  0.00     0.188 C
BRANCH  12  13
HETATM   13  N1  UNL     1      24.589   7.597  -2.712  1.00  0.00    -0.282 NA
BRANCH  13  14
HETATM   14  C3  UNL     1      24.098   7.200  -3.950  1.00  0.00     0.056 C
BRANCH  14  15
HETATM   15  C2  UNL     1      22.681   6.879  -4.175  1.00  0.00    -0.019 C
HETATM   16  C1  UNL     1      21.855   7.582  -5.155  1.00  0.00     0.037 C
ENDBRANCH  14  15
ENDBRANCH  13  14
BRANCH  13  17
HETATM   17  C12 UNL     1      24.368   8.833  -2.092  1.00  0.00     0.095 C
BRANCH  17  18
HETATM   18  C13 UNL     1      23.865   9.994  -2.846  1.00  0.00     0.010 C
HETATM   19  C14 UNL     1      22.439  10.380  -2.778  1.00  0.00     0.006 C
ENDBRANCH  17  18
ENDBRANCH  13  17
ENDBRANCH  12  13
ENDBRANCH   1  12
TORSDOF 7
ENDMDL