MODEL 2
REMARK VINA RESULT: -7.257481932      1.554      3.428
REMARK  5 active torsions:
REMARK  status: ('A' for Active; 'I' for Inactive)
REMARK    1  A    between atoms: C7_8  and  C8_9
REMARK    2  A    between atoms: C8_9  and  C9_10
REMARK    3  A    between atoms: C9_10  and  N1_11
REMARK    4  A    between atoms: N1_11  and  C10_12
REMARK    5  A    between atoms: N1_11  and  S1_18
ROOT
HETATM    1  N1  UNL     1      21.250   6.742  -4.506  1.00  0.00    -0.286 N
ENDROOT
BRANCH   1   2
HETATM    2  C9  UNL     1      20.733   6.724  -5.815  1.00  0.00     0.076 C
BRANCH   2   3
HETATM    3  C8  UNL     1      20.001   7.937  -6.267  1.00  0.00     0.050 C
BRANCH   3   4
HETATM    4  C7  UNL     1      18.516   7.679  -6.243  1.00  0.00    -0.006 C
HETATM    5  C2  UNL     1      17.758   8.188  -7.422  1.00  0.00    -0.013 C
HETATM    6  C1  UNL     1      18.227   9.495  -7.973  1.00  0.00     0.010 C
HETATM    7  C3  UNL     1      16.299   8.333  -7.063  1.00  0.00     0.024 C
HETATM    8  C4  UNL     1      15.820   7.306  -6.086  1.00  0.00     0.082 C
HETATM    9 CL1  UNL     1      15.904   5.686  -6.836  1.00  0.00    -0.125 Cl
HETATM   10  C5  UNL     1      16.598   7.304  -4.804  1.00  0.00     0.020 C
HETATM   11  C6  UNL     1      17.866   8.124  -4.941  1.00  0.00     0.007 C
ENDBRANCH   3   4
ENDBRANCH   2   3
ENDBRANCH   1   2
BRANCH   1  12
HETATM   12  C10 UNL     1      21.091   5.522  -3.838  1.00  0.00     0.104 C
HETATM   13  C11 UNL     1      19.686   5.286  -3.270  1.00  0.00     0.053 C
HETATM   14  C12 UNL     1      19.787   3.977  -2.493  1.00  0.00     0.169 C
HETATM   15  O1  UNL     1      21.080   3.543  -2.335  1.00  0.00    -0.391 OA
HETATM   16  C13 UNL     1      21.715   3.207  -3.522  1.00  0.00     0.169 C
HETATM   17  C14 UNL     1      21.442   4.276  -4.596  1.00  0.00     0.053 C
ENDBRANCH   1  12
BRANCH   1  18
HETATM   18  S1  UNL     1      22.593   7.687  -4.191  1.00  0.00     0.228 S
HETATM   19  C15 UNL     1      22.174   9.287  -3.502  1.00  0.00     0.186 C
HETATM   20  O2  UNL     1      23.609   7.038  -3.291  1.00  0.00    -0.206 OA
HETATM   21  O3  UNL     1      23.312   7.989  -5.477  1.00  0.00    -0.206 OA
ENDBRANCH   1  18
TORSDOF 5
ENDMDL