MODEL 2
REMARK VINA RESULT: -5.561656950      6.517      9.017
REMARK  5 active torsions:
REMARK  status: ('A' for Active; 'I' for Inactive)
REMARK    1  A    between atoms: C4_5  and  C5_7
REMARK    2  A    between atoms: C8_11  and  C9_12
REMARK    3  A    between atoms: C12_15  and  C13_16
REMARK    4  A    between atoms: C13_16  and  C14_17
REMARK    5  A    between atoms: C14_17  and  N1_18
ROOT
HETATM    1  C1  UNL     1      23.326  -1.412   0.146  1.00  0.00     0.023 C
HETATM    2  C2  UNL     1      22.615  -0.536   0.797  1.00  0.00    -0.014 C
HETATM    3  C3  UNL     1      21.992  -0.911   2.067  1.00  0.00     0.182 C
HETATM    4  O1  UNL     1      22.572  -1.769   2.780  1.00  0.00    -0.290 OA
HETATM    5  C4  UNL     1      20.706  -0.298   2.512  1.00  0.00     0.143 C
HETATM    6 BR1  UNL     1      19.248  -1.409   1.923  1.00  0.00    -0.068 Br
HETATM    7  C7  UNL     1      20.608   1.022   1.841  1.00  0.00     0.162 C
HETATM    8  O2  UNL     1      20.274   2.007   2.459  1.00  0.00    -0.295 OA
HETATM    9  C8  UNL     1      20.950   1.068   0.355  1.00  0.00     0.088 C
HETATM   10  C12 UNL     1      22.410   0.891   0.279  1.00  0.00     0.038 C
ENDROOT
BRANCH  10  11
HETATM   11  C13 UNL     1      23.123   0.998  -1.008  1.00  0.00     0.030 C
BRANCH  11  12
HETATM   12  C14 UNL     1      23.606   2.322  -1.454  1.00  0.00     0.116 C
BRANCH  12  13
HETATM   13  N1  UNL     1      24.903   2.270  -2.106  1.00  0.00    -0.421 N
HETATM   14  C15 UNL     1      25.544   3.530  -2.265  1.00  0.00     0.142 C
HETATM   15  C16 UNL     1      25.740   1.207  -1.686  1.00  0.00     0.142 C
ENDBRANCH  12  13
ENDBRANCH  11  12
ENDBRANCH  10  11
BRANCH   9  16
HETATM   16  C9  UNL     1      20.300   2.246  -0.168  1.00  0.00    -0.018 C
HETATM   17  C10 UNL     1      19.602   2.176  -1.298  1.00  0.00    -0.034 C
HETATM   18  C11 UNL     1      18.897   3.328  -1.916  1.00  0.00     0.036 C
ENDBRANCH   9  16
BRANCH   5  19
HETATM   19  C5  UNL     1      20.710  -0.129   4.010  1.00  0.00     0.033 C
HETATM   20  C6  UNL     1      19.477  -0.708   4.652  1.00  0.00     0.007 C
ENDBRANCH   5  19
TORSDOF 5
ENDMDL