MODEL 3
REMARK VINA RESULT: -5.965132824      1.281      1.992
REMARK  6 active torsions:
REMARK  status: ('A' for Active; 'I' for Inactive)
REMARK    1  A    between atoms: C2_2  and  C4_4
REMARK    2  A    between atoms: C4_4  and  C5_6
REMARK    3  A    between atoms: C5_6  and  N1_8
REMARK    4  A    between atoms: N1_8  and  C7_9
REMARK       I    between atoms: N1_8  and  C12_16
REMARK    5  A    between atoms: C7_9  and  C8_10
REMARK    6  A    between atoms: C12_16  and  C13_18
ROOT
HETATM    1  N1  UNL     1      21.258   6.985  -4.042  1.00  0.00    -0.335 N
HETATM    2  C12 UNL     1      21.022   5.625  -3.785  1.00  0.00     0.224 C
HETATM    3  O3  UNL     1      21.960   4.793  -3.909  1.00  0.00    -0.273 OA
ENDROOT
BRANCH   1   4
HETATM    4  C5  UNL     1      22.613   7.359  -4.433  1.00  0.00     0.153 C
HETATM    5  C6  UNL     1      23.665   6.672  -3.620  1.00  0.00     0.040 C
BRANCH   4   6
HETATM    6  C4  UNL     1      22.839   8.821  -4.303  1.00  0.00     0.152 C
HETATM    7  O1  UNL     1      22.959   9.529  -5.261  1.00  0.00    -0.295 OA
BRANCH   6   8
HETATM    8  C2  UNL     1      22.917   9.412  -2.957  1.00  0.00     0.049 C
HETATM    9  C1  UNL     1      22.082  10.670  -2.880  1.00  0.00     0.017 C
HETATM   10  C3  UNL     1      24.330   9.763  -2.552  1.00  0.00     0.017 C
ENDBRANCH   6   8
ENDBRANCH   4   6
ENDBRANCH   1   4
BRANCH   1  11
HETATM   11  C7  UNL     1      20.240   7.968  -3.894  1.00  0.00     0.191 C
BRANCH  11  12
HETATM   12  C8  UNL     1      19.412   8.256  -5.069  1.00  0.00     0.072 A
HETATM   13  C9  UNL     1      19.735   8.628  -6.354  1.00  0.00     0.038 A
HETATM   14  C10 UNL     1      18.530   8.758  -7.019  1.00  0.00     0.048 A
HETATM   15  C11 UNL     1      17.526   8.466  -6.134  1.00  0.00     0.121 A
HETATM   16 BR1  UNL     1      15.633   8.486  -6.519  1.00  0.00    -0.023 Br
HETATM   17  O2  UNL     1      18.081   8.176  -4.996  1.00  0.00    -0.306 OA
ENDBRANCH  11  12
ENDBRANCH   1  11
BRANCH   2  18
HETATM   18  C13 UNL     1      19.722   5.110  -3.374  1.00  0.00     0.070 C
HETATM   19  C14 UNL     1      18.794   4.720  -4.495  1.00  0.00     0.019 C
HETATM   20  C15 UNL     1      19.849   3.924  -2.426  1.00  0.00     0.019 C
ENDBRANCH   2  18
TORSDOF 6
ENDMDL