MODEL 1
REMARK VINA RESULT: -6.851587179      0.000      0.000
REMARK  6 active torsions:
REMARK  status: ('A' for Active; 'I' for Inactive)
REMARK    1  A    between atoms: C2_2  and  C5_5
REMARK    2  A    between atoms: C7_7  and  C8_8
REMARK       I    between atoms: C8_8  and  N1_10
REMARK       I    between atoms: N2_15  and  C13_16
REMARK    3  A    between atoms: C13_16  and  C14_18
REMARK    4  A    between atoms: C14_18  and  C15_19
REMARK    5  A    between atoms: C15_19  and  C16_20
REMARK    6  A    between atoms: C16_20  and  C17_21
ROOT
HETATM    1  C5  UNL     1      18.550   7.104  -6.247  1.00  0.00     0.079 C
HETATM    2  C6  UNL     1      18.626   6.090  -5.124  1.00  0.00     0.053 C
HETATM    3  C7  UNL     1      20.089   5.831  -4.887  1.00  0.00     0.193 C
HETATM    4  N2  UNL     1      20.814   7.074  -4.834  1.00  0.00    -0.277 N
HETATM    5  C13 UNL     1      22.121   7.259  -4.388  1.00  0.00     0.230 C
HETATM    6  O2  UNL     1      22.833   6.301  -3.986  1.00  0.00    -0.273 OA
HETATM    7  S1  UNL     1      19.737   8.307  -5.491  1.00  0.00    -0.044 SA
ENDROOT
BRANCH   3   8
HETATM    8  C8  UNL     1      20.144   5.103  -3.594  1.00  0.00     0.243 C
HETATM    9  O1  UNL     1      19.643   5.610  -2.579  1.00  0.00    -0.271 OA
HETATM   10  N1  UNL     1      20.764   3.850  -3.530  1.00  0.00    -0.350 N
HETATM   11  C9  UNL     1      21.390   3.135  -4.613  1.00  0.00     0.126 C
HETATM   12  C12 UNL     1      20.931   2.979  -2.356  1.00  0.00     0.126 C
HETATM   13  C10 UNL     1      22.510   2.322  -3.984  1.00  0.00     0.021 C
HETATM   14  C11 UNL     1      22.421   2.680  -2.524  1.00  0.00     0.021 C
ENDBRANCH   3   8
BRANCH   1  15
HETATM   15  C2  UNL     1      17.184   7.710  -6.345  1.00  0.00    -0.037 C
HETATM   16  C1  UNL     1      16.179   6.658  -6.729  1.00  0.00     0.015 C
HETATM   17  C3  UNL     1      16.810   8.194  -4.953  1.00  0.00     0.015 C
HETATM   18  C4  UNL     1      17.154   8.827  -7.332  1.00  0.00     0.015 C
ENDBRANCH   1  15
BRANCH   5  19
HETATM   19  C14 UNL     1      22.707   8.653  -4.381  1.00  0.00     0.104 C
BRANCH  19  20
HETATM   20  C15 UNL     1      23.638   8.799  -3.198  1.00  0.00     0.012 C
BRANCH  20  21
HETATM   21  C16 UNL     1      23.468  10.199  -2.663  1.00  0.00     0.032 C
BRANCH  21  22
HETATM   22  C17 UNL     1      22.023  10.607  -2.589  1.00  0.00     0.222 C
HETATM   23  F1  UNL     1      21.881  11.982  -2.495  1.00  0.00    -0.255 F
ENDBRANCH  21  22
ENDBRANCH  20  21
ENDBRANCH  19  20
ENDBRANCH   5  19
TORSDOF 6
ENDMDL