MODEL 4
REMARK VINA RESULT: -7.673201233      6.746     10.696
REMARK  5 active torsions:
REMARK  status: ('A' for Active; 'I' for Inactive)
REMARK    1  A    between atoms: C1_2  and  C2_3
REMARK       I    between atoms: C1_2  and  N1_11
REMARK    2  A    between atoms: C2_3  and  S1_4
REMARK    3  A    between atoms: S1_4  and  C3_5
REMARK    4  A    between atoms: N2_14  and  C11_15
REMARK    5  A    between atoms: C11_15  and  C12_16
ROOT
HETATM    1  O1  UNL     1      21.542   4.766  -3.747  1.00  0.00    -0.273 OA
HETATM    2  C1  UNL     1      20.500   4.353  -3.211  1.00  0.00     0.229 C
HETATM    3  N1  UNL     1      20.555   3.286  -2.266  1.00  0.00    -0.345 N
HETATM    4  C9  UNL     1      19.289   2.795  -1.716  1.00  0.00     0.146 C
HETATM    5  C10 UNL     1      19.495   1.289  -1.607  1.00  0.00     0.147 C
HETATM    6  N2  UNL     1      20.492   1.112  -0.601  1.00  0.00    -0.370 N
HETATM    7  C17 UNL     1      21.740   1.691  -0.785  1.00  0.00     0.083 C
HETATM    8  C18 UNL     1      21.798   2.738  -1.838  1.00  0.00     0.170 C
ENDROOT
BRANCH   2   9
HETATM    9  C2  UNL     1      19.186   4.972  -3.551  1.00  0.00     0.177 C
BRANCH   9  10
HETATM   10  S1  UNL     1      19.144   6.008  -4.984  1.00  0.00    -0.155 SA
BRANCH  10  11
HETATM   11  C3  UNL     1      18.733   7.714  -4.786  1.00  0.00     0.047 C
HETATM   12  C4  UNL     1      19.677   8.591  -5.622  1.00  0.00     0.015 C
HETATM   13  C5  UNL     1      19.333   8.389  -7.060  1.00  0.00     0.001 C
HETATM   14  C6  UNL     1      17.918   8.824  -7.330  1.00  0.00     0.000 C
HETATM   15  C7  UNL     1      16.998   7.898  -6.524  1.00  0.00     0.001 C
HETATM   16  C8  UNL     1      17.317   8.089  -5.067  1.00  0.00     0.015 C
ENDBRANCH  10  11
ENDBRANCH   9  10
ENDBRANCH   2   9
BRANCH   6  17
HETATM   17  C11 UNL     1      20.165   0.330   0.499  1.00  0.00     0.068 C
BRANCH  17  18
HETATM   18  C12 UNL     1      20.814   0.544   1.814  1.00  0.00     0.027 C
HETATM   19  C13 UNL     1      19.716   1.014   2.776  1.00  0.00     0.013 C
HETATM   20  C14 UNL     1      19.420  -0.200   3.594  1.00  0.00     0.038 C
HETATM   21  C15 UNL     1      20.840  -0.715   3.875  1.00  0.00     0.170 C
HETATM   22  F1  UNL     1      21.541   0.156   4.652  1.00  0.00    -0.249 F
HETATM   23  C16 UNL     1      21.377  -0.709   2.448  1.00  0.00     0.047 C
ENDBRANCH  17  18
ENDBRANCH   6  17
TORSDOF 5
ENDMDL