MODEL 3
REMARK VINA RESULT: -6.319335606      1.054      1.213
REMARK  5 active torsions:
REMARK  status: ('A' for Active; 'I' for Inactive)
REMARK    1  A    between atoms: O1_2  and  C2_3
REMARK    2  A    between atoms: C4_5  and  C5_6
REMARK    3  A    between atoms: C8_12  and  C9_13
REMARK    4  A    between atoms: C10_14  and  C11_15
REMARK    5  A    between atoms: C11_15  and  C13_17
ROOT
HETATM    1  C2  UNL     1      24.513   5.018  -3.221  1.00  0.00     0.058 C
HETATM    2  C3  UNL     1      23.864   5.997  -3.807  1.00  0.00     0.020 C
HETATM    3  C4  UNL     1      24.535   7.270  -4.170  1.00  0.00     0.098 C
HETATM    4  C6  UNL     1      25.391   7.654  -3.013  1.00  0.00     0.204 C
HETATM    5  O2  UNL     1      25.505   8.848  -2.643  1.00  0.00    -0.288 OA
HETATM    6  C7  UNL     1      26.090   6.570  -2.329  1.00  0.00     0.209 C
HETATM    7  O3  UNL     1      26.762   6.809  -1.294  1.00  0.00    -0.288 OA
HETATM    8  C8  UNL     1      25.957   5.207  -2.922  1.00  0.00     0.142 C
ENDROOT
BRANCH   8   9
HETATM    9  C9  UNL     1      26.451   4.230  -1.923  1.00  0.00    -0.011 C
HETATM   10  C10 UNL     1      27.209   3.187  -2.168  1.00  0.00    -0.025 C
BRANCH  10  11
HETATM   11  C11 UNL     1      27.739   2.749  -3.474  1.00  0.00     0.007 C
HETATM   12  C12 UNL     1      26.812   1.670  -4.043  1.00  0.00     0.014 C
BRANCH  11  13
HETATM   13  C13 UNL     1      29.101   2.105  -3.361  1.00  0.00    -0.015 C
HETATM   14  C14 UNL     1      29.036   0.726  -2.772  1.00  0.00     0.010 C
HETATM   15  C15 UNL     1      29.974   2.971  -2.479  1.00  0.00     0.010 C
ENDBRANCH  11  13
ENDBRANCH  10  11
ENDBRANCH   8   9
BRANCH   1  16
HETATM   16  O1  UNL     1      23.814   3.860  -2.913  1.00  0.00    -0.359 OA
HETATM   17  C1  UNL     1      22.619   3.528  -3.553  1.00  0.00     0.209 C
ENDBRANCH   1  16
BRANCH   3  18
HETATM   18  C5  UNL     1      23.539   8.390  -4.370  1.00  0.00     0.101 C
HETATM   19 BR1  UNL     1      21.725   7.743  -4.043  1.00  0.00    -0.095 Br
ENDBRANCH   3  18
TORSDOF 5
ENDMDL