MODEL 4
REMARK VINA RESULT: -6.110210832      1.004      1.257
REMARK  6 active torsions:
REMARK  status: ('A' for Active; 'I' for Inactive)
REMARK    1  A    between atoms: C2_2  and  C3_3
REMARK       I    between atoms: N1_9  and  C9_10
REMARK    2  A    between atoms: C9_10  and  C10_12
REMARK       I    between atoms: C10_12  and  N2_14
REMARK    3  A    between atoms: N2_14  and  C12_16
REMARK    4  A    between atoms: C12_16  and  C13_17
REMARK    5  A    between atoms: C13_17  and  S1_18
REMARK    6  A    between atoms: S1_18  and  C14_19
ROOT
HETATM    1  C3  UNL     1      26.483  -0.047  -3.728  1.00  0.00     0.087 C
HETATM    2  C4  UNL     1      27.478  -0.892  -2.975  1.00  0.00     0.025 C
HETATM    3  C5  UNL     1      28.256  -0.158  -1.937  1.00  0.00     0.002 C
HETATM    4  C6  UNL     1      27.661  -0.202  -0.549  1.00  0.00     0.002 C
HETATM    5  C7  UNL     1      26.613   0.902  -0.452  1.00  0.00     0.020 C
HETATM    6  C8  UNL     1      25.511   0.675  -1.463  1.00  0.00     0.127 C
HETATM    7  N1  UNL     1      25.894   0.959  -2.794  1.00  0.00    -0.339 N
HETATM    8  C9  UNL     1      25.765   2.213  -3.392  1.00  0.00     0.312 C
HETATM    9  O1  UNL     1      26.141   2.299  -4.629  1.00  0.00    -0.262 OA
ENDROOT
BRANCH   8  10
HETATM   10  C10 UNL     1      25.256   3.387  -2.743  1.00  0.00     0.311 C
HETATM   11  O2  UNL     1      23.987   3.578  -2.757  1.00  0.00    -0.262 OA
HETATM   12  N2  UNL     1      26.083   4.358  -2.079  1.00  0.00    -0.348 N
HETATM   13  C11 UNL     1      27.494   4.178  -2.045  1.00  0.00     0.153 C
BRANCH  12  14
HETATM   14  C12 UNL     1      25.357   5.443  -1.501  1.00  0.00     0.136 C
BRANCH  14  15
HETATM   15  C13 UNL     1      25.402   6.757  -2.130  1.00  0.00     0.097 C
BRANCH  15  16
HETATM   16  S1  UNL     1      23.931   7.757  -2.100  1.00  0.00    -0.125 SA
BRANCH  16  17
HETATM   17  C14 UNL     1      23.188   7.737  -3.763  1.00  0.00     0.144 C
HETATM   18  C15 UNL     1      21.961   6.827  -3.653  1.00  0.00     0.064 C
HETATM   19  C16 UNL     1      22.702   9.110  -4.172  1.00  0.00     0.064 C
HETATM   20  F1  UNL     1      24.096   7.223  -4.670  1.00  0.00    -0.232 F
ENDBRANCH  16  17
ENDBRANCH  15  16
ENDBRANCH  14  15
ENDBRANCH  12  14
ENDBRANCH   8  10
BRANCH   1  21
HETATM   21  C2  UNL     1      25.381  -0.879  -4.331  1.00  0.00     0.021 C
HETATM   22  C1  UNL     1      25.421  -0.863  -5.843  1.00  0.00     0.007 C
ENDBRANCH   1  21
TORSDOF 6
ENDMDL