MODEL 4
REMARK VINA RESULT: -7.733186437      0.945      1.302
REMARK  7 active torsions:
REMARK  status: ('A' for Active; 'I' for Inactive)
REMARK    1  A    between atoms: C2_2  and  C3_4
REMARK    2  A    between atoms: C3_4  and  N1_7
REMARK    3  A    between atoms: N1_7  and  C6_8
REMARK    4  A    between atoms: C6_8  and  C7_9
REMARK    5  A    between atoms: C6_8  and  C13_15
REMARK    6  A    between atoms: C7_9  and  C8_10
REMARK    7  A    between atoms: C13_15  and  C14_17
ROOT
HETATM    1  C6  UNL     1      19.337   6.847  -4.937  1.00  0.00     0.125 C
ENDROOT
BRANCH   1   2
HETATM    2  N1  UNL     1      19.006   5.758  -4.529  1.00  0.00    -0.436 NA
BRANCH   2   3
HETATM    3  C3  UNL     1      18.774   4.530  -4.093  1.00  0.00     0.102 C
HETATM    4  C4  UNL     1      19.762   3.427  -4.468  1.00  0.00     0.055 C
HETATM    5  C5  UNL     1      18.710   4.450  -2.563  1.00  0.00     0.055 C
BRANCH   3   6
HETATM    6  C2  UNL     1      17.427   4.013  -4.652  1.00  0.00     0.119 C
HETATM    7  C1  UNL     1      17.322   2.524  -4.462  1.00  0.00     0.030 C
HETATM    8 CL1  UNL     1      16.056   4.888  -3.992  1.00  0.00    -0.122 Cl
ENDBRANCH   3   6
ENDBRANCH   2   3
ENDBRANCH   1   2
BRANCH   1   9
HETATM    9  C7  UNL     1      18.971   7.189  -6.326  1.00  0.00     0.081 C
BRANCH   9  10
HETATM   10  C8  UNL     1      18.017   8.298  -6.527  1.00  0.00    -0.008 C
HETATM   11  C9  UNL     1      17.805   8.650  -7.986  1.00  0.00     0.005 C
HETATM   12  C10 UNL     1      16.440   9.295  -7.947  1.00  0.00     0.000 C
HETATM   13  C11 UNL     1      15.663   8.414  -7.013  1.00  0.00     0.000 C
HETATM   14  C12 UNL     1      16.636   7.738  -6.105  1.00  0.00     0.005 C
ENDBRANCH   9  10
ENDBRANCH   1   9
BRANCH   1  15
HETATM   15  C13 UNL     1      20.065   7.779  -4.118  1.00  0.00     0.198 C
HETATM   16  O1  UNL     1      19.431   8.233  -3.087  1.00  0.00    -0.289 OA
BRANCH  15  17
HETATM   17  C14 UNL     1      21.426   8.301  -4.269  1.00  0.00     0.156 C
HETATM   18  C15 UNL     1      21.513   9.654  -3.603  1.00  0.00     0.042 C
HETATM   19  C16 UNL     1      22.843   9.751  -2.898  1.00  0.00     0.126 C
HETATM   20  N2  UNL     1      23.161   8.369  -2.608  1.00  0.00    -0.356 N
HETATM   21  C17 UNL     1      24.127   7.951  -1.594  1.00  0.00     0.152 C
HETATM   22  C18 UNL     1      22.408   7.507  -3.436  1.00  0.00     0.231 C
HETATM   23  O2  UNL     1      22.528   6.269  -3.483  1.00  0.00    -0.273 OA
ENDBRANCH  15  17
ENDBRANCH   1  15
TORSDOF 7
ENDMDL