MODEL 5
REMARK VINA RESULT: -7.028926697      5.117      7.761
REMARK  5 active torsions:
REMARK  status: ('A' for Active; 'I' for Inactive)
REMARK    1  A    between atoms: N1_5  and  C5_6
REMARK    2  A    between atoms: C5_6  and  C6_7
REMARK    3  A    between atoms: C6_7  and  C7_8
REMARK    4  A    between atoms: C7_8  and  N2_10
REMARK    5  A    between atoms: C11_13  and  N3_14
ROOT
HETATM    1  C7  UNL     1      22.778   2.201  -1.457  1.00  0.00     0.220 C
HETATM    2  C8  UNL     1      22.186   2.679  -2.760  1.00  0.00     0.043 C
ENDROOT
BRANCH   1   3
HETATM    3  C6  UNL     1      24.085   1.513  -1.669  1.00  0.00     0.056 C
BRANCH   3   4
HETATM    4  C5  UNL     1      25.186   2.578  -1.661  1.00  0.00     0.144 C
BRANCH   4   5
HETATM    5  N1  UNL     1      26.290   2.212  -2.507  1.00  0.00    -0.327 N
HETATM    6  C4  UNL     1      27.498   3.045  -2.514  1.00  0.00     0.143 C
HETATM    7  C3  UNL     1      28.643   2.169  -2.072  1.00  0.00     0.032 C
HETATM    8  C2  UNL     1      28.365   0.689  -2.166  1.00  0.00     0.046 C
HETATM    9  C1  UNL     1      27.722   0.245  -0.847  1.00  0.00     0.017 C
HETATM   10  C18 UNL     1      27.397   0.347  -3.220  1.00  0.00     0.098 C
HETATM   11  N4  UNL     1      26.375   1.119  -3.366  1.00  0.00    -0.295 N
HETATM   12 CL1  UNL     1      27.629  -1.040  -4.222  1.00  0.00    -0.068 Cl
ATOM     13  H4  UNL     1      25.665   0.938  -4.076  1.00  0.00     0.187 HD
ENDBRANCH   4   5
ENDBRANCH   3   4
ENDBRANCH   1   3
BRANCH   1  14
HETATM   14  N2  UNL     1      21.840   1.504  -0.628  1.00  0.00     0.092 N
HETATM   15  C9  UNL     1      21.145   2.308   0.321  1.00  0.00     0.275 C
HETATM   16  C10 UNL     1      20.011   1.520   0.945  1.00  0.00     0.066 C
HETATM   17  C11 UNL     1      20.410   0.144   1.346  1.00  0.00     0.226 C
HETATM   18  C16 UNL     1      21.933   0.094   1.360  1.00  0.00     0.066 C
HETATM   19  C17 UNL     1      22.497   0.370  -0.013  1.00  0.00     0.275 C
BRANCH  17  20
HETATM   20  N3  UNL     1      19.943  -0.310   2.600  1.00  0.00     0.093 N
HETATM   21  C12 UNL     1      18.763   0.333   3.095  1.00  0.00     0.273 C
HETATM   22  C13 UNL     1      18.656  -0.285   4.489  1.00  0.00     0.032 C
HETATM   23  C14 UNL     1      20.117  -0.161   4.934  1.00  0.00     0.032 C
HETATM   24  C15 UNL     1      20.923  -0.313   3.654  1.00  0.00     0.273 C
ENDBRANCH  17  20
ENDBRANCH   1  14
TORSDOF 5
ENDMDL