MODEL 1
REMARK VINA RESULT: -6.348068731      0.000      0.000
REMARK  5 active torsions:
REMARK  status: ('A' for Active; 'I' for Inactive)
REMARK    1  A    between atoms: C1_2  and  C2_3
REMARK    2  A    between atoms: C2_3  and  C3_4
REMARK    3  A    between atoms: C3_4  and  C4_5
REMARK    4  A    between atoms: C4_5  and  C5_6
REMARK    5  A    between atoms: C5_6  and  N1_7
ROOT
HETATM    1  N1  UNL     1      19.395   7.945  -4.574  1.00  0.00     0.090 N
HETATM    2  C6  UNL     1      18.524   7.548  -5.652  1.00  0.00     0.272 C
HETATM    3  C7  UNL     1      17.160   8.150  -5.575  1.00  0.00     0.030 C
HETATM    4  C8  UNL     1      16.081   7.302  -5.007  1.00  0.00     0.004 C
HETATM    5  C9  UNL     1      15.692   6.106  -5.808  1.00  0.00     0.026 C
HETATM    6  C10 UNL     1      15.625   4.842  -4.937  1.00  0.00     0.167 C
HETATM    7  O1  UNL     1      16.600   4.833  -3.969  1.00  0.00    -0.389 OA
HETATM    8  C11 UNL     1      17.263   3.638  -3.819  1.00  0.00     0.193 C
HETATM    9  C12 UNL     1      18.761   3.779  -4.044  1.00  0.00     0.193 C
HETATM   10  O2  UNL     1      19.339   4.647  -3.143  1.00  0.00    -0.387 OA
HETATM   11  C13 UNL     1      20.022   5.694  -3.770  1.00  0.00     0.198 C
HETATM   12  C14 UNL     1      19.395   7.017  -3.459  1.00  0.00     0.298 C
ENDROOT
BRANCH   1  13
HETATM   13  C5  UNL     1      20.758   8.105  -4.970  1.00  0.00     0.272 C
BRANCH  13  14
HETATM   14  C4  UNL     1      21.357   9.448  -4.756  1.00  0.00     0.030 C
BRANCH  14  15
HETATM   15  C3  UNL     1      21.610   9.678  -3.292  1.00  0.00     0.002 C
BRANCH  15  16
HETATM   16  C2  UNL     1      23.077   9.812  -2.991  1.00  0.00     0.011 C
BRANCH  16  17
HETATM   17  C1  UNL     1      23.475   8.612  -2.118  1.00  0.00     0.085 C
HETATM   18 BR1  UNL     1      23.978   7.142  -3.275  1.00  0.00    -0.097 Br
ENDBRANCH  16  17
ENDBRANCH  15  16
ENDBRANCH  14  15
ENDBRANCH  13  14
ENDBRANCH   1  13
TORSDOF 5
ENDMDL