MODEL 5
REMARK VINA RESULT: -6.104371550      3.057      5.672
REMARK  5 active torsions:
REMARK  status: ('A' for Active; 'I' for Inactive)
REMARK    1  A    between atoms: O1_2  and  C2_3
REMARK    2  A    between atoms: C5_6  and  C6_7
REMARK    3  A    between atoms: C6_7  and  C7_8
REMARK    4  A    between atoms: C7_8  and  S1_9
REMARK    5  A    between atoms: S1_9  and  N1_12
ROOT
HETATM    1  C6  UNL     1      17.368   6.883  -5.347  1.00  0.00     0.008 C
HETATM    2  C10 UNL     1      17.281   7.028  -6.840  1.00  0.00     0.014 C
HETATM    3  C11 UNL     1      16.867   8.421  -7.263  1.00  0.00     0.001 C
HETATM    4  C12 UNL     1      15.515   8.786  -6.696  1.00  0.00     0.003 C
HETATM    5  C13 UNL     1      15.014   7.642  -5.856  1.00  0.00     0.038 C
HETATM    6  C14 UNL     1      16.063   7.387  -4.788  1.00  0.00     0.179 C
HETATM    7  F1  UNL     1      16.205   8.644  -4.180  1.00  0.00    -0.249 F
ENDROOT
BRANCH   1   8
HETATM    8  C5  UNL     1      18.446   7.843  -4.813  1.00  0.00    -0.002 C
HETATM    9  C4  UNL     1      19.600   7.963  -5.760  1.00  0.00     0.008 C
HETATM   10  C3  UNL     1      20.545   9.000  -5.186  1.00  0.00     0.032 C
HETATM   11  C2  UNL     1      21.079   8.573  -3.861  1.00  0.00     0.120 C
HETATM   12  C16 UNL     1      20.476   7.233  -3.515  1.00  0.00     0.032 C
HETATM   13  C15 UNL     1      18.973   7.425  -3.481  1.00  0.00     0.008 C
BRANCH  11  14
HETATM   14  O1  UNL     1      22.466   8.554  -3.807  1.00  0.00    -0.391 OA
HETATM   15  C1  UNL     1      22.968   9.143  -2.651  1.00  0.00     0.202 C
ENDBRANCH  11  14
ENDBRANCH   1   8
BRANCH   1  16
HETATM   16  C7  UNL     1      17.605   5.497  -4.884  1.00  0.00     0.170 C
BRANCH  16  17
HETATM   17  S1  UNL     1      16.256   4.417  -4.746  1.00  0.00     0.211 S
HETATM   18  O2  UNL     1      15.642   4.031  -6.056  1.00  0.00    -0.211 OA
HETATM   19  O3  UNL     1      15.230   4.841  -3.726  1.00  0.00    -0.211 OA
BRANCH  17  20
HETATM   20  N1  UNL     1      16.886   2.908  -4.096  1.00  0.00    -0.219 NA
HETATM   21  C8  UNL     1      17.614   2.222  -5.149  1.00  0.00     0.128 C
HETATM   22  C9  UNL     1      17.875   3.266  -3.079  1.00  0.00     0.128 C
ENDBRANCH  17  20
ENDBRANCH  16  17
ENDBRANCH   1  16
TORSDOF 5
ENDMDL