MODEL 1
REMARK VINA RESULT: -5.492081955      0.000      0.000
REMARK  5 active torsions:
REMARK  status: ('A' for Active; 'I' for Inactive)
REMARK    1  A    between atoms: C2_2  and  C3_3
REMARK    2  A    between atoms: C2_2  and  C4_5
REMARK    3  A    between atoms: N1_9  and  N2_10
REMARK    4  A    between atoms: C10_15  and  C11_16
REMARK    5  A    between atoms: C11_16  and  C12_17
ROOT
HETATM    1  C4  UNL     1      19.504   6.888  -5.195  1.00  0.00     0.169 C
HETATM    2  O1  UNL     1      20.221   5.618  -5.208  1.00  0.00    -0.292 OA
HETATM    3  C5  UNL     1      19.663   4.651  -4.386  1.00  0.00     0.382 C
HETATM    4  O2  UNL     1      20.385   3.782  -3.823  1.00  0.00    -0.236 OA
HETATM    5  N1  UNL     1      18.264   4.624  -4.165  1.00  0.00    -0.234 N
HETATM    6  C8  UNL     1      17.430   5.437  -5.022  1.00  0.00     0.116 C
HETATM    7  C9  UNL     1      16.086   5.613  -4.384  1.00  0.00     0.035 C
HETATM    8  C10 UNL     1      18.082   6.675  -5.517  1.00  0.00     0.044 C
ENDROOT
BRANCH   1   9
HETATM    9  C2  UNL     1      19.899   7.509  -3.926  1.00  0.00    -0.050 C
HETATM   10  C1  UNL     1      19.089   7.917  -2.974  1.00  0.00     0.017 C
BRANCH   9  11
HETATM   11  C3  UNL     1      21.391   7.680  -3.636  1.00  0.00     0.121 C
HETATM   12 BR1  UNL     1      22.289   8.612  -5.057  1.00  0.00    -0.092 Br
ENDBRANCH   9  11
ENDBRANCH   1   9
BRANCH   8  13
HETATM   13  C11 UNL     1      17.209   7.890  -5.553  1.00  0.00     0.013 C
BRANCH  13  14
HETATM   14  C12 UNL     1      16.564   8.110  -6.901  1.00  0.00    -0.022 C
HETATM   15  C13 UNL     1      15.232   8.750  -6.892  1.00  0.00     0.009 C
HETATM   16  C14 UNL     1      17.490   8.888  -7.805  1.00  0.00     0.009 C
ENDBRANCH  13  14
ENDBRANCH   8  13
BRANCH   5  17
HETATM   17  N2  UNL     1      17.624   3.863  -3.203  1.00  0.00    -0.330 N
HETATM   18  C6  UNL     1      17.287   2.532  -3.612  1.00  0.00     0.170 C
HETATM   19  C7  UNL     1      18.059   3.995  -1.868  1.00  0.00     0.170 C
ENDBRANCH   5  17
TORSDOF 5
ENDMDL