MODEL 5
REMARK VINA RESULT: -5.597159146      3.264      5.846
REMARK  7 active torsions:
REMARK  status: ('A' for Active; 'I' for Inactive)
REMARK    1  A    between atoms: C2_2  and  N1_3
REMARK    2  A    between atoms: C5_6  and  C6_7
REMARK    3  A    between atoms: C6_7  and  O1_8
REMARK    4  A    between atoms: C6_7  and  N2_10
REMARK    5  A    between atoms: N2_10  and  C8_12
REMARK    6  A    between atoms: C8_12  and  C9_13
REMARK    7  A    between atoms: C8_12  and  C14_19
ROOT
HETATM    1  C6  UNL     1      18.397   2.987  -2.296  1.00  0.00     0.120 C
ENDROOT
BRANCH   1   2
HETATM    2  C5  UNL     1      19.158   1.966  -1.616  1.00  0.00     0.097 C
HETATM    3  C4  UNL     1      19.258   1.977  -0.143  1.00  0.00     0.035 C
HETATM    4  C3  UNL     1      20.712   1.872   0.349  1.00  0.00     0.118 C
HETATM    5  N1  UNL     1      21.447   0.848  -0.285  1.00  0.00    -0.410 N
HETATM    6  C18 UNL     1      21.277   0.658  -1.679  1.00  0.00     0.154 C
HETATM    7  C17 UNL     1      20.510   1.824  -2.279  1.00  0.00     0.199 C
HETATM    8  F1  UNL     1      21.228   2.967  -2.221  1.00  0.00    -0.247 F
BRANCH   5   9
HETATM    9  C2  UNL     1      21.494  -0.404   0.396  1.00  0.00     0.112 C
HETATM   10  C1  UNL     1      21.599  -0.221   1.903  1.00  0.00     0.026 C
ENDBRANCH   5   9
ENDBRANCH   1   2
BRANCH   1  11
HETATM   11  O1  UNL     1      17.676   3.706  -1.462  1.00  0.00    -0.349 OA
ATOM     12  H1  UNL     1      17.904   4.628  -1.495  1.00  0.00     0.219 HD
ENDBRANCH   1  11
BRANCH   1  13
HETATM   13  N2  UNL     1      18.273   3.357  -3.630  1.00  0.00    -0.364 N
HETATM   14  C7  UNL     1      18.442   2.498  -4.728  1.00  0.00     0.152 C
BRANCH  13  15
HETATM   15  C8  UNL     1      17.914   4.793  -3.917  1.00  0.00     0.093 C
BRANCH  15  16
HETATM   16  C9  UNL     1      19.079   5.461  -4.526  1.00  0.00     0.010 C
HETATM   17  C10 UNL     1      20.214   5.613  -3.503  1.00  0.00     0.017 C
HETATM   18  C11 UNL     1      21.188   6.670  -3.940  1.00  0.00     0.074 C
HETATM   19  S1  UNL     1      20.328   8.279  -3.726  1.00  0.00    -0.169 SA
HETATM   20  C12 UNL     1      18.612   7.920  -4.295  1.00  0.00     0.074 C
HETATM   21  C13 UNL     1      18.805   6.723  -5.232  1.00  0.00     0.017 C
ENDBRANCH  15  16
BRANCH  15  22
HETATM   22  C14 UNL     1      16.661   4.803  -4.713  1.00  0.00     0.009 A
HETATM   23  C15 UNL     1      15.518   5.701  -4.606  1.00  0.00     0.007 A
HETATM   24  C16 UNL     1      15.375   4.240  -4.283  1.00  0.00     0.007 A
ENDBRANCH  15  22
ENDBRANCH  13  15
ENDBRANCH   1  13
TORSDOF 7
ENDMDL