MODEL 5
REMARK VINA RESULT: -7.107256309      0.823      1.867
REMARK  6 active torsions:
REMARK  status: ('A' for Active; 'I' for Inactive)
REMARK    1  A    between atoms: C2_2  and  N1_4
REMARK    2  A    between atoms: N1_4  and  C4_5
REMARK       I    between atoms: N1_4  and  C5_7
REMARK    3  A    between atoms: C5_7  and  C6_9
REMARK    4  A    between atoms: C6_9  and  O2_10
REMARK    5  A    between atoms: O2_10  and  C7_11
REMARK    6  A    between atoms: C7_11  and  C8_13
ROOT
HETATM    1  C7  UNL     1      23.865   7.438  -2.428  1.00  0.00     0.268 C
HETATM    2  O3  UNL     1      24.435   8.297  -1.723  1.00  0.00    -0.264 OA
ENDROOT
BRANCH   1   3
HETATM    3  O2  UNL     1      24.314   6.134  -2.396  1.00  0.00    -0.311 OA
BRANCH   3   4
HETATM    4  C6  UNL     1      24.956   5.495  -1.352  1.00  0.00     0.281 C
BRANCH   4   5
HETATM    5  C5  UNL     1      25.965   4.520  -1.845  1.00  0.00     0.245 C
HETATM    6  N1  UNL     1      25.674   3.135  -1.937  1.00  0.00    -0.333 N
HETATM    7  O1  UNL     1      27.108   4.907  -2.194  1.00  0.00    -0.271 OA
BRANCH   6   8
HETATM    8  C2  UNL     1      26.682   2.229  -2.421  1.00  0.00     0.080 C
HETATM    9  C1  UNL     1      26.267   1.678  -3.765  1.00  0.00     0.032 C
HETATM   10  C3  UNL     1      26.830   1.124  -1.392  1.00  0.00     0.032 C
ENDBRANCH   6   8
BRANCH   6  11
HETATM   11  C4  UNL     1      24.385   2.615  -1.556  1.00  0.00     0.241 C
HETATM   12 CL1  UNL     1      23.153   2.947  -2.805  1.00  0.00    -0.109 Cl
ENDBRANCH   6  11
ENDBRANCH   4   5
ENDBRANCH   3   4
ENDBRANCH   1   3
BRANCH   1  13
HETATM   13  C8  UNL     1      22.715   7.743  -3.315  1.00  0.00     0.049 C
HETATM   14  C9  UNL     1      23.306   8.182  -4.640  1.00  0.00     0.020 C
HETATM   15  C10 UNL     1      22.519   7.725  -5.821  1.00  0.00     0.006 C
HETATM   16  C11 UNL     1      21.062   8.055  -5.745  1.00  0.00    -0.014 C
HETATM   17  C12 UNL     1      20.756   9.273  -4.957  1.00  0.00     0.009 C
HETATM   18  C16 UNL     1      20.325   6.818  -5.295  1.00  0.00     0.009 C
HETATM   19  C13 UNL     1      20.642   9.082  -3.489  1.00  0.00    -0.013 C
HETATM   20  C14 UNL     1      19.787   7.867  -3.174  1.00  0.00     0.009 C
HETATM   21  C18 UNL     1      21.937   8.919  -2.767  1.00  0.00     0.024 C
HETATM   22  C15 UNL     1      20.475   6.683  -3.804  1.00  0.00    -0.013 C
HETATM   23  C17 UNL     1      21.888   6.506  -3.415  1.00  0.00     0.024 C
ENDBRANCH   1  13
TORSDOF 6
ENDMDL