MODEL 1
REMARK VINA RESULT: -5.820479830      0.000      0.000
REMARK  6 active torsions:
REMARK  status: ('A' for Active; 'I' for Inactive)
REMARK    1  A    between atoms: C2_2  and  C3_3
REMARK    2  A    between atoms: C6_6  and  S1_7
REMARK    3  A    between atoms: S1_7  and  C7_10
REMARK    4  A    between atoms: C7_10  and  C8_11
REMARK    5  A    between atoms: C7_10  and  C9_13
REMARK       I    between atoms: C9_13  and  N1_15
REMARK    6  A    between atoms: N1_15  and  C11_17
ROOT
HETATM    1  C7  UNL     1      24.793   3.311  -2.621  1.00  0.00     0.214 C
ENDROOT
BRANCH   1   2
HETATM    2  S1  UNL     1      23.416   2.370  -2.130  1.00  0.00     0.162 S
HETATM    3  O1  UNL     1      22.870   3.032  -0.862  1.00  0.00    -0.227 OA
HETATM    4  O2  UNL     1      23.818   0.979  -1.641  1.00  0.00    -0.227 OA
BRANCH   2   5
HETATM    5  C6  UNL     1      22.096   2.185  -3.217  1.00  0.00     0.109 C
HETATM    6  C5  UNL     1      21.149   1.060  -2.937  1.00  0.00     0.020 C
HETATM    7  C4  UNL     1      20.107   1.627  -1.963  1.00  0.00     0.006 C
HETATM    8  C3  UNL     1      19.929   3.012  -2.490  1.00  0.00    -0.014 C
HETATM    9  C15 UNL     1      21.201   3.432  -3.145  1.00  0.00     0.024 C
BRANCH   8  10
HETATM   10  C2  UNL     1      18.818   3.109  -3.514  1.00  0.00     0.000 C
HETATM   11  C1  UNL     1      18.903   4.412  -4.285  1.00  0.00     0.005 C
ENDBRANCH   8  10
ENDBRANCH   2   5
ENDBRANCH   1   2
BRANCH   1  12
HETATM   12  C8  UNL     1      24.719   4.735  -2.126  1.00  0.00     0.144 C
HETATM   13 CL1  UNL     1      23.909   5.845  -3.225  1.00  0.00    -0.129 Cl
ENDBRANCH   1  12
BRANCH   1  14
HETATM   14  C9  UNL     1      26.059   2.657  -2.122  1.00  0.00     0.239 C
HETATM   15  O3  UNL     1      26.509   3.033  -1.011  1.00  0.00    -0.272 OA
HETATM   16  N1  UNL     1      26.766   1.669  -2.805  1.00  0.00    -0.347 N
HETATM   17  C10 UNL     1      26.317   1.161  -4.073  1.00  0.00     0.153 C
BRANCH  16  18
HETATM   18  C11 UNL     1      27.977   1.145  -2.223  1.00  0.00     0.024 C
HETATM   19  C12 UNL     1      28.548   0.006  -3.053  1.00  0.00     0.037 C
HETATM   20  C13 UNL     1      27.720   0.594  -0.837  1.00  0.00     0.037 C
HETATM   21  C14 UNL     1      29.020   2.255  -2.112  1.00  0.00     0.037 C
ENDBRANCH  16  18
ENDBRANCH   1  14
TORSDOF 6
ENDMDL