MODEL 1
REMARK VINA RESULT: -7.431184679      0.000      0.000
REMARK  5 active torsions:
REMARK  status: ('A' for Active; 'I' for Inactive)
REMARK    1  A    between atoms: N1_5  and  C4_6
REMARK    2  A    between atoms: C4_6  and  C5_7
REMARK    3  A    between atoms: N2_9  and  C7_10
REMARK    4  A    between atoms: C7_10  and  C8_11
REMARK    5  A    between atoms: C16_20  and  C17_21
ROOT
HETATM    1  C5  UNL     1      24.235   4.897  -2.190  1.00  0.00     0.188 C
HETATM    2  C6  UNL     1      24.621   3.479  -2.281  1.00  0.00     0.309 C
HETATM    3  N2  UNL     1      25.932   3.178  -1.766  1.00  0.00     0.093 N
HETATM    4  C13 UNL     1      26.861   4.241  -1.896  1.00  0.00     0.298 C
HETATM    5  C14 UNL     1      26.299   5.507  -1.281  1.00  0.00     0.199 C
HETATM    6  O1  UNL     1      24.933   5.449  -1.083  1.00  0.00    -0.377 OA
ENDROOT
BRANCH   1   7
HETATM    7  C4  UNL     1      24.472   5.799  -3.332  1.00  0.00     0.096 C
BRANCH   7   8
HETATM    8  N1  UNL     1      23.634   6.888  -3.567  1.00  0.00    -0.371 N
HETATM    9  C3  UNL     1      23.869   8.156  -3.044  1.00  0.00     0.064 C
HETATM   10  C2  UNL     1      22.656   8.900  -2.502  1.00  0.00     0.065 C
HETATM   11  C1  UNL     1      21.547   8.793  -3.513  1.00  0.00     0.093 C
HETATM   12 CL1  UNL     1      22.076   9.505  -5.054  1.00  0.00    -0.124 Cl
HETATM   13  C16 UNL     1      21.235   7.318  -3.666  1.00  0.00     0.027 C
HETATM   14  C15 UNL     1      22.457   6.707  -4.325  1.00  0.00     0.133 C
BRANCH  13  15
HETATM   15  C17 UNL     1      20.004   7.027  -4.449  1.00  0.00    -0.007 A
HETATM   16  C18 UNL     1      18.891   6.333  -3.693  1.00  0.00     0.005 A
HETATM   17  C19 UNL     1      18.723   7.733  -4.106  1.00  0.00     0.005 A
ENDBRANCH  13  15
ENDBRANCH   7   8
ENDBRANCH   1   7
BRANCH   3  18
HETATM   18  C7  UNL     1      26.404   1.904  -2.173  1.00  0.00     0.277 C
BRANCH  18  19
HETATM   19  C8  UNL     1      27.812   1.603  -1.704  1.00  0.00     0.014 C
HETATM   20  C9  UNL     1      28.566   0.919  -2.829  1.00  0.00     0.006 C
HETATM   21  C10 UNL     1      28.233  -0.545  -2.642  1.00  0.00     0.000 C
HETATM   22  C11 UNL     1      27.599  -0.699  -1.285  1.00  0.00     0.000 C
HETATM   23  C12 UNL     1      27.724   0.623  -0.571  1.00  0.00     0.006 C
ENDBRANCH  18  19
ENDBRANCH   3  18
TORSDOF 5
ENDMDL