MODEL 2
REMARK VINA RESULT: -7.652838553      2.685      4.953
REMARK  6 active torsions:
REMARK  status: ('A' for Active; 'I' for Inactive)
REMARK    1  A    between atoms: N1_1  and  C1_4
REMARK    2  A    between atoms: C5_15  and  C6_16
REMARK       I    between atoms: C6_16  and  N5_18
REMARK    3  A    between atoms: N5_18  and  N6_20
REMARK    4  A    between atoms: N7_23  and  C7_24
REMARK    5  A    between atoms: C7_24  and  C8_25
REMARK    6  A    between atoms: C8_25  and  C9_26
ROOT
HETATM    1  C1  UNL     1       0.732  19.697   3.932  1.00  0.00     0.134 A
HETATM    2  N2  UNL     1       0.094  19.775   5.090  1.00  0.00    -0.293 N
ATOM      3  H2  UNL     1      -0.778  19.262   5.216  1.00  0.00     0.172 HD
HETATM    4  C2  UNL     1       0.573  20.516   6.100  1.00  0.00     0.327 A
HETATM    5  O1  UNL     1      -0.090  20.543   7.173  1.00  0.00    -0.247 OA
HETATM    6  N3  UNL     1       1.732  21.219   5.982  1.00  0.00    -0.292 N
ATOM      7  H3  UNL     1       2.080  21.777   6.763  1.00  0.00     0.172 HD
HETATM    8  C3  UNL     1       2.413  21.169   4.826  1.00  0.00     0.144 A
HETATM    9  C4  UNL     1       1.930  20.418   3.797  1.00  0.00     0.123 A
HETATM   10  N4  UNL     1       2.800  20.562   2.806  1.00  0.00    -0.332 N
ATOM     11  H4  UNL     1       2.719  20.119   1.890  1.00  0.00     0.168 HD
HETATM   12  C5  UNL     1       3.843  21.405   3.194  1.00  0.00     0.180 A
HETATM   13  N7  UNL     1       3.599  21.775   4.439  1.00  0.00    -0.312 N
ENDROOT
BRANCH  13  14
HETATM   14  C7  UNL     1       4.339  22.610   5.348  1.00  0.00     0.140 C
BRANCH  14  15
HETATM   15  C8  UNL     1       3.694  23.956   5.585  1.00  0.00     0.100 C
BRANCH  15  16
HETATM   16  C9  UNL     1       3.503  24.652   4.297  1.00  0.00     0.114 A
HETATM   17  N8  UNL     1       4.435  25.215   3.495  1.00  0.00    -0.272 N
HETATM   18  N9  UNL     1       3.824  25.725   2.443  1.00  0.00    -0.227 N
ATOM     19  H8  UNL     1       5.438  25.240   3.672  1.00  0.00     0.190 HD
HETATM   20  N10 UNL     1       2.525  25.512   2.536  1.00  0.00    -0.227 N
ATOM     21  H9  UNL     1       4.286  26.211   1.674  1.00  0.00     0.210 HD
HETATM   22  N11 UNL     1       2.337  24.858   3.667  1.00  0.00    -0.272 N
ATOM     23  H10 UNL     1       1.809  25.796   1.868  1.00  0.00     0.210 HD
ATOM     24  H11 UNL     1       1.428  24.551   4.014  1.00  0.00     0.190 HD
ENDBRANCH  15  16
ENDBRANCH  14  15
ENDBRANCH  13  14
BRANCH  12  25
HETATM   25  C6  UNL     1       4.936  21.698   2.294  1.00  0.00     0.303 C
HETATM   26  O2  UNL     1       4.872  22.829   1.659  1.00  0.00    -0.263 OA
HETATM   27  N5  UNL     1       6.039  20.893   2.052  1.00  0.00    -0.270 N
ATOM     28  H5  UNL     1       6.144  19.997   2.528  1.00  0.00     0.189 HD
BRANCH  27  29
HETATM   29  N6  UNL     1       7.040  21.350   1.109  1.00  0.00    -0.342 N
ATOM     30  H62 UNL     1       7.410  22.297   1.185  1.00  0.00     0.176 HD
ATOM     31  H61 UNL     1       7.355  20.710   0.381  1.00  0.00     0.176 HD
ENDBRANCH  27  29
ENDBRANCH  12  25
BRANCH   1  32
HETATM   32  N1  UNL     1       0.349  19.014   2.911  1.00  0.00    -0.383 N
ATOM     33  H12 UNL     1       0.982  18.284   2.584  1.00  0.00     0.157 HD
ATOM     34  H11 UNL     1      -0.527  19.143   2.406  1.00  0.00     0.157 HD
ENDBRANCH   1  32
TORSDOF 6
ENDMDL