MODEL 1
REMARK VINA RESULT: -7.453599628      0.000      0.000
REMARK  6 active torsions:
REMARK  status: ('A' for Active; 'I' for Inactive)
REMARK    1  A    between atoms: N1_1  and  C1_4
REMARK    2  A    between atoms: N5_15  and  C5_16
REMARK    3  A    between atoms: C5_16  and  C6_17
REMARK       I    between atoms: C6_17  and  N6_19
REMARK       I    between atoms: N6_19  and  C7_21
REMARK    4  A    between atoms: C7_21  and  C8_23
REMARK    5  A    between atoms: C8_23  and  N7_24
REMARK    6  A    between atoms: C8_23  and  C9_28
ROOT
HETATM    1  C1  UNL     1       3.197  25.319   2.617  1.00  0.00     0.680 A
HETATM    2  N2  UNL     1       2.151  24.632   3.115  1.00  0.00    -0.154 N
ATOM      3  H2  UNL     1       1.220  24.852   2.762  1.00  0.00     0.187 HD
HETATM    4  C2  UNL     1       2.261  23.673   4.050  1.00  0.00     0.291 A
HETATM    5  O1  UNL     1       1.282  23.047   4.499  1.00  0.00    -0.265 OA
HETATM    6  C3  UNL     1       3.526  23.376   4.526  1.00  0.00     0.167 A
HETATM    7  C4  UNL     1       4.591  24.110   3.985  1.00  0.00     0.171 A
HETATM    8  N3  UNL     1       5.691  23.609   4.617  1.00  0.00    -0.268 N
ATOM      9  H3  UNL     1       6.651  23.917   4.462  1.00  0.00     0.190 HD
HETATM   10  N4  UNL     1       5.323  22.667   5.457  1.00  0.00    -0.238 N
ATOM     11  H4  UNL     1       5.960  22.136   6.052  1.00  0.00     0.208 HD
HETATM   12  N5  UNL     1       4.001  22.504   5.423  1.00  0.00    -0.260 N
HETATM   13  N8  UNL     1       4.432  25.058   3.053  1.00  0.00    -0.173 N
ATOM     14  H8  UNL     1       5.235  25.569   2.686  1.00  0.00     0.186 HD
ENDROOT
BRANCH  12  15
HETATM   15  C5  UNL     1       3.238  21.582   6.228  1.00  0.00     0.254 C
BRANCH  15  16
HETATM   16  C6  UNL     1       3.031  22.140   7.615  1.00  0.00     0.244 C
HETATM   17  O2  UNL     1       3.990  22.614   8.246  1.00  0.00    -0.271 OA
HETATM   18  N6  UNL     1       1.745  22.110   8.164  1.00  0.00    -0.294 N
HETATM   19  C7  UNL     1       1.296  22.553   9.416  1.00  0.00     0.265 C
ATOM     20  H6  UNL     1       1.027  21.704   7.564  1.00  0.00     0.171 HD
HETATM   21  O3  UNL     1       0.063  22.355   9.755  1.00  0.00    -0.270 OA
BRANCH  19  22
HETATM   22  C8  UNL     1       2.100  23.238  10.420  1.00  0.00     0.374 C
BRANCH  22  23
HETATM   23  N7  UNL     1       2.682  22.306  11.391  1.00  0.00    -0.056 N
ATOM     24  H73 UNL     1       2.124  22.264  12.244  1.00  0.00     0.275 HD
ATOM     25  H72 UNL     1       2.579  21.339  11.084  1.00  0.00     0.275 HD
ATOM     26  H71 UNL     1       3.657  22.526  11.598  1.00  0.00     0.275 HD
ENDBRANCH  22  23
BRANCH  22  27
HETATM   27  C9  UNL     1       1.185  24.142  11.211  1.00  0.00     0.214 C
HETATM   28  O4  UNL     1       1.078  23.974  12.472  1.00  0.00    -0.646 OA
HETATM   29  O5  UNL     1       0.443  25.146  10.670  1.00  0.00    -0.646 OA
ENDBRANCH  22  27
ENDBRANCH  19  22
ENDBRANCH  15  16
ENDBRANCH  12  15
BRANCH   1  30
HETATM   30  N1  UNL     1       2.993  26.218   1.722  1.00  0.00    -0.234 N
ATOM     31  H12 UNL     1       3.054  25.988   0.730  1.00  0.00     0.174 HD
ATOM     32  H11 UNL     1       2.766  27.170   2.011  1.00  0.00     0.174 HD
ENDBRANCH   1  30
TORSDOF 6
ENDMDL