MODEL 5
REMARK VINA RESULT: -7.394568262      1.797      6.949
REMARK  5 active torsions:
REMARK  status: ('A' for Active; 'I' for Inactive)
REMARK    1  A    between atoms: C1_2  and  N1_3
REMARK    2  A    between atoms: C3_10  and  C4_11
REMARK    3  A    between atoms: N4_12  and  N5_14
REMARK       I    between atoms: N5_14  and  C5_16
REMARK    4  A    between atoms: C5_16  and  C6_18
REMARK    5  A    between atoms: C6_18  and  N6_19
ROOT
HETATM    1  N5  UNL     1       4.852  21.512   3.851  1.00  0.00    -0.269 N
ATOM      2  H5  UNL     1       5.151  21.979   2.995  1.00  0.00     0.190 HD
HETATM    3  C5  UNL     1       4.363  20.185   3.804  1.00  0.00     0.255 C
HETATM    4  O3  UNL     1       3.984  19.576   4.841  1.00  0.00    -0.270 OA
ENDROOT
BRANCH   3   5
HETATM    5  C6  UNL     1       4.306  19.514   2.475  1.00  0.00     0.255 C
BRANCH   5   6
HETATM    6  N6  UNL     1       5.547  19.625   1.755  1.00  0.00    -0.263 N
HETATM    7  N7  UNL     1       6.191  20.587   1.117  1.00  0.00    -0.277 N
HETATM    8  C7  UNL     1       7.172  19.713   0.829  1.00  0.00     0.181 A
ATOM      9  H7  UNL     1       6.017  21.573   0.925  1.00  0.00     0.189 HD
HETATM   10  C8  UNL     1       6.512  18.711   1.489  1.00  0.00     0.174 A
HETATM   11  N10 UNL     1       8.432  19.417   0.217  1.00  0.00    -0.277 N
HETATM   12  N8  UNL     1       7.065  17.393   1.568  1.00  0.00    -0.289 N
HETATM   13  C9  UNL     1       8.314  17.100   0.961  1.00  0.00     0.340 A
ATOM     14  H8  UNL     1       6.558  16.659   2.064  1.00  0.00     0.172 HD
HETATM   15  O4  UNL     1       8.849  15.968   0.996  1.00  0.00    -0.245 OA
HETATM   16  N9  UNL     1       9.008  18.146   0.271  1.00  0.00    -0.250 N
ATOM     17  H9  UNL     1       9.908  17.966  -0.173  1.00  0.00     0.192 HD
ATOM     18  H10 UNL     1       8.926  20.161  -0.275  1.00  0.00     0.189 HD
ENDBRANCH   5   6
ENDBRANCH   3   5
BRANCH   1  19
HETATM   19  N4  UNL     1       4.923  22.173   5.061  1.00  0.00    -0.306 N
HETATM   20  C4  UNL     1       4.410  23.294   5.348  1.00  0.00     0.157 C
ATOM     21  H4  UNL     1       5.445  21.708   5.804  1.00  0.00     0.186 HD
BRANCH  20  22
HETATM   22  C3  UNL     1       3.652  24.044   4.391  1.00  0.00     0.150 A
HETATM   23  N1  UNL     1       2.393  23.865   3.983  1.00  0.00    -0.209 N
HETATM   24  N2  UNL     1       2.147  24.810   3.091  1.00  0.00    -0.241 N
HETATM   25  C2  UNL     1       3.205  25.592   2.911  1.00  0.00     0.341 A
ATOM     26  H2  UNL     1       1.258  24.923   2.604  1.00  0.00     0.192 HD
HETATM   27  O2  UNL     1       3.254  26.577   2.117  1.00  0.00    -0.245 OA
HETATM   28  N3  UNL     1       4.160  25.123   3.723  1.00  0.00    -0.291 N
ATOM     29  H3  UNL     1       5.101  25.504   3.825  1.00  0.00     0.172 HD
BRANCH  23  30
HETATM   30  C1  UNL     1       1.465  22.875   4.392  1.00  0.00     0.378 C
HETATM   31  O1  UNL     1       1.478  21.697   4.031  1.00  0.00    -0.281 OA
ENDBRANCH  23  30
ENDBRANCH  20  22
ENDBRANCH   1  19
TORSDOF 5
ENDMDL