MODEL 1
REMARK VINA RESULT: -7.926338142      0.000      0.000
REMARK  9 active torsions:
REMARK  status: ('A' for Active; 'I' for Inactive)
REMARK    1  A    between atoms: C4_5  and  C5_6
REMARK    2  A    between atoms: C5_6  and  N2_7
REMARK    3  A    between atoms: C6_11  and  C7_12
REMARK    4  A    between atoms: C7_12  and  N3_13
REMARK    5  A    between atoms: N3_13  and  C8_15
REMARK    6  A    between atoms: C9_22  and  N7_23
REMARK    7  A    between atoms: N7_23  and  N8_25
REMARK    8  A    between atoms: C10_30  and  C11_31
REMARK       I    between atoms: C11_31  and  N10_33
REMARK    9  A    between atoms: N10_33  and  N11_35
ROOT
HETATM    1  N1  UNL     1       7.901  14.756   1.746  1.00  0.00    -0.190 NA
HETATM    2  C1  UNL     1       7.537  15.848   1.707  1.00  0.00     0.117 C
HETATM    3  C2  UNL     1       7.098  17.209   1.658  1.00  0.00     0.115 A
HETATM    4  C3  UNL     1       7.823  18.106   0.887  1.00  0.00     0.050 A
HETATM    5  C4  UNL     1       7.442  19.418   0.808  1.00  0.00    -0.016 A
HETATM    6  C6  UNL     1       6.305  19.899   1.504  1.00  0.00     0.020 A
HETATM    7  C10 UNL     1       5.628  18.995   2.247  1.00  0.00     0.115 A
HETATM    8  N12 UNL     1       6.051  17.675   2.296  1.00  0.00    -0.342 N
ATOM      9  H12 UNL     1       5.512  17.023   2.866  1.00  0.00     0.167 HD
ENDROOT
BRANCH   5  10
HETATM   10  C5  UNL     1       8.269  20.330  -0.041  1.00  0.00     0.269 C
BRANCH  10  11
HETATM   11  N2  UNL     1       9.085  19.575  -0.946  1.00  0.00    -0.075 N
ATOM     12  H23 UNL     1       9.874  19.137  -0.470  1.00  0.00     0.274 HD
ATOM     13  H22 UNL     1       8.613  18.729  -1.267  1.00  0.00     0.274 HD
ATOM     14  H21 UNL     1       9.389  20.157  -1.726  1.00  0.00     0.274 HD
ENDBRANCH  10  11
ENDBRANCH   5  10
BRANCH   7  15
HETATM   15  C11 UNL     1       4.496  19.258   3.129  1.00  0.00     0.287 C
HETATM   16  O1  UNL     1       4.512  19.921   4.171  1.00  0.00    -0.264 OA
HETATM   17  N10 UNL     1       3.211  18.710   2.782  1.00  0.00    -0.271 N
ATOM     18  H10 UNL     1       3.099  18.147   1.939  1.00  0.00     0.189 HD
BRANCH  17  19
HETATM   19  N11 UNL     1       2.129  18.958   3.610  1.00  0.00    -0.342 N
ATOM     20 2H11 UNL     1       1.809  18.230   4.250  1.00  0.00     0.176 HD
ATOM     21 1H11 UNL     1       1.670  19.867   3.564  1.00  0.00     0.176 HD
ENDBRANCH  17  19
ENDBRANCH   7  15
BRANCH   6  22
HETATM   22  C7  UNL     1       6.027  21.293   1.266  1.00  0.00     0.120 C
BRANCH  22  23
HETATM   23  N3  UNL     1       4.856  21.934   1.661  1.00  0.00    -0.199 N
ATOM     24  H3  UNL     1       3.962  21.535   1.375  1.00  0.00     0.183 HD
BRANCH  23  25
HETATM   25  C8  UNL     1       4.852  23.004   2.367  1.00  0.00     0.712 A
HETATM   26  N4  UNL     1       5.919  23.260   3.136  1.00  0.00    -0.117 N
HETATM   27  N5  UNL     1       6.003  24.344   3.901  1.00  0.00    -0.214 N
ATOM     28  H4  UNL     1       6.695  22.599   3.134  1.00  0.00     0.207 HD
HETATM   29  N6  UNL     1       5.025  25.223   3.932  1.00  0.00    -0.115 N
ATOM     30  H5  UNL     1       6.835  24.496   4.470  1.00  0.00     0.209 HD
HETATM   31  C9  UNL     1       3.938  25.008   3.180  1.00  0.00     0.726 A
ATOM     32  H6  UNL     1       5.094  26.054   4.520  1.00  0.00     0.207 HD
HETATM   33  N9  UNL     1       3.847  23.893   2.391  1.00  0.00    -0.018 N
ATOM     34  H9  UNL     1       3.016  23.737   1.821  1.00  0.00     0.203 HD
BRANCH  31  35
HETATM   35  N7  UNL     1       2.951  25.834   3.171  1.00  0.00    -0.137 N
ATOM     36  H7  UNL     1       2.698  26.348   4.015  1.00  0.00     0.205 HD
BRANCH  35  37
HETATM   37  N8  UNL     1       2.236  26.013   1.992  1.00  0.00    -0.331 N
ATOM     38  H82 UNL     1       1.511  25.343   1.736  1.00  0.00     0.177 HD
ATOM     39  H81 UNL     1       2.453  26.816   1.402  1.00  0.00     0.177 HD
ENDBRANCH  35  37
ENDBRANCH  31  35
ENDBRANCH  23  25
ENDBRANCH  22  23
ENDBRANCH   6  22
TORSDOF 9
ENDMDL