MODEL 2
REMARK VINA RESULT: -6.532999998      1.664      4.856
REMARK  7 active torsions:
REMARK  status: ('A' for Active; 'I' for Inactive)
REMARK    1  A    between atoms: N1_2  and  N2_3
REMARK       I    between atoms: N1_2  and  C9_29
REMARK    2  A    between atoms: N2_3  and  C2_5
REMARK    3  A    between atoms: C4_9  and  N4_10
REMARK    4  A    between atoms: N7_19  and  C7_20
REMARK    5  A    between atoms: C7_20  and  C8_21
REMARK       I    between atoms: C8_21  and  N8_23
REMARK    6  A    between atoms: N8_23  and  N9_25
REMARK    7  A    between atoms: N9_25  and  N10_26
ROOT
HETATM    1  C2  UNL     1       5.148  21.191   2.254  1.00  0.00     0.702 A
HETATM    2  N3  UNL     1       5.465  22.480   2.471  1.00  0.00    -0.183 N
ATOM      3  H3  UNL     1       6.005  23.063   1.831  1.00  0.00     0.184 HD
HETATM    4  C3  UNL     1       4.970  22.890   3.646  1.00  0.00     0.137 A
HETATM    5  C4  UNL     1       4.983  24.062   4.357  1.00  0.00     0.131 A
HETATM    6  N5  UNL     1       4.372  24.124   5.528  1.00  0.00    -0.337 N
ATOM      7  H5  UNL     1       4.382  24.996   6.056  1.00  0.00     0.168 HD
HETATM    8  C5  UNL     1       3.740  23.050   6.030  1.00  0.00     0.183 A
HETATM    9  N6  UNL     1       3.706  21.879   5.360  1.00  0.00    -0.336 N
ATOM     10  H6  UNL     1       3.221  21.076   5.761  1.00  0.00     0.168 HD
HETATM   11  C6  UNL     1       4.311  21.770   4.168  1.00  0.00     0.156 A
HETATM   12  N7  UNL     1       4.436  20.752   3.302  1.00  0.00    -0.155 N
ENDROOT
BRANCH  12  13
HETATM   13  C7  UNL     1       3.874  19.441   3.493  1.00  0.00     0.253 C
BRANCH  13  14
HETATM   14  C8  UNL     1       2.823  19.118   2.531  1.00  0.00     0.253 C
HETATM   15  O1  UNL     1       1.755  19.818   2.521  1.00  0.00    -0.270 OA
HETATM   16  N8  UNL     1       2.933  18.055   1.598  1.00  0.00    -0.253 N
ATOM     17  H8  UNL     1       3.779  17.487   1.590  1.00  0.00     0.187 HD
BRANCH  16  18
HETATM   18  N9  UNL     1       1.906  17.764   0.682  1.00  0.00    -0.027 NA
BRANCH  18  19
HETATM   19  N10 UNL     1       1.821  18.700  -0.331  1.00  0.00    -0.329 N
ATOM     20 2H10 UNL     1       1.957  19.699  -0.175  1.00  0.00     0.174 HD
ATOM     21 1H10 UNL     1       1.609  18.278  -1.234  1.00  0.00     0.174 HD
ENDBRANCH  18  19
ENDBRANCH  16  18
ENDBRANCH  13  14
ENDBRANCH  12  13
BRANCH   1  22
HETATM   22  N2  UNL     1       5.543  20.518   1.073  1.00  0.00    -0.126 N
ATOM     23  H2  UNL     1       4.871  20.423   0.312  1.00  0.00     0.206 HD
BRANCH  22  24
HETATM   24  N1  UNL     1       6.824  19.978   0.917  1.00  0.00    -0.235 N
HETATM   25  C1  UNL     1       7.950  20.840   0.546  1.00  0.00     0.183 C
HETATM   26  C9  UNL     1       6.998  18.581   1.109  1.00  0.00     0.349 C
HETATM   27  N11 UNL     1       8.261  17.955   0.941  1.00  0.00    -0.038 NA
HETATM   28  O2  UNL     1       6.038  17.842   1.437  1.00  0.00    -0.249 OA
ENDBRANCH  22  24
ENDBRANCH   1  22
BRANCH   5  29
HETATM   29  N4  UNL     1       5.605  25.065   3.822  1.00  0.00    -0.383 N
ATOM     30  H42 UNL     1       6.584  25.032   3.534  1.00  0.00     0.157 HD
ATOM     31  H41 UNL     1       5.072  25.926   3.696  1.00  0.00     0.157 HD
ENDBRANCH   5  29
TORSDOF 7
ENDMDL