MODEL 4
REMARK VINA RESULT: -6.919057962      1.648      2.093
REMARK  6 active torsions:
REMARK  status: ('A' for Active; 'I' for Inactive)
REMARK    1  A    between atoms: N1_2  and  C2_4
REMARK    2  A    between atoms: C3_7  and  N3_8
REMARK    3  A    between atoms: N3_8  and  N4_10
REMARK    4  A    between atoms: N4_10  and  S1_12
REMARK    5  A    between atoms: S1_12  and  C4_15
REMARK    6  A    between atoms: C6_22  and  O3_23
ROOT
HETATM    1  C2  UNL     1       2.898  24.181   3.481  1.00  0.00     0.681 A
HETATM    2  N2  UNL     1       3.805  23.405   2.828  1.00  0.00    -0.172 N
ATOM      3  H2  UNL     1       3.948  23.527   1.826  1.00  0.00     0.186 HD
HETATM    4  C3  UNL     1       4.509  22.488   3.488  1.00  0.00     0.173 A
HETATM    5  C6  UNL     1       4.269  22.360   4.876  1.00  0.00     0.157 A
HETATM    6  C7  UNL     1       3.365  23.129   5.548  1.00  0.00     0.154 A
HETATM    7  N8  UNL     1       3.049  23.160   6.750  1.00  0.00    -0.378 N
ATOM      8  H8  UNL     1       2.326  23.856   6.934  1.00  0.00     0.160 HD
HETATM    9  C8  UNL     1       3.426  22.492   7.903  1.00  0.00     0.147 C
HETATM   10  N9  UNL     1       2.678  24.060   4.776  1.00  0.00    -0.174 N
ATOM     11  H9  UNL     1       1.986  24.664   5.222  1.00  0.00     0.186 HD
ENDROOT
BRANCH   4  12
HETATM   12  N3  UNL     1       5.477  21.668   2.813  1.00  0.00    -0.273 N
ATOM     13  H3  UNL     1       6.168  22.113   2.210  1.00  0.00     0.189 HD
BRANCH  12  14
HETATM   14  N4  UNL     1       5.500  20.290   2.957  1.00  0.00    -0.219 N
ATOM     15  H4  UNL     1       5.023  19.835   3.735  1.00  0.00     0.200 HD
BRANCH  14  16
HETATM   16  S1  UNL     1       6.338  19.392   1.814  1.00  0.00     0.309 S
HETATM   17  O1  UNL     1       5.474  19.249   0.570  1.00  0.00    -0.196 OA
HETATM   18  O2  UNL     1       7.596  20.123   1.421  1.00  0.00    -0.196 OA
BRANCH  16  19
HETATM   19  C4  UNL     1       6.771  17.799   2.387  1.00  0.00     0.234 C
HETATM   20  N5  UNL     1       5.935  16.896   2.849  1.00  0.00    -0.349 N
HETATM   21  C5  UNL     1       6.704  15.716   3.216  1.00  0.00     0.258 C
ATOM     22  H5  UNL     1       4.924  17.003   2.936  1.00  0.00     0.163 HD
HETATM   23  N6  UNL     1       7.964  15.880   2.525  1.00  0.00    -0.120 NA
HETATM   24  N7  UNL     1       8.085  17.270   2.430  1.00  0.00    -0.277 N
ATOM     25  H7  UNL     1       8.954  17.802   2.397  1.00  0.00     0.184 HD
ENDBRANCH  16  19
ENDBRANCH  14  16
ENDBRANCH  12  14
ENDBRANCH   4  12
BRANCH   5  26
HETATM   26  O3  UNL     1       5.008  21.412   5.488  1.00  0.00    -0.354 OA
ATOM     27  H3  UNL     1       4.756  21.234   6.387  1.00  0.00     0.218 HD
ENDBRANCH   5  26
BRANCH   1  28
HETATM   28  N1  UNL     1       2.246  25.058   2.781  1.00  0.00    -0.230 N
HETATM   29  C1  UNL     1       2.944  25.883   1.810  1.00  0.00     0.165 C
ATOM     30  H1  UNL     1       1.241  25.169   2.915  1.00  0.00     0.177 HD
ENDBRANCH   1  28
TORSDOF 6
ENDMDL