MODEL 4
REMARK VINA RESULT: -6.453969398      2.542      6.655
REMARK  7 active torsions:
REMARK  status: ('A' for Active; 'I' for Inactive)
REMARK    1  A    between atoms: N1_1  and  C1_4
REMARK       I    between atoms: N4_13  and  C5_14
REMARK    2  A    between atoms: C5_14  and  C6_16
REMARK    3  A    between atoms: C6_16  and  O3_17
REMARK    4  A    between atoms: C6_16  and  C7_19
REMARK    5  A    between atoms: C7_19  and  C8_21
REMARK    6  A    between atoms: C8_21  and  N5_22
REMARK    7  A    between atoms: C8_21  and  C9_26
ROOT
HETATM    1  C1  UNL     1       5.028  24.030   4.332  1.00  0.00     0.680 A
HETATM    2  N2  UNL     1       4.504  24.021   5.561  1.00  0.00    -0.154 N
ATOM      3  H2  UNL     1       4.542  24.869   6.126  1.00  0.00     0.187 HD
HETATM    4  C2  UNL     1       3.932  22.923   6.067  1.00  0.00     0.290 A
HETATM    5  O1  UNL     1       3.422  22.846   7.209  1.00  0.00    -0.265 OA
HETATM    6  C3  UNL     1       3.889  21.767   5.283  1.00  0.00     0.148 A
HETATM    7  N3  UNL     1       3.391  20.566   5.540  1.00  0.00    -0.344 N
ATOM      8  H3  UNL     1       2.930  20.273   6.401  1.00  0.00     0.167 HD
HETATM    9  C4  UNL     1       3.609  19.798   4.436  1.00  0.00     0.194 A
HETATM   10  N4  UNL     1       4.241  20.487   3.474  1.00  0.00    -0.259 N
HETATM   11  C5  UNL     1       4.667  20.124   2.186  1.00  0.00     0.267 C
HETATM   12  O2  UNL     1       5.261  21.006   1.472  1.00  0.00    -0.269 OA
HETATM   13  C10 UNL     1       4.426  21.742   4.000  1.00  0.00     0.163 A
HETATM   14  N6  UNL     1       4.979  22.892   3.576  1.00  0.00    -0.174 N
ATOM     15  H6  UNL     1       5.383  22.917   2.640  1.00  0.00     0.186 HD
ENDROOT
BRANCH  11  16
HETATM   16  C6  UNL     1       4.484  18.803   1.589  1.00  0.00     0.282 C
BRANCH  16  17
HETATM   17  O3  UNL     1       3.736  18.794   0.455  1.00  0.00    -0.379 OA
ATOM     18  H3  UNL     1       4.173  19.152  -0.309  1.00  0.00     0.211 HD
ENDBRANCH  16  17
BRANCH  16  19
HETATM   19  C7  UNL     1       5.778  18.094   1.376  1.00  0.00     0.205 C
HETATM   20  O4  UNL     1       5.890  17.347   0.421  1.00  0.00    -0.292 OA
BRANCH  19  21
HETATM   21  C8  UNL     1       6.892  18.307   2.313  1.00  0.00     0.355 C
BRANCH  21  22
HETATM   22  N5  UNL     1       7.678  19.481   1.910  1.00  0.00    -0.058 N
ATOM     23  H53 UNL     1       8.675  19.273   1.859  1.00  0.00     0.275 HD
ATOM     24  H52 UNL     1       7.525  19.725   0.932  1.00  0.00     0.275 HD
ATOM     25  H51 UNL     1       7.485  20.266   2.533  1.00  0.00     0.275 HD
ENDBRANCH  21  22
BRANCH  21  26
HETATM   26  C9  UNL     1       7.856  17.192   2.383  1.00  0.00     0.212 C
HETATM   27  O5  UNL     1       7.683  16.261   3.198  1.00  0.00    -0.646 OA
HETATM   28  O6  UNL     1       8.957  17.143   1.567  1.00  0.00    -0.646 OA
ENDBRANCH  21  26
ENDBRANCH  19  21
ENDBRANCH  16  19
ENDBRANCH  11  16
BRANCH   1  29
HETATM   29  N1  UNL     1       5.591  25.086   3.814  1.00  0.00    -0.234 N
ATOM     30  H12 UNL     1       5.100  25.977   3.891  1.00  0.00     0.174 HD
ATOM     31  H11 UNL     1       6.493  25.052   3.340  1.00  0.00     0.174 HD
ENDBRANCH   1  29
TORSDOF 7
ENDMDL