MODEL 3
REMARK VINA RESULT: -6.799886305      2.320      3.780
REMARK  8 active torsions:
REMARK  status: ('A' for Active; 'I' for Inactive)
REMARK    1  A    between atoms: N2_4  and  N3_6
REMARK    2  A    between atoms: N3_6  and  C3_8
REMARK    3  A    between atoms: C3_8  and  C8_28
REMARK       I    between atoms: N4_9  and  C4_11
REMARK    4  A    between atoms: C4_11  and  C5_13
REMARK    5  A    between atoms: C5_13  and  N5_14
REMARK    6  A    between atoms: N5_14  and  C6_16
REMARK    7  A    between atoms: C7_19  and  N7_20
REMARK    8  A    between atoms: N7_20  and  N8_22
ROOT
HETATM    1  C3  UNL     1       5.863  19.010   2.707  1.00  0.00     0.189 C
HETATM    2  N4  UNL     1       5.325  20.081   3.083  1.00  0.00    -0.306 N
ATOM      3  H4  UNL     1       5.920  20.909   3.096  1.00  0.00     0.170 HD
HETATM    4  C4  UNL     1       4.003  20.260   3.484  1.00  0.00     0.241 C
HETATM    5  O1  UNL     1       3.089  20.436   2.625  1.00  0.00    -0.271 OA
ENDROOT
BRANCH   4   6
HETATM    6  C5  UNL     1       3.628  20.253   4.910  1.00  0.00     0.241 C
BRANCH   6   7
HETATM    7  N5  UNL     1       4.052  21.469   5.557  1.00  0.00    -0.217 N
ATOM      8  H5  UNL     1       4.286  21.439   6.550  1.00  0.00     0.178 HD
BRANCH   7   9
HETATM    9  C6  UNL     1       4.161  22.736   4.856  1.00  0.00     0.686 A
HETATM   10  N6  UNL     1       3.156  23.262   4.230  1.00  0.00    -0.167 N
HETATM   11  C7  UNL     1       3.307  24.415   3.607  1.00  0.00     0.194 A
ATOM     12  H6  UNL     1       2.254  22.787   4.219  1.00  0.00     0.186 HD
HETATM   13  S1  UNL     1       4.945  24.766   3.925  1.00  0.00     0.040 SA
HETATM   14  N9  UNL     1       5.324  23.399   4.840  1.00  0.00    -0.157 N
ATOM     15  H9  UNL     1       6.212  23.144   5.272  1.00  0.00     0.193 HD
BRANCH  11  16
HETATM   16  N7  UNL     1       2.378  25.054   2.941  1.00  0.00    -0.285 N
ATOM     17  H7  UNL     1       1.435  24.678   2.851  1.00  0.00     0.188 HD
BRANCH  16  18
HETATM   18  N8  UNL     1       2.738  26.283   2.353  1.00  0.00    -0.343 N
ATOM     19  H82 UNL     1       3.414  26.897   2.808  1.00  0.00     0.176 HD
ATOM     20  H81 UNL     1       2.295  26.522   1.466  1.00  0.00     0.176 HD
ENDBRANCH  16  18
ENDBRANCH  11  16
ENDBRANCH   7   9
ENDBRANCH   6   7
ENDBRANCH   4   6
BRANCH   1  21
HETATM   21  N3  UNL     1       7.271  19.134   2.348  1.00  0.00    -0.280 N
ATOM     22  H3  UNL     1       7.716  20.049   2.284  1.00  0.00     0.188 HD
BRANCH  21  23
HETATM   23  N2  UNL     1       7.990  17.975   2.095  1.00  0.00    -0.290 N
HETATM   24  C2  UNL     1       8.513  17.792   0.940  1.00  0.00     0.103 C
HETATM   25  C1  UNL     1       8.345  18.813  -0.107  1.00  0.00     0.086 C
HETATM   26  N1  UNL     1       9.261  16.599   0.658  1.00  0.00    -0.087 NA
ATOM     27  H2  UNL     1       8.102  17.272   2.826  1.00  0.00     0.188 HD
ENDBRANCH  21  23
ENDBRANCH   1  21
BRANCH   1  28
HETATM   28  C8  UNL     1       5.199  17.746   2.618  1.00  0.00     0.300 C
HETATM   29  N10 UNL     1       5.064  16.858   3.689  1.00  0.00    -0.054 NA
HETATM   30  O2  UNL     1       4.693  17.391   1.497  1.00  0.00    -0.268 OA
ENDBRANCH   1  28
TORSDOF 8
ENDMDL