MODEL 5
REMARK VINA RESULT: -7.263842762      2.004      3.890
REMARK  5 active torsions:
REMARK  status: ('A' for Active; 'I' for Inactive)
REMARK    1  A    between atoms: O1_2  and  C2_3
REMARK    2  A    between atoms: C2_3  and  C3_5
REMARK    3  A    between atoms: C3_5  and  N1_6
REMARK    4  A    between atoms: C3_5  and  C5_11
REMARK       I    between atoms: N1_6  and  C4_8
REMARK    5  A    between atoms: C7_18  and  C8_19
REMARK       I    between atoms: C8_19  and  N6_21
REMARK       I    between atoms: N6_21  and  C9_23
ROOT
HETATM    1  C5  UNL     1       4.519  21.925   3.074  1.00  0.00     0.118 A
HETATM    2  N3  UNL     1       5.623  22.050   2.318  1.00  0.00    -0.318 N
ATOM      3  H3  UNL     1       6.187  22.895   2.399  1.00  0.00     0.170 HD
HETATM    4  C6  UNL     1       6.007  21.079   1.447  1.00  0.00     0.195 A
HETATM    5  N4  UNL     1       7.181  21.216   0.646  1.00  0.00    -0.063 NA
HETATM    6  N5  UNL     1       5.219  19.990   1.384  1.00  0.00    -0.312 N
ATOM      7  H5  UNL     1       5.482  19.244   0.739  1.00  0.00     0.170 HD
HETATM    8  C7  UNL     1       4.107  19.825   2.122  1.00  0.00     0.178 A
HETATM    9  N9  UNL     1       3.773  20.816   2.968  1.00  0.00    -0.325 N
ATOM     10  H9  UNL     1       2.936  20.722   3.542  1.00  0.00     0.169 HD
ENDROOT
BRANCH   1  11
HETATM   11  C3  UNL     1       4.141  23.033   4.024  1.00  0.00     0.253 C
BRANCH  11  12
HETATM   12  C2  UNL     1       4.426  24.298   3.302  1.00  0.00     0.289 C
HETATM   13  O2  UNL     1       5.307  25.059   3.731  1.00  0.00    -0.262 OA
BRANCH  12  14
HETATM   14  O1  UNL     1       3.704  24.604   2.159  1.00  0.00    -0.325 OA
HETATM   15  C1  UNL     1       2.900  25.782   2.070  1.00  0.00     0.213 C
ENDBRANCH  12  14
ENDBRANCH  11  12
BRANCH  11  16
HETATM   16  N1  UNL     1       5.032  22.916   5.163  1.00  0.00    -0.325 N
HETATM   17  C4  UNL     1       4.758  22.033   6.234  1.00  0.00     0.329 C
HETATM   18  N2  UNL     1       5.620  21.911   7.351  1.00  0.00    -0.040 NA
HETATM   19  O3  UNL     1       3.712  21.323   6.206  1.00  0.00    -0.251 OA
ATOM     20  H1  UNL     1       5.878  23.484   5.192  1.00  0.00     0.165 HD
ENDBRANCH  11  16
ENDBRANCH   1  11
BRANCH   8  21
HETATM   21  C8  UNL     1       3.341  18.612   1.969  1.00  0.00     0.292 C
HETATM   22  O4  UNL     1       3.627  17.581   2.620  1.00  0.00    -0.264 OA
HETATM   23  N6  UNL     1       2.238  18.551   1.076  1.00  0.00    -0.295 N
HETATM   24  C9  UNL     1       1.484  17.354   0.927  1.00  0.00     0.188 C
ATOM     25  H6  UNL     1       1.984  19.376   0.533  1.00  0.00     0.171 HD
HETATM   26  N7  UNL     1       0.491  17.323   0.113  1.00  0.00    -0.373 N
HETATM   27  N8  UNL     1       1.813  16.190   1.668  1.00  0.00    -0.064 NA
ATOM     28  H72 UNL     1       0.254  18.160  -0.419  1.00  0.00     0.158 HD
ATOM     29  H71 UNL     1      -0.051  16.465   0.007  1.00  0.00     0.158 HD
ENDBRANCH   8  21
TORSDOF 5
ENDMDL