MODEL 2
REMARK VINA RESULT: -7.121781670      1.727      3.430
REMARK  9 active torsions:
REMARK  status: ('A' for Active; 'I' for Inactive)
REMARK    1  A    between atoms: N1_1  and  C1_4
REMARK    2  A    between atoms: C2_7  and  O1_8
REMARK    3  A    between atoms: C3_12  and  C4_13
REMARK       I    between atoms: C4_13  and  N4_15
REMARK    4  A    between atoms: N4_15  and  C5_17
REMARK    5  A    between atoms: C5_17  and  C6_18
REMARK    6  A    between atoms: C5_17  and  C7_21
REMARK       I    between atoms: C7_21  and  N6_23
REMARK    7  A    between atoms: N6_23  and  N7_25
REMARK    8  A    between atoms: C8_28  and  N8_29
REMARK    9  A    between atoms: N8_29  and  O5_31
ROOT
HETATM    1  C1  UNL     1      79.751  14.108  17.882  1.00  0.00     0.133 A
HETATM    2  N2  UNL     1      79.297  13.584  19.034  1.00  0.00    -0.307 N
ATOM      3  H2  UNL     1      79.924  13.493  19.833  1.00  0.00     0.171 HD
HETATM    4  C2  UNL     1      78.020  13.178  19.138  1.00  0.00     0.223 A
HETATM    5  N3  UNL     1      77.168  13.282  18.105  1.00  0.00    -0.316 N
ATOM      6  H3  UNL     1      76.204  12.965  18.215  1.00  0.00     0.169 HD
HETATM    7  C3  UNL     1      77.564  13.798  16.924  1.00  0.00     0.136 A
HETATM    8  C8  UNL     1      78.872  14.211  16.825  1.00  0.00     0.130 A
ENDROOT
BRANCH   7   9
HETATM    9  C4  UNL     1      76.684  13.932  15.782  1.00  0.00     0.271 C
HETATM   10  O2  UNL     1      76.604  15.031  15.198  1.00  0.00    -0.266 OA
HETATM   11  N4  UNL     1      75.933  12.836  15.339  1.00  0.00    -0.335 N
ATOM     12  H4  UNL     1      76.027  11.955  15.844  1.00  0.00     0.164 HD
BRANCH  11  13
HETATM   13  C5  UNL     1      75.028  12.880  14.205  1.00  0.00     0.268 C
BRANCH  13  14
HETATM   14  C6  UNL     1      74.511  11.515  13.965  1.00  0.00     0.263 C
HETATM   15  N5  UNL     1      74.800  10.402  14.802  1.00  0.00    -0.060 NA
HETATM   16  O3  UNL     1      73.775  11.312  12.974  1.00  0.00    -0.274 OA
ENDBRANCH  13  14
BRANCH  13  17
HETATM   17  C7  UNL     1      73.970  13.896  14.396  1.00  0.00     0.267 C
HETATM   18  O4  UNL     1      73.075  13.682  15.275  1.00  0.00    -0.269 OA
HETATM   19  N6  UNL     1      73.874  15.105  13.667  1.00  0.00    -0.274 N
ATOM     20  H6  UNL     1      74.579  15.304  12.957  1.00  0.00     0.189 HD
BRANCH  19  21
HETATM   21  N7  UNL     1      72.869  16.028  13.876  1.00  0.00    -0.343 N
ATOM     22  H72 UNL     1      72.947  16.634  14.693  1.00  0.00     0.176 HD
ATOM     23  H71 UNL     1      72.067  16.122  13.252  1.00  0.00     0.176 HD
ENDBRANCH  19  21
ENDBRANCH  13  17
ENDBRANCH  11  13
ENDBRANCH   7   9
BRANCH   8  24
HETATM   24  N8  UNL     1      79.346  14.764  15.608  1.00  0.00    -0.263 N
ATOM     25  H8  UNL     1      79.573  14.177  14.804  1.00  0.00     0.194 HD
BRANCH  24  26
HETATM   26  O5  UNL     1      79.474  16.017  15.572  1.00  0.00    -0.289 OA
ATOM     27  H5  UNL     1      79.645  16.448  16.401  1.00  0.00     0.244 HD
ENDBRANCH  24  26
ENDBRANCH   8  24
BRANCH   4  28
HETATM   28  O1  UNL     1      77.570  12.638  20.342  1.00  0.00    -0.332 OA
ATOM     29  H1  UNL     1      76.913  13.104  20.845  1.00  0.00     0.220 HD
ENDBRANCH   4  28
BRANCH   1  30
HETATM   30  N1  UNL     1      80.972  14.502  17.764  1.00  0.00    -0.383 N
ATOM     31  H12 UNL     1      81.428  14.519  16.852  1.00  0.00     0.157 HD
ATOM     32  H11 UNL     1      81.511  14.804  18.576  1.00  0.00     0.157 HD
ENDBRANCH   1  30
TORSDOF 9
ENDMDL