MODEL 3
REMARK VINA RESULT: -7.301661945      1.216      2.879
REMARK  8 active torsions:
REMARK  status: ('A' for Active; 'I' for Inactive)
REMARK    1  A    between atoms: N1_2  and  C2_4
REMARK    2  A    between atoms: C2_4  and  C3_5
REMARK    3  A    between atoms: C2_4  and  C8_23
REMARK    4  A    between atoms: C3_5  and  S1_6
REMARK    5  A    between atoms: S1_6  and  C4_7
REMARK    6  A    between atoms: C6_14  and  N5_15
REMARK       I    between atoms: C8_23  and  N8_25
REMARK    7  A    between atoms: N8_25  and  N9_27
REMARK    8  A    between atoms: N9_27  and  N10_29
ROOT
HETATM    1  C4  UNL     1      77.499  13.846  16.179  1.00  0.00     0.119 A
HETATM    2  N2  UNL     1      78.484  13.765  15.279  1.00  0.00    -0.343 N
ATOM      3  H2  UNL     1      78.307  14.053  14.317  1.00  0.00     0.167 HD
HETATM    4  C5  UNL     1      79.687  13.317  15.612  1.00  0.00     0.199 A
HETATM    5  N3  UNL     1      79.942  12.934  16.873  1.00  0.00    -0.273 N
ATOM      6  H3  UNL     1      80.871  12.592  17.119  1.00  0.00     0.189 HD
HETATM    7  N4  UNL     1      79.002  12.996  17.798  1.00  0.00    -0.064 N
HETATM    8  C6  UNL     1      79.045  12.663  19.112  1.00  0.00     0.713 A
HETATM    9  N6  UNL     1      77.833  12.909  19.610  1.00  0.00    -0.129 N
ATOM     10  H6  UNL     1      77.539  12.761  20.576  1.00  0.00     0.205 HD
HETATM   11  N7  UNL     1      77.073  13.380  18.624  1.00  0.00    -0.267 N
ATOM     12  H7  UNL     1      76.095  13.656  18.712  1.00  0.00     0.189 HD
HETATM   13  C7  UNL     1      77.792  13.435  17.506  1.00  0.00     0.194 A
ENDROOT
BRANCH   1  14
HETATM   14  S1  UNL     1      75.850  14.419  15.930  1.00  0.00    -0.106 SA
BRANCH  14  15
HETATM   15  C3  UNL     1      74.998  13.969  14.484  1.00  0.00     0.115 C
BRANCH  15  16
HETATM   16  C2  UNL     1      73.548  14.029  14.365  1.00  0.00     0.180 C
BRANCH  16  17
HETATM   17  N1  UNL     1      72.864  13.066  13.636  1.00  0.00    -0.413 N
HETATM   18  C1  UNL     1      73.511  11.888  13.198  1.00  0.00     0.140 C
ATOM     19  H1  UNL     1      71.880  13.210  13.412  1.00  0.00     0.153 HD
ENDBRANCH  16  17
BRANCH  16  20
HETATM   20  C8  UNL     1      73.100  15.415  13.902  1.00  0.00     0.260 C
HETATM   21  O1  UNL     1      72.884  15.595  12.688  1.00  0.00    -0.269 OA
HETATM   22  N8  UNL     1      72.928  16.457  14.819  1.00  0.00    -0.254 N
ATOM     23  H8  UNL     1      73.115  16.257  15.802  1.00  0.00     0.191 HD
BRANCH  22  24
HETATM   24  N9  UNL     1      72.525  17.735  14.496  1.00  0.00    -0.247 N
ATOM     25  H9  UNL     1      73.048  18.554  14.804  1.00  0.00     0.207 HD
BRANCH  24  26
HETATM   26  N10 UNL     1      71.389  17.855  13.741  1.00  0.00    -0.331 N
ATOM     27 2H10 UNL     1      71.389  17.588  12.756  1.00  0.00     0.178 HD
ATOM     28 1H10 UNL     1      70.559  18.218  14.209  1.00  0.00     0.178 HD
ENDBRANCH  24  26
ENDBRANCH  22  24
ENDBRANCH  16  20
ENDBRANCH  15  16
ENDBRANCH  14  15
ENDBRANCH   1  14
BRANCH   8  29
HETATM   29  N5  UNL     1      80.080  12.212  19.708  1.00  0.00    -0.231 N
ATOM     30  H52 UNL     1      81.011  12.623  19.775  1.00  0.00     0.174 HD
ATOM     31  H51 UNL     1      80.112  11.329  20.218  1.00  0.00     0.174 HD
ENDBRANCH   8  29
TORSDOF 8
ENDMDL