MODEL 2
REMARK VINA RESULT: -7.495461098      1.400      1.659
REMARK  10 active torsions:
REMARK  status: ('A' for Active; 'I' for Inactive)
REMARK    1  A    between atoms: N1_1  and  C1_4
REMARK    2  A    between atoms: C2_7  and  N3_8
REMARK    3  A    between atoms: N3_8  and  N4_10
REMARK    4  A    between atoms: N7_19  and  C5_20
REMARK    5  A    between atoms: C5_20  and  C6_21
REMARK    6  A    between atoms: C6_21  and  C7_23
REMARK    7  A    between atoms: C7_23  and  C8_24
REMARK    8  A    between atoms: C8_24  and  N8_25
REMARK    9  A    between atoms: C8_24  and  C9_29
REMARK   10  A    between atoms: N9_32  and  N10_33
ROOT
HETATM    1  C1  UNL     1      73.092  14.188  12.203  1.00  0.00     0.700 A
HETATM    2  N2  UNL     1      73.767  15.309  12.506  1.00  0.00    -0.171 N
ATOM      3  H2  UNL     1      73.532  16.185  12.039  1.00  0.00     0.186 HD
HETATM    4  C2  UNL     1      74.750  15.283  13.423  1.00  0.00     0.167 A
HETATM    5  C3  UNL     1      75.054  14.088  14.045  1.00  0.00     0.146 A
HETATM    6  C4  UNL     1      74.329  12.926  13.708  1.00  0.00     0.193 A
HETATM    7  N5  UNL     1      74.855  11.961  14.466  1.00  0.00    -0.267 N
ATOM      8  H5  UNL     1      74.555  10.985  14.468  1.00  0.00     0.190 HD
HETATM    9  N6  UNL     1      75.820  12.462  15.213  1.00  0.00    -0.238 N
ATOM     10  H6  UNL     1      76.379  11.929  15.879  1.00  0.00     0.208 HD
HETATM   11  N7  UNL     1      75.959  13.761  14.974  1.00  0.00    -0.264 N
HETATM   12  N9  UNL     1      73.355  13.006  12.784  1.00  0.00    -0.073 N
ENDROOT
BRANCH  11  13
HETATM   13  C5  UNL     1      76.912  14.612  15.626  1.00  0.00     0.229 C
BRANCH  13  14
HETATM   14  C6  UNL     1      77.974  13.846  16.335  1.00  0.00     0.149 C
HETATM   15  O1  UNL     1      78.760  13.109  15.795  1.00  0.00    -0.296 OA
BRANCH  14  16
HETATM   16  C7  UNL     1      78.054  14.018  17.811  1.00  0.00     0.124 C
BRANCH  16  17
HETATM   17  C8  UNL     1      79.249  13.289  18.390  1.00  0.00     0.290 C
BRANCH  17  18
HETATM   18  N8  UNL     1      78.793  12.274  19.288  1.00  0.00    -0.065 N
ATOM     19  H83 UNL     1      78.104  12.627  19.952  1.00  0.00     0.275 HD
ATOM     20  H82 UNL     1      78.206  11.582  18.823  1.00  0.00     0.275 HD
ATOM     21  H81 UNL     1      79.597  11.851  19.753  1.00  0.00     0.275 HD
ENDBRANCH  17  18
BRANCH  17  22
HETATM   22  C9  UNL     1      80.181  14.223  19.065  1.00  0.00     0.204 C
HETATM   23  O2  UNL     1      80.210  15.412  18.661  1.00  0.00    -0.646 OA
HETATM   24  O3  UNL     1      81.000  13.817  20.107  1.00  0.00    -0.646 OA
ENDBRANCH  17  22
ENDBRANCH  16  17
ENDBRANCH  14  16
ENDBRANCH  13  14
ENDBRANCH  11  13
BRANCH   4  25
HETATM   25  N3  UNL     1      75.429  16.325  13.745  1.00  0.00    -0.290 N
ATOM     26  H3  UNL     1      75.344  16.733  14.676  1.00  0.00     0.188 HD
BRANCH  25  27
HETATM   27  N4  UNL     1      76.285  16.889  12.797  1.00  0.00    -0.344 N
ATOM     28  H42 UNL     1      76.733  16.291  12.103  1.00  0.00     0.176 HD
ATOM     29  H41 UNL     1      76.446  17.897  12.818  1.00  0.00     0.176 HD
ENDBRANCH  25  27
ENDBRANCH   4  25
BRANCH  12  30
HETATM   30  N10 UNL     1      72.630  11.874  12.438  1.00  0.00    -0.322 N
ATOM     31 2H10 UNL     1      71.991  11.899  11.643  1.00  0.00     0.178 HD
ATOM     32 1H10 UNL     1      72.730  11.011  12.972  1.00  0.00     0.178 HD
ENDBRANCH  12  30
BRANCH   1  33
HETATM   33  N1  UNL     1      72.159  14.252  11.323  1.00  0.00    -0.233 N
ATOM     34  H12 UNL     1      71.188  14.254  11.635  1.00  0.00     0.174 HD
ATOM     35  H11 UNL     1      72.421  14.299  10.338  1.00  0.00     0.174 HD
ENDBRANCH   1  33
TORSDOF 10
ENDMDL