MODEL 4
REMARK VINA RESULT: -7.621975735      2.337      3.791
REMARK  8 active torsions:
REMARK  status: ('A' for Active; 'I' for Inactive)
REMARK    1  A    between atoms: C1_2  and  C2_4
REMARK    2  A    between atoms: N3_8  and  C4_10
REMARK    3  A    between atoms: C4_10  and  O2_11
REMARK    4  A    between atoms: C4_10  and  C5_13
REMARK    5  A    between atoms: C4_10  and  C6_21
REMARK    6  A    between atoms: C5_13  and  N4_14
REMARK    7  A    between atoms: C6_21  and  N8_22
REMARK    8  A    between atoms: C6_21  and  O3_26
ROOT
HETATM    1  C4  UNL     1      77.862  13.690  16.294  1.00  0.00     0.205 C
ENDROOT
BRANCH   1   2
HETATM    2  N3  UNL     1      76.824  14.391  15.641  1.00  0.00    -0.340 N
HETATM    3  C3  UNL     1      75.803  13.986  15.019  1.00  0.00     0.108 A
HETATM    4  N2  UNL     1      74.970  14.931  14.487  1.00  0.00    -0.324 N
HETATM    5  C7  UNL     1      75.450  12.679  14.826  1.00  0.00     0.093 A
HETATM    6  C2  UNL     1      73.865  14.635  13.812  1.00  0.00     0.174 A
ATOM      7  H2  UNL     1      75.209  15.915  14.617  1.00  0.00     0.169 HD
HETATM    8  N10 UNL     1      73.558  13.342  13.647  1.00  0.00    -0.327 N
HETATM    9  C8  UNL     1      74.292  12.320  14.120  1.00  0.00     0.121 A
ATOM     10  H10 UNL     1      72.709  13.117  13.127  1.00  0.00     0.168 HD
HETATM   11  N9  UNL     1      73.949  10.961  13.934  1.00  0.00    -0.083 NA
ATOM     12  H3  UNL     1      76.917  15.407  15.677  1.00  0.00     0.164 HD
BRANCH   6  13
HETATM   13  C1  UNL     1      73.041  15.711  13.283  1.00  0.00     0.298 C
HETATM   14  N1  UNL     1      72.645  16.776  14.139  1.00  0.00    -0.054 NA
HETATM   15  O1  UNL     1      72.677  15.701  12.067  1.00  0.00    -0.268 OA
ENDBRANCH   6  13
ENDBRANCH   1   2
BRANCH   1  16
HETATM   16  O2  UNL     1      77.631  12.345  16.538  1.00  0.00    -0.365 OA
ATOM     17  H2  UNL     1      76.860  12.139  17.051  1.00  0.00     0.212 HD
ENDBRANCH   1  16
BRANCH   1  18
HETATM   18  C5  UNL     1      78.149  14.352  17.637  1.00  0.00     0.238 C
BRANCH  18  19
HETATM   19  N4  UNL     1      78.376  13.332  18.660  1.00  0.00    -0.198 N
HETATM   20  N5  UNL     1      77.737  12.851  19.700  1.00  0.00    -0.209 N
HETATM   21  N6  UNL     1      78.737  12.031  19.912  1.00  0.00    -0.211 N
ATOM     22  H5  UNL     1      76.843  13.036  20.152  1.00  0.00     0.211 HD
HETATM   23  N7  UNL     1      79.379  12.510  18.872  1.00  0.00    -0.209 N
ATOM     24  H6  UNL     1      78.935  11.310  20.605  1.00  0.00     0.211 HD
ATOM     25  H7  UNL     1      80.274  12.324  18.421  1.00  0.00     0.211 HD
ENDBRANCH  18  19
ENDBRANCH   1  18
BRANCH   1  26
HETATM   26  C6  UNL     1      79.175  13.734  15.507  1.00  0.00     0.374 C
BRANCH  26  27
HETATM   27  N8  UNL     1      78.930  13.676  14.085  1.00  0.00    -0.048 N
ATOM     28  H83 UNL     1      78.109  13.112  13.868  1.00  0.00     0.277 HD
ATOM     29  H82 UNL     1      78.604  14.573  13.724  1.00  0.00     0.277 HD
ATOM     30  H81 UNL     1      79.756  13.347  13.584  1.00  0.00     0.277 HD
ENDBRANCH  26  27
BRANCH  26  31
HETATM   31  O3  UNL     1      79.900  12.613  15.874  1.00  0.00    -0.366 OA
ATOM     32  H3  UNL     1      80.538  12.896  16.518  1.00  0.00     0.212 HD
ENDBRANCH  26  31
ENDBRANCH   1  26
TORSDOF 8
ENDMDL