MODEL 2
REMARK VINA RESULT: -7.217408631      1.742      5.413
REMARK  8 active torsions:
REMARK  status: ('A' for Active; 'I' for Inactive)
REMARK    1  A    between atoms: N1_1  and  C1_4
REMARK    2  A    between atoms: C2_7  and  O1_8
REMARK    3  A    between atoms: O1_8  and  C3_9
REMARK    4  A    between atoms: C4_10  and  N3_11
REMARK    5  A    between atoms: N5_18  and  C6_19
REMARK    6  A    between atoms: C6_19  and  C7_20
REMARK    7  A    between atoms: C7_20  and  N6_21
REMARK    8  A    between atoms: C7_20  and  O5_25
ROOT
HETATM    1  C3  UNL     1      78.309  13.349  16.856  1.00  0.00     0.207 A
HETATM    2  C4  UNL     1      78.457  13.645  18.231  1.00  0.00     0.224 A
HETATM    3  C5  UNL     1      77.314  14.330  18.553  1.00  0.00     0.297 A
HETATM    4  O4  UNL     1      77.090  14.765  19.723  1.00  0.00    -0.264 OA
HETATM    5  N4  UNL     1      76.565  14.424  17.457  1.00  0.00    -0.260 N
ATOM      6  H4  UNL     1      75.658  14.889  17.423  1.00  0.00     0.190 HD
HETATM    7  N5  UNL     1      77.148  13.833  16.405  1.00  0.00    -0.261 N
ENDROOT
BRANCH   1   8
HETATM    8  O1  UNL     1      79.284  12.653  16.177  1.00  0.00    -0.257 OA
BRANCH   8   9
HETATM    9  C2  UNL     1      80.411  13.197  15.585  1.00  0.00     0.248 A
HETATM   10  N2  UNL     1      81.394  12.327  15.159  1.00  0.00    -0.154 N
HETATM   11  C1  UNL     1      82.493  12.825  14.582  1.00  0.00     0.683 A
ATOM     12  H2  UNL     1      81.283  11.320  15.281  1.00  0.00     0.188 HD
HETATM   13  N8  UNL     1      82.700  14.136  14.392  1.00  0.00    -0.141 N
HETATM   14  C8  UNL     1      81.729  14.965  14.816  1.00  0.00     0.341 A
ATOM     15  H8  UNL     1      83.550  14.487  13.949  1.00  0.00     0.189 HD
HETATM   16  N7  UNL     1      80.601  14.492  15.405  1.00  0.00    -0.273 N
HETATM   17  O6  UNL     1      81.819  16.206  14.688  1.00  0.00    -0.246 OA
ATOM     18  H7  UNL     1      79.886  15.149  15.714  1.00  0.00     0.174 HD
BRANCH  11  19
HETATM   19  N1  UNL     1      83.382  11.952  14.201  1.00  0.00    -0.234 N
ATOM     20  H12 UNL     1      84.153  11.694  14.817  1.00  0.00     0.174 HD
ATOM     21  H11 UNL     1      83.250  11.560  13.269  1.00  0.00     0.174 HD
ENDBRANCH  11  19
ENDBRANCH   8   9
ENDBRANCH   1   8
BRANCH   2  22
HETATM   22  N3  UNL     1      79.569  13.287  19.050  1.00  0.00    -0.105 N
HETATM   23  O2  UNL     1      79.597  12.205  19.686  1.00  0.00    -0.531 OA
HETATM   24  O3  UNL     1      80.676  14.099  19.193  1.00  0.00    -0.531 OA
ENDBRANCH   2  22
BRANCH   7  25
HETATM   25  C6  UNL     1      76.550  13.771  15.075  1.00  0.00     0.212 C
BRANCH  25  26
HETATM   26  C7  UNL     1      75.255  12.962  15.144  1.00  0.00     0.336 C
BRANCH  26  27
HETATM   27  N6  UNL     1      74.169  13.922  15.063  1.00  0.00    -0.051 N
ATOM     28  H63 UNL     1      74.117  14.400  14.163  1.00  0.00     0.277 HD
ATOM     29  H62 UNL     1      73.246  13.488  15.029  1.00  0.00     0.277 HD
ATOM     30  H61 UNL     1      74.288  14.557  15.852  1.00  0.00     0.277 HD
ENDBRANCH  26  27
BRANCH  26  31
HETATM   31  O5  UNL     1      75.199  12.220  16.322  1.00  0.00    -0.369 OA
ATOM     32  H5  UNL     1      74.341  11.830  16.433  1.00  0.00     0.212 HD
ENDBRANCH  26  31
ENDBRANCH  25  26
ENDBRANCH   7  25
TORSDOF 8
ENDMDL