MODEL 2
REMARK VINA RESULT: -7.175631333      2.615      3.796
REMARK  6 active torsions:
REMARK  status: ('A' for Active; 'I' for Inactive)
REMARK    1  A    between atoms: N1_1  and  C1_4
REMARK    2  A    between atoms: C2_9  and  S1_10
REMARK    3  A    between atoms: S1_10  and  N4_13
REMARK    4  A    between atoms: N4_13  and  C3_15
REMARK    5  A    between atoms: C3_15  and  N5_16
REMARK    6  A    between atoms: C3_15  and  C4_20
ROOT
HETATM    1  N4  UNL     1      75.171  14.369  15.160  1.00  0.00    -0.280 N
ATOM      2  H4  UNL     1      74.754  14.667  16.041  1.00  0.00     0.175 HD
ENDROOT
BRANCH   1   3
HETATM    3  S1  UNL     1      76.868  14.315  14.897  1.00  0.00     0.283 S
HETATM    4  O1  UNL     1      77.337  15.737  14.675  1.00  0.00    -0.199 OA
HETATM    5  O2  UNL     1      77.209  13.516  13.673  1.00  0.00    -0.199 OA
BRANCH   3   6
HETATM    6  C2  UNL     1      77.663  13.697  16.328  1.00  0.00     0.233 A
HETATM    7  N3  UNL     1      78.841  13.053  16.168  1.00  0.00    -0.270 N
HETATM    8  N2  UNL     1      79.480  12.568  17.220  1.00  0.00    -0.131 N
ATOM      9  H3  UNL     1      79.238  12.942  15.236  1.00  0.00     0.188 HD
HETATM   10  C1  UNL     1      79.018  12.676  18.481  1.00  0.00     0.693 A
ATOM     11  H2  UNL     1      80.367  12.087  17.068  1.00  0.00     0.205 HD
HETATM   12  N9  UNL     1      77.844  13.317  18.644  1.00  0.00    -0.153 N
HETATM   13  C6  UNL     1      77.171  13.822  17.591  1.00  0.00     0.301 A
ATOM     14  H9  UNL     1      77.458  13.424  19.581  1.00  0.00     0.187 HD
HETATM   15  O4  UNL     1      76.070  14.424  17.743  1.00  0.00    -0.264 OA
BRANCH  10  16
HETATM   16  N1  UNL     1      79.652  12.200  19.473  1.00  0.00    -0.233 N
ATOM     17  H12 UNL     1      79.612  11.207  19.700  1.00  0.00     0.174 HD
ATOM     18  H11 UNL     1      80.224  12.786  20.081  1.00  0.00     0.174 HD
ENDBRANCH  10  16
ENDBRANCH   3   6
ENDBRANCH   1   3
BRANCH   1  19
HETATM   19  C3  UNL     1      74.399  13.958  14.031  1.00  0.00     0.347 C
BRANCH  19  20
HETATM   20  N5  UNL     1      74.941  14.492  12.796  1.00  0.00    -0.052 N
ATOM     21  H53 UNL     1      74.233  14.531  12.063  1.00  0.00     0.277 HD
ATOM     22  H52 UNL     1      75.139  15.489  12.876  1.00  0.00     0.277 HD
ATOM     23  H51 UNL     1      75.763  13.970  12.494  1.00  0.00     0.277 HD
ENDBRANCH  19  20
BRANCH  19  24
HETATM   24  C4  UNL     1      74.270  12.467  13.950  1.00  0.00     0.129 A
HETATM   25  N6  UNL     1      74.991  11.551  14.644  1.00  0.00    -0.238 N
HETATM   26  O3  UNL     1      74.587  10.366  14.299  1.00  0.00    -0.155 OA
ATOM     27  H6  UNL     1      75.727  11.759  15.320  1.00  0.00     0.196 HD
HETATM   28  N7  UNL     1      73.640  10.432  13.419  1.00  0.00    -0.224 N
HETATM   29  C5  UNL     1      73.406  11.724  13.168  1.00  0.00     0.150 A
ATOM     30  H7  UNL     1      73.159   9.639  12.993  1.00  0.00     0.198 HD
HETATM   31  N8  UNL     1      72.534  12.234  12.345  1.00  0.00    -0.382 N
ATOM     32  H82 UNL     1      72.356  13.220  12.154  1.00  0.00     0.157 HD
ATOM     33  H81 UNL     1      71.897  11.685  11.768  1.00  0.00     0.157 HD
ENDBRANCH  19  24
ENDBRANCH   1  19
TORSDOF 6
ENDMDL