MODEL 4
REMARK VINA RESULT: -6.734044755      1.670      7.307
REMARK  9 active torsions:
REMARK  status: ('A' for Active; 'I' for Inactive)
REMARK    1  A    between atoms: N1_1  and  C1_4
REMARK    2  A    between atoms: C2_7  and  N3_8
REMARK    3  A    between atoms: N4_11  and  C3_12
REMARK    4  A    between atoms: C3_12  and  N5_13
REMARK    5  A    between atoms: C3_12  and  C4_17
REMARK    6  A    between atoms: C4_17  and  C5_18
REMARK    7  A    between atoms: C5_18  and  N6_19
REMARK    8  A    between atoms: C5_18  and  C6_23
REMARK    9  A    between atoms: C6_23  and  N7_24
ROOT
HETATM    1  C3  UNL     1      75.365  15.397  14.780  1.00  0.00     0.312 C
ENDROOT
BRANCH   1   2
HETATM    2  N4  UNL     1      74.492  15.129  13.723  1.00  0.00    -0.101 N
HETATM    3  C2  UNL     1      73.565  16.047  13.383  1.00  0.00     0.698 A
HETATM    4  N2  UNL     1      72.690  15.835  12.358  1.00  0.00    -0.022 N
HETATM    5  C1  UNL     1      72.722  14.695  11.648  1.00  0.00     0.694 A
ATOM      6  H2  UNL     1      72.001  16.552  12.128  1.00  0.00     0.203 HD
HETATM    7  N10 UNL     1      73.645  13.758  11.971  1.00  0.00    -0.140 N
HETATM    8  C9  UNL     1      74.493  13.990  12.982  1.00  0.00     0.357 A
ATOM      9  H10 UNL     1      73.694  12.882  11.450  1.00  0.00     0.189 HD
HETATM   10  O2  UNL     1      75.349  13.121  13.281  1.00  0.00    -0.245 OA
BRANCH   3  11
HETATM   11  N3  UNL     1      73.443  17.179  13.997  1.00  0.00    -0.234 N
ATOM     12  H32 UNL     1      72.638  17.405  14.582  1.00  0.00     0.174 HD
ATOM     13  H31 UNL     1      74.208  17.840  13.859  1.00  0.00     0.174 HD
ENDBRANCH   3  11
BRANCH   5  14
HETATM   14  N1  UNL     1      71.881  14.524  10.685  1.00  0.00    -0.234 N
ATOM     15  H12 UNL     1      71.069  15.129  10.562  1.00  0.00     0.174 HD
ATOM     16  H11 UNL     1      72.027  13.762  10.022  1.00  0.00     0.174 HD
ENDBRANCH   5  14
ENDBRANCH   1   2
BRANCH   1  17
HETATM   17  N5  UNL     1      76.734  15.270  14.335  1.00  0.00    -0.057 N
ATOM     18  H53 UNL     1      76.836  14.560  13.611  1.00  0.00     0.276 HD
ATOM     19  H52 UNL     1      77.036  16.080  13.793  1.00  0.00     0.276 HD
ATOM     20  H51 UNL     1      77.345  15.094  15.132  1.00  0.00     0.276 HD
ENDBRANCH   1  17
BRANCH   1  21
HETATM   21  C4  UNL     1      75.260  14.615  16.034  1.00  0.00     0.090 C
BRANCH  21  22
HETATM   22  C5  UNL     1      76.437  13.707  16.321  1.00  0.00     0.207 C
BRANCH  22  23
HETATM   23  N6  UNL     1      76.099  12.310  16.131  1.00  0.00    -0.073 N
ATOM     24  H63 UNL     1      75.795  11.879  17.004  1.00  0.00     0.274 HD
ATOM     25  H62 UNL     1      75.239  12.206  15.593  1.00  0.00     0.274 HD
ATOM     26  H61 UNL     1      76.867  11.787  15.708  1.00  0.00     0.274 HD
ENDBRANCH  22  23
BRANCH  22  27
HETATM   27  C6  UNL     1      76.846  13.971  17.762  1.00  0.00     0.186 C
BRANCH  27  28
HETATM   28  N7  UNL     1      78.269  14.109  17.923  1.00  0.00    -0.240 N
HETATM   29  N8  UNL     1      79.173  14.780  17.228  1.00  0.00    -0.290 N
HETATM   30  C7  UNL     1      80.397  14.621  17.766  1.00  0.00     0.201 A
ATOM     31  H8  UNL     1      78.971  15.340  16.401  1.00  0.00     0.188 HD
HETATM   32  N9  UNL     1      80.269  13.824  18.835  1.00  0.00    -0.302 N
HETATM   33  C8  UNL     1      78.964  13.519  18.920  1.00  0.00     0.342 A
ATOM     34  H9  UNL     1      81.013  13.512  19.459  1.00  0.00     0.171 HD
HETATM   35  O1  UNL     1      78.468  12.774  19.821  1.00  0.00    -0.245 OA
ENDBRANCH  27  28
ENDBRANCH  22  27
ENDBRANCH  21  22
ENDBRANCH   1  21
TORSDOF 9
ENDMDL