MODEL 5
REMARK VINA RESULT: -7.760699797      2.563      7.854
REMARK  6 active torsions:
REMARK  status: ('A' for Active; 'I' for Inactive)
REMARK       I    between atoms: C1_4  and  N2_5
REMARK       I    between atoms: C1_4  and  N4_10
REMARK    1  A    between atoms: N2_5  and  N3_7
REMARK    2  A    between atoms: N4_10  and  C2_12
REMARK    3  A    between atoms: C2_12  and  C3_13
REMARK       I    between atoms: C3_13  and  N5_15
REMARK    4  A    between atoms: N5_15  and  N6_17
REMARK    5  A    between atoms: C4_19  and  C5_20
REMARK    6  A    between atoms: C7_29  and  N10_30
ROOT
HETATM    1  C3  UNL     1      76.477  13.891  17.205  1.00  0.00     0.254 C
HETATM    2  O1  UNL     1      76.884  13.038  16.341  1.00  0.00    -0.270 OA
HETATM    3  N5  UNL     1      75.593  14.885  16.777  1.00  0.00    -0.269 N
ATOM      4  H5  UNL     1      75.259  15.572  17.452  1.00  0.00     0.190 HD
ENDROOT
BRANCH   3   5
HETATM    5  N6  UNL     1      75.153  14.968  15.453  1.00  0.00    -0.307 N
HETATM    6  C4  UNL     1      73.928  15.124  15.125  1.00  0.00     0.141 C
ATOM      7  H6  UNL     1      75.847  14.901  14.708  1.00  0.00     0.186 HD
BRANCH   6   8
HETATM    8  C5  UNL     1      73.394  15.219  13.790  1.00  0.00     0.105 A
HETATM    9  N7  UNL     1      72.888  16.395  13.320  1.00  0.00    -0.282 N
HETATM   10  N8  UNL     1      72.371  16.555  12.131  1.00  0.00    -0.239 N
ATOM     11  H7  UNL     1      72.916  17.206  13.939  1.00  0.00     0.188 HD
HETATM   12  N9  UNL     1      72.300  15.568  11.282  1.00  0.00    -0.250 N
ATOM     13  H8  UNL     1      72.014  17.471  11.860  1.00  0.00     0.208 HD
HETATM   14  C6  UNL     1      72.763  14.372  11.633  1.00  0.00     0.296 A
ATOM     15  H9  UNL     1      71.894  15.711  10.358  1.00  0.00     0.192 HD
HETATM   16  O2  UNL     1      72.683  13.429  10.794  1.00  0.00    -0.264 OA
HETATM   17  C7  UNL     1      73.329  14.150  12.899  1.00  0.00     0.201 A
BRANCH  17  18
HETATM   18  N10 UNL     1      73.810  12.884  13.244  1.00  0.00    -0.107 N
HETATM   19  O3  UNL     1      75.001  12.598  13.079  1.00  0.00    -0.531 OA
HETATM   20  O4  UNL     1      72.960  11.943  13.750  1.00  0.00    -0.531 OA
ENDBRANCH  17  18
ENDBRANCH   6   8
ENDBRANCH   3   5
BRANCH   1  21
HETATM   21  C2  UNL     1      77.000  13.706  18.556  1.00  0.00     0.242 C
BRANCH  21  22
HETATM   22  N4  UNL     1      78.264  14.310  18.832  1.00  0.00    -0.216 N
HETATM   23  C1  UNL     1      79.457  13.583  18.601  1.00  0.00     0.686 C
HETATM   24  N1  UNL     1      79.539  12.353  18.981  1.00  0.00    -0.234 N
HETATM   25  N2  UNL     1      80.592  14.120  17.971  1.00  0.00    -0.139 N
ATOM     26  H12 UNL     1      80.398  11.829  18.815  1.00  0.00     0.174 HD
ATOM     27  H11 UNL     1      78.714  11.962  19.438  1.00  0.00     0.174 HD
ATOM     28  H2  UNL     1      81.142  14.839  18.442  1.00  0.00     0.205 HD
ATOM     29  H4  UNL     1      78.307  15.262  19.194  1.00  0.00     0.178 HD
BRANCH  25  30
HETATM   30  N3  UNL     1      80.969  13.678  16.714  1.00  0.00    -0.331 N
ATOM     31  H32 UNL     1      80.702  14.230  15.898  1.00  0.00     0.177 HD
ATOM     32  H31 UNL     1      81.503  12.816  16.609  1.00  0.00     0.177 HD
ENDBRANCH  25  30
ENDBRANCH  21  22
ENDBRANCH   1  21
TORSDOF 6
ENDMDL