MODEL 2
REMARK VINA RESULT: -6.240244409      1.372      1.998
REMARK  10 active torsions:
REMARK  status: ('A' for Active; 'I' for Inactive)
REMARK    1  A    between atoms: O1_2  and  C2_3
REMARK    2  A    between atoms: C2_3  and  C3_5
REMARK    3  A    between atoms: C4_8  and  N2_9
REMARK    4  A    between atoms: C5_14  and  N4_15
REMARK    5  A    between atoms: C6_18  and  O3_19
REMARK    6  A    between atoms: O3_19  and  C7_20
REMARK    7  A    between atoms: C7_20  and  N5_21
REMARK    8  A    between atoms: C7_20  and  C8_25
REMARK    9  A    between atoms: C8_25  and  C9_30
REMARK   10  A    between atoms: N6_26  and  O4_28
ROOT
HETATM    1  C3  UNL     1      77.242  14.112  14.364  1.00  0.00     0.161 A
HETATM    2  N1  UNL     1      76.394  13.668  13.368  1.00  0.00    -0.183 N
ATOM      3  H1  UNL     1      76.644  13.830  12.393  1.00  0.00     0.184 HD
HETATM    4  C4  UNL     1      75.254  13.032  13.649  1.00  0.00     0.678 A
HETATM    5  N3  UNL     1      74.936  12.827  14.929  1.00  0.00    -0.174 N
ATOM      6  H3  UNL     1      74.063  12.342  15.136  1.00  0.00     0.186 HD
HETATM    7  C5  UNL     1      75.716  13.232  15.981  1.00  0.00     0.151 A
HETATM    8  C6  UNL     1      76.905  13.891  15.679  1.00  0.00     0.149 A
ENDROOT
BRANCH   8   9
HETATM    9  O3  UNL     1      77.687  14.284  16.765  1.00  0.00    -0.306 OA
BRANCH   9  10
HETATM   10  C7  UNL     1      78.800  13.613  17.267  1.00  0.00     0.382 C
BRANCH  10  11
HETATM   11  N5  UNL     1      78.708  12.153  17.123  1.00  0.00    -0.047 N
ATOM     12  H53 UNL     1      78.571  11.892  16.147  1.00  0.00     0.277 HD
ATOM     13  H52 UNL     1      79.614  11.714  17.287  1.00  0.00     0.277 HD
ATOM     14  H51 UNL     1      77.989  11.737  17.715  1.00  0.00     0.277 HD
ENDBRANCH  10  11
BRANCH  10  15
HETATM   15  C8  UNL     1      79.051  13.976  18.661  1.00  0.00     0.152 C
HETATM   16  N6  UNL     1      78.217  13.659  19.619  1.00  0.00    -0.264 N
ATOM     17  H6  UNL     1      78.403  13.918  20.589  1.00  0.00     0.194 HD
BRANCH  16  18
HETATM   18  O4  UNL     1      77.085  12.967  19.272  1.00  0.00    -0.289 OA
ATOM     19  H4  UNL     1      76.517  12.674  19.975  1.00  0.00     0.244 HD
ENDBRANCH  16  18
BRANCH  15  20
HETATM   20  C9  UNL     1      80.234  14.724  19.091  1.00  0.00     0.283 C
HETATM   21  N7  UNL     1      80.785  15.798  18.359  1.00  0.00    -0.056 NA
HETATM   22  O5  UNL     1      80.771  14.375  20.173  1.00  0.00    -0.270 OA
ENDBRANCH  15  20
ENDBRANCH  10  15
ENDBRANCH   9  10
ENDBRANCH   8   9
BRANCH   1  23
HETATM   23  C2  UNL     1      78.435  14.821  13.959  1.00  0.00     0.313 C
HETATM   24  O2  UNL     1      78.580  16.031  14.074  1.00  0.00    -0.258 OA
BRANCH  23  25
HETATM   25  O1  UNL     1      79.504  14.114  13.402  1.00  0.00    -0.321 OA
HETATM   26  C1  UNL     1      80.650  13.809  14.169  1.00  0.00     0.213 C
ENDBRANCH  23  25
ENDBRANCH   1  23
BRANCH   7  27
HETATM   27  N4  UNL     1      75.251  13.012  17.139  1.00  0.00    -0.383 N
ATOM     28  H42 UNL     1      74.477  13.505  17.584  1.00  0.00     0.157 HD
ATOM     29  H41 UNL     1      75.670  12.237  17.652  1.00  0.00     0.157 HD
ENDBRANCH   7  27
BRANCH   4  30
HETATM   30  N2  UNL     1      74.463  12.616  12.690  1.00  0.00    -0.234 N
ATOM     31  H22 UNL     1      74.456  13.084  11.783  1.00  0.00     0.174 HD
ATOM     32  H21 UNL     1      73.842  11.821  12.833  1.00  0.00     0.174 HD
ENDBRANCH   4  30
TORSDOF 10
ENDMDL