MODEL 4
REMARK VINA RESULT: -6.808845056      1.333      1.532
REMARK  9 active torsions:
REMARK  status: ('A' for Active; 'I' for Inactive)
REMARK    1  A    between atoms: N1_1  and  C1_4
REMARK    2  A    between atoms: C2_7  and  N3_8
REMARK    3  A    between atoms: N4_10  and  O1_11
REMARK    4  A    between atoms: N4_10  and  N5_13
REMARK    5  A    between atoms: N5_13  and  N6_15
REMARK    6  A    between atoms: C3_18  and  N7_19
REMARK    7  A    between atoms: N7_19  and  C4_21
REMARK    8  A    between atoms: C4_21  and  C5_22
REMARK    9  A    between atoms: N9_24  and  N10_26
ROOT
HETATM    1  C1  UNL     1      77.774  13.350  18.827  1.00  0.00     0.680 A
HETATM    2  N2  UNL     1      76.921  13.431  17.790  1.00  0.00    -0.173 N
ATOM      3  H2  UNL     1      75.951  13.155  17.938  1.00  0.00     0.186 HD
HETATM    4  C2  UNL     1      77.282  13.856  16.571  1.00  0.00     0.171 A
HETATM    5  C3  UNL     1      78.589  14.235  16.344  1.00  0.00     0.144 A
HETATM    6  C6  UNL     1      79.476  14.151  17.423  1.00  0.00     0.290 A
HETATM    7  O4  UNL     1      80.677  14.489  17.251  1.00  0.00    -0.265 OA
HETATM    8  N11 UNL     1      79.050  13.717  18.618  1.00  0.00    -0.154 N
ATOM      9  H11 UNL     1      79.713  13.664  19.391  1.00  0.00     0.187 HD
ENDROOT
BRANCH   4  10
HETATM   10  N3  UNL     1      76.356  13.930  15.494  1.00  0.00    -0.239 N
HETATM   11  N4  UNL     1      75.599  12.961  15.189  1.00  0.00    -0.073 N
ATOM     12  H3  UNL     1      76.300  14.791  14.949  1.00  0.00     0.193 HD
BRANCH  11  13
HETATM   13  O1  UNL     1      75.665  11.796  15.913  1.00  0.00    -0.252 OA
ATOM     14  H1  UNL     1      75.427  10.974  15.500  1.00  0.00     0.248 HD
ENDBRANCH  11  13
BRANCH  11  15
HETATM   15  N5  UNL     1      74.691  13.026  14.140  1.00  0.00    -0.140 N
ATOM     16  H5  UNL     1      74.682  13.862  13.556  1.00  0.00     0.219 HD
BRANCH  15  17
HETATM   17  N6  UNL     1      73.794  12.005  13.847  1.00  0.00    -0.020 N
HETATM   18  O2  UNL     1      72.655  12.251  13.408  1.00  0.00    -0.515 OA
HETATM   19  O3  UNL     1      74.101  10.665  14.022  1.00  0.00    -0.515 OA
ENDBRANCH  15  17
ENDBRANCH  11  15
ENDBRANCH   4  10
BRANCH   5  20
HETATM   20  N7  UNL     1      79.039  14.696  15.075  1.00  0.00    -0.376 N
ATOM     21  H7  UNL     1      79.048  15.696  14.877  1.00  0.00     0.160 HD
BRANCH  20  22
HETATM   22  C4  UNL     1      79.487  13.760  14.058  1.00  0.00     0.194 C
BRANCH  22  23
HETATM   23  C5  UNL     1      80.960  13.644  14.083  1.00  0.00     0.124 C
HETATM   24  N8  UNL     1      81.788  14.444  13.267  1.00  0.00    -0.084 NA
HETATM   25  N9  UNL     1      81.519  12.790  14.872  1.00  0.00    -0.296 N
ATOM     26  H9  UNL     1      80.930  12.207  15.466  1.00  0.00     0.187 HD
BRANCH  25  27
HETATM   27  N10 UNL     1      82.904  12.639  14.937  1.00  0.00    -0.344 N
ATOM     28 2H10 UNL     1      83.476  13.483  14.967  1.00  0.00     0.176 HD
ATOM     29 1H10 UNL     1      83.349  11.722  14.954  1.00  0.00     0.176 HD
ENDBRANCH  25  27
ENDBRANCH  22  23
ENDBRANCH  20  22
ENDBRANCH   5  20
BRANCH   1  30
HETATM   30  N1  UNL     1      77.399  12.936  19.997  1.00  0.00    -0.234 N
ATOM     31  H12 UNL     1      76.533  13.283  20.410  1.00  0.00     0.174 HD
ATOM     32  H11 UNL     1      77.944  12.262  20.533  1.00  0.00     0.174 HD
ENDBRANCH   1  30
TORSDOF 9
ENDMDL