MODEL 5
REMARK VINA RESULT: -7.923990472      2.426      6.579
REMARK  14 active torsions:
REMARK  status: ('A' for Active; 'I' for Inactive)
REMARK    1  A    between atoms: N1_1  and  C1_5
REMARK    2  A    between atoms: C1_5  and  O1_6
REMARK    3  A    between atoms: C1_5  and  N2_8
REMARK    4  A    between atoms: N2_8  and  C2_11
REMARK    5  A    between atoms: C4_16  and  N4_17
REMARK    6  A    between atoms: C5_22  and  O3_23
REMARK    7  A    between atoms: C7_27  and  O5_28
REMARK    8  A    between atoms: C7_27  and  O6_30
REMARK    9  A    between atoms: C8_32  and  C9_33
REMARK   10  A    between atoms: C11_40  and  C12_41
REMARK   11  A    between atoms: C12_41  and  O10_42
REMARK   12  A    between atoms: O10_42  and  C13_43
REMARK   13  A    between atoms: C16_46  and  O11_47
REMARK   14  A    between atoms: C19_51  and  O12_52
ROOT
HETATM    1  C2  UNL     1       9.738  11.866  37.088  1.00  0.00     0.417 C
HETATM    2  N3  UNL     1       9.020  10.734  37.711  1.00  0.00    -0.034 N
ATOM      3  H31 UNL     1       9.329  10.469  38.646  1.00  0.00     0.280 HD
ATOM      4  H32 UNL     1       9.197   9.815  37.304  1.00  0.00     0.280 HD
HETATM    5  C3  UNL     1       7.661  11.217  37.609  1.00  0.00     0.263 C
HETATM    6  C4  UNL     1       6.593  10.345  38.087  1.00  0.00     0.353 C
HETATM    7  O2  UNL     1       5.420  10.646  37.400  1.00  0.00    -0.324 OA
HETATM    8  C5  UNL     1       4.773  11.776  37.938  1.00  0.00     0.294 C
HETATM    9  C6  UNL     1       5.369  13.033  37.432  1.00  0.00     0.231 C
HETATM   10  O4  UNL     1       4.591  14.101  37.230  1.00  0.00    -0.314 OA
HETATM   11  C7  UNL     1       3.748  14.577  38.174  1.00  0.00     0.319 C
HETATM   12  C8  UNL     1       4.372  15.077  39.428  1.00  0.00     0.344 C
HETATM   13  O9  UNL     1       5.779  15.293  39.289  1.00  0.00    -0.256 OA
HETATM   14  N5  UNL     1       6.715  14.318  39.018  1.00  0.00    -0.270 N
ATOM     15  H5  UNL     1       7.604  14.410  39.509  1.00  0.00     0.194 HD
HETATM   16  C10 UNL     1       6.617  13.324  38.240  1.00  0.00     0.059 C
HETATM   17  C11 UNL     1       7.840  12.560  38.256  1.00  0.00     0.087 C
HETATM   18  C19 UNL     1       8.891  13.081  37.207  1.00  0.00     0.195 C
ENDROOT
BRANCH   1  19
HETATM   19  N2  UNL     1      10.160  11.486  35.777  1.00  0.00     0.008 N
ATOM     20  H22 UNL     1      10.653  12.228  35.281  1.00  0.00     0.285 HD
ATOM     21  H21 UNL     1       9.389  11.383  35.119  1.00  0.00     0.285 HD
BRANCH  19  22
HETATM   22  C1  UNL     1      10.955  10.266  35.934  1.00  0.00     0.521 C
BRANCH  22  23
HETATM   23  N1  UNL     1      12.087  10.217  35.052  1.00  0.00    -0.027 N
ATOM     24  H13 UNL     1      12.695  11.030  35.156  1.00  0.00     0.279 HD
ATOM     25  H12 UNL     1      12.759   9.500  35.324  1.00  0.00     0.279 HD
ATOM     26  H11 UNL     1      11.759  10.098  34.094  1.00  0.00     0.279 HD
ENDBRANCH  22  23
BRANCH  22  27
HETATM   27  O1  UNL     1      10.133   9.146  35.693  1.00  0.00    -0.349 OA
ATOM     28  H1  UNL     1      10.309   8.483  36.350  1.00  0.00     0.213 HD
ENDBRANCH  22  27
ENDBRANCH  19  22
ENDBRANCH   1  19
BRANCH  18  29
HETATM   29  O12 UNL     1       9.508  14.197  37.724  1.00  0.00    -0.390 OA
ATOM     30  H12 UNL     1       9.327  15.016  37.279  1.00  0.00     0.210 HD
ENDBRANCH  18  29
BRANCH  17  31
HETATM   31  C12 UNL     1       8.632  12.511  39.526  1.00  0.00     0.196 C
BRANCH  31  32
HETATM   32  O10 UNL     1       7.839  12.392  40.658  1.00  0.00    -0.350 OA
BRANCH  32  33
HETATM   33  C13 UNL     1       8.173  12.765  41.933  1.00  0.00     0.069 A
HETATM   34  C14 UNL     1       7.596  12.116  42.994  1.00  0.00     0.039 A
HETATM   35  C15 UNL     1       7.940  12.499  44.290  1.00  0.00     0.039 A
HETATM   36  C16 UNL     1       8.846  13.511  44.487  1.00  0.00     0.065 A
HETATM   37  C17 UNL     1       9.447  14.187  43.420  1.00  0.00     0.039 A
HETATM   38  C18 UNL     1       9.087  13.789  42.151  1.00  0.00     0.039 A
BRANCH  36  39
HETATM   39  O11 UNL     1       9.160  13.856  45.802  1.00  0.00    -0.361 OA
ATOM     40  H11 UNL     1       8.442  13.972  46.413  1.00  0.00     0.217 HD
ENDBRANCH  36  39
ENDBRANCH  32  33
ENDBRANCH  31  32
ENDBRANCH  17  31
BRANCH   6  41
HETATM   41  N4  UNL     1       6.923   8.967  37.636  1.00  0.00    -0.051 N
ATOM     42  H43 UNL     1       6.246   8.270  37.947  1.00  0.00     0.277 HD
ATOM     43  H42 UNL     1       6.794   8.832  36.633  1.00  0.00     0.277 HD
ATOM     44  H41 UNL     1       7.873   8.769  37.948  1.00  0.00     0.277 HD
ENDBRANCH   6  41
BRANCH   8  45
HETATM   45  O3  UNL     1       4.854  11.629  39.339  1.00  0.00    -0.368 OA
ATOM     46  H3  UNL     1       4.654  12.485  39.697  1.00  0.00     0.212 HD
ENDBRANCH   8  45
BRANCH  11  47
HETATM   47  O5  UNL     1       2.706  13.676  38.494  1.00  0.00    -0.341 OA
ATOM     48  H5  UNL     1       1.974  14.093  38.933  1.00  0.00     0.215 HD
ENDBRANCH  11  47
BRANCH  11  49
HETATM   49  O6  UNL     1       3.083  15.651  37.574  1.00  0.00    -0.341 OA
ATOM     50  H6  UNL     1       2.158  15.482  37.706  1.00  0.00     0.215 HD
ENDBRANCH  11  49
BRANCH  12  51
HETATM   51  C9  UNL     1       3.797  16.296  40.012  1.00  0.00     0.214 C
HETATM   52  O7  UNL     1       4.411  17.372  40.049  1.00  0.00    -0.646 OA
HETATM   53  O8  UNL     1       2.518  16.215  40.536  1.00  0.00    -0.646 OA
ENDBRANCH  12  51
TORSDOF 14
ENDMDL