MODEL 4
REMARK VINA RESULT: -7.851546438      3.267      7.562
REMARK  16 active torsions:
REMARK  status: ('A' for Active; 'I' for Inactive)
REMARK    1  A    between atoms: N1_1  and  C1_4
REMARK    2  A    between atoms: C2_9  and  C3_10
REMARK    3  A    between atoms: C3_10  and  O1_11
REMARK    4  A    between atoms: C3_10  and  C4_13
REMARK    5  A    between atoms: C4_13  and  O2_14
REMARK    6  A    between atoms: C4_13  and  C5_16
REMARK    7  A    between atoms: C5_16  and  N4_17
REMARK    8  A    between atoms: C5_16  and  C6_21
REMARK       I    between atoms: C6_21  and  N5_23
REMARK    9  A    between atoms: N5_23  and  C7_25
REMARK   10  A    between atoms: C8_26  and  O4_27
REMARK   11  A    between atoms: C9_29  and  O5_30
REMARK   12  A    between atoms: C10_32  and  O6_33
REMARK   13  A    between atoms: C11_35  and  N6_36
REMARK   14  A    between atoms: N9_44  and  C15_45
REMARK   15  A    between atoms: C15_45  and  N10_46
REMARK   16  A    between atoms: C17_51  and  O7_52
ROOT
HETATM    1  C7  UNL     1      10.394  12.083  38.228  1.00  0.00     0.146 C
HETATM    2  C8  UNL     1      10.544  12.282  39.713  1.00  0.00     0.174 C
HETATM    3  C9  UNL     1       9.514  13.218  40.295  1.00  0.00     0.179 C
HETATM    4  C10 UNL     1       8.116  12.745  40.076  1.00  0.00     0.175 C
HETATM    5  C11 UNL     1       8.036  11.695  38.971  1.00  0.00     0.154 C
HETATM    6  C17 UNL     1       8.963  12.027  37.838  1.00  0.00     0.169 C
ENDROOT
BRANCH   1   7
HETATM    7  N5  UNL     1      11.079  13.182  37.583  1.00  0.00    -0.349 N
HETATM    8  C6  UNL     1      11.413  13.270  36.228  1.00  0.00     0.251 C
HETATM    9  O3  UNL     1      11.104  12.316  35.467  1.00  0.00    -0.271 OA
ATOM     10  H5  UNL     1      11.344  13.969  38.174  1.00  0.00     0.163 HD
BRANCH   8  11
HETATM   11  C5  UNL     1      12.108  14.420  35.650  1.00  0.00     0.305 C
BRANCH  11  12
HETATM   12  C4  UNL     1      11.201  15.552  35.260  1.00  0.00     0.192 C
BRANCH  12  13
HETATM   13  C3  UNL     1      11.719  16.903  35.663  1.00  0.00     0.202 C
BRANCH  13  14
HETATM   14  C2  UNL     1      11.480  17.833  34.521  1.00  0.00     0.073 A
HETATM   15  N3  UNL     1      11.758  17.460  33.259  1.00  0.00    -0.287 N
HETATM   16  N2  UNL     1      11.546  18.294  32.232  1.00  0.00    -0.132 N
ATOM     17  H3  UNL     1      12.137  16.529  33.082  1.00  0.00     0.187 HD
HETATM   18  C1  UNL     1      11.052  19.524  32.404  1.00  0.00     0.690 A
ATOM     19  H2  UNL     1      11.769  17.979  31.288  1.00  0.00     0.205 HD
HETATM   20  N11 UNL     1      10.762  19.926  33.656  1.00  0.00    -0.199 N
HETATM   21  C18 UNL     1      10.968  19.098  34.718  1.00  0.00     0.135 A
ATOM     22  H11 UNL     1      10.383  20.860  33.811  1.00  0.00     0.183 HD
BRANCH  18  23
HETATM   23  N1  UNL     1      10.879  20.259  31.368  1.00  0.00    -0.233 N
ATOM     24  H12 UNL     1      10.780  19.886  30.424  1.00  0.00     0.174 HD
ATOM     25  H11 UNL     1      10.839  21.271  31.494  1.00  0.00     0.174 HD
ENDBRANCH  18  23
ENDBRANCH  13  14
BRANCH  13  26
HETATM   26  O1  UNL     1      13.089  16.794  35.883  1.00  0.00    -0.387 OA
ATOM     27  H1  UNL     1      13.500  17.630  35.704  1.00  0.00     0.210 HD
ENDBRANCH  13  26
ENDBRANCH  12  13
BRANCH  12  28
HETATM   28  O2  UNL     1       9.929  15.374  35.775  1.00  0.00    -0.390 OA
ATOM     29  H2  UNL     1       9.325  15.187  35.067  1.00  0.00     0.210 HD
ENDBRANCH  12  28
ENDBRANCH  11  12
BRANCH  11  30
HETATM   30  N4  UNL     1      12.950  14.087  34.531  1.00  0.00    -0.064 N
ATOM     31  H43 UNL     1      12.552  14.390  33.642  1.00  0.00     0.275 HD
ATOM     32  H42 UNL     1      13.802  14.648  34.506  1.00  0.00     0.275 HD
ATOM     33  H41 UNL     1      13.145  13.086  34.548  1.00  0.00     0.275 HD
ENDBRANCH  11  30
ENDBRANCH   8  11
ENDBRANCH   1   7
BRANCH   2  34
HETATM   34  O4  UNL     1      10.514  11.066  40.400  1.00  0.00    -0.391 OA
ATOM     35  H4  UNL     1      10.922  11.137  41.254  1.00  0.00     0.210 HD
ENDBRANCH   2  34
BRANCH   6  36
HETATM   36  O7  UNL     1       8.721  11.093  36.825  1.00  0.00    -0.391 OA
ATOM     37  H7  UNL     1       8.332  10.292  37.156  1.00  0.00     0.210 HD
ENDBRANCH   6  36
BRANCH   3  38
HETATM   38  O5  UNL     1       9.724  13.284  41.680  1.00  0.00    -0.390 OA
ATOM     39  H5  UNL     1      10.453  13.873  41.837  1.00  0.00     0.210 HD
ENDBRANCH   3  38
BRANCH   5  40
HETATM   40  N6  UNL     1       6.689  11.666  38.405  1.00  0.00    -0.316 N
HETATM   41  C12 UNL     1       5.920  10.553  38.263  1.00  0.00     0.187 A
HETATM   42  N7  UNL     1       4.748  10.886  37.706  1.00  0.00    -0.335 N
HETATM   43  C13 UNL     1       4.748  12.215  37.482  1.00  0.00     0.152 A
ATOM     44  H7  UNL     1       3.986  10.243  37.489  1.00  0.00     0.168 HD
HETATM   45  N8  UNL     1       4.047  13.262  37.004  1.00  0.00    -0.335 N
HETATM   46  C16 UNL     1       5.982  12.702  37.928  1.00  0.00     0.158 A
HETATM   47  C14 UNL     1       4.792  14.348  37.139  1.00  0.00     0.188 A
ATOM     48  H8  UNL     1       3.108  13.224  36.607  1.00  0.00     0.168 HD
HETATM   49  N9  UNL     1       5.984  14.020  37.705  1.00  0.00    -0.301 N
BRANCH  49  50
HETATM   50  C15 UNL     1       7.037  14.933  38.009  1.00  0.00     0.361 C
BRANCH  50  51
HETATM   51  N10 UNL     1       7.101  15.944  36.964  1.00  0.00    -0.063 N
ATOM     52 3H10 UNL     1       7.786  16.671  37.168  1.00  0.00     0.276 HD
ATOM     53 2H10 UNL     1       7.522  15.589  36.105  1.00  0.00     0.276 HD
ATOM     54 1H10 UNL     1       6.166  16.322  36.811  1.00  0.00     0.276 HD
ENDBRANCH  50  51
ENDBRANCH  49  50
ENDBRANCH   5  40
BRANCH   4  55
HETATM   55  O6  UNL     1       7.551  12.158  41.209  1.00  0.00    -0.391 OA
ATOM     56  H6  UNL     1       7.734  12.638  42.009  1.00  0.00     0.210 HD
ENDBRANCH   4  55
TORSDOF 16
ENDMDL