MODEL 2
REMARK VINA RESULT: -8.502225623      1.394      1.587
REMARK  15 active torsions:
REMARK  status: ('A' for Active; 'I' for Inactive)
REMARK    1  A    between atoms: C2_7  and  C3_8
REMARK    2  A    between atoms: C3_8  and  N3_9
REMARK       I    between atoms: N3_9  and  C4_11
REMARK    3  A    between atoms: C4_11  and  C5_13
REMARK    4  A    between atoms: C5_13  and  S1_14
REMARK    5  A    between atoms: S1_14  and  C6_15
REMARK    6  A    between atoms: N6_19  and  N7_20
REMARK    7  A    between atoms: C7_25  and  O2_26
REMARK    8  A    between atoms: O2_26  and  C8_27
REMARK    9  A    between atoms: C9_28  and  N9_29
REMARK   10  A    between atoms: C11_34  and  N10_35
REMARK   11  A    between atoms: C12_39  and  O3_40
REMARK   12  A    between atoms: C13_42  and  O4_43
REMARK   13  A    between atoms: C14_45  and  N11_46
REMARK   14  A    between atoms: C15_50  and  O5_51
REMARK   15  A    between atoms: C16_53  and  O6_54
ROOT
HETATM    1  N1  UNL     1      17.154  13.564  35.318  1.00  0.00    -0.387 N
ATOM      2  H11 UNL     1      17.972  12.965  35.205  1.00  0.00     0.157 HD
ATOM      3  H12 UNL     1      17.149  14.580  35.224  1.00  0.00     0.157 HD
HETATM    4  C1  UNL     1      16.073  12.938  35.609  1.00  0.00     0.107 C
HETATM    5  N2  UNL     1      14.899  13.798  35.771  1.00  0.00    -0.344 N
ATOM      6  H2  UNL     1      14.932  14.721  35.337  1.00  0.00     0.167 HD
HETATM    7  C2  UNL     1      13.729  13.455  36.475  1.00  0.00     0.057 C
HETATM    8  C7  UNL     1      12.814  12.536  35.609  1.00  0.00     0.206 C
HETATM    9  C14 UNL     1      13.830  11.838  34.681  1.00  0.00     0.249 C
HETATM   10  C15 UNL     1      14.691  10.885  35.497  1.00  0.00     0.187 C
HETATM   11  C16 UNL     1      16.080  11.463  35.745  1.00  0.00     0.215 C
ENDROOT
BRANCH   8  12
HETATM   12  O2  UNL     1      12.242  11.527  36.352  1.00  0.00    -0.367 OA
BRANCH  12  13
HETATM   13  C8  UNL     1      10.874  11.337  36.171  1.00  0.00     0.184 C
HETATM   14  C9  UNL     1      10.163  11.965  37.343  1.00  0.00     0.217 C
HETATM   15  C10 UNL     1       8.661  11.742  37.100  1.00  0.00     0.071 C
HETATM   16  C11 UNL     1       8.468  10.269  37.488  1.00  0.00     0.216 C
HETATM   17  C12 UNL     1       9.239   9.418  36.554  1.00  0.00     0.179 C
HETATM   18  C13 UNL     1      10.583   9.880  36.143  1.00  0.00     0.180 C
BRANCH  14  19
HETATM   19  N9  UNL     1      10.562  11.279  38.545  1.00  0.00    -0.072 N
ATOM     20  H93 UNL     1      11.547  11.011  38.533  1.00  0.00     0.274 HD
ATOM     21  H92 UNL     1      10.596  11.899  39.355  1.00  0.00     0.274 HD
ATOM     22  H91 UNL     1       9.942  10.482  38.687  1.00  0.00     0.274 HD
ENDBRANCH  14  19
BRANCH  16  23
HETATM   23  N10 UNL     1       7.036  10.013  37.329  1.00  0.00    -0.072 N
ATOM     24 3H10 UNL     1       6.457  10.454  38.043  1.00  0.00     0.274 HD
ATOM     25 2H10 UNL     1       6.620  10.487  36.528  1.00  0.00     0.274 HD
ATOM     26 1H10 UNL     1       6.946   8.997  37.297  1.00  0.00     0.274 HD
ENDBRANCH  16  23
BRANCH  17  27
HETATM   27  O3  UNL     1       8.408   9.088  35.450  1.00  0.00    -0.391 OA
ATOM     28  H3  UNL     1       8.916   9.175  34.652  1.00  0.00     0.210 HD
ENDBRANCH  17  27
BRANCH  18  29
HETATM   29  O4  UNL     1      11.560   9.146  36.846  1.00  0.00    -0.390 OA
ATOM     30  H4  UNL     1      11.166   8.580  37.499  1.00  0.00     0.210 HD
ENDBRANCH  18  29
ENDBRANCH  12  13
ENDBRANCH   8  12
BRANCH   7  31
HETATM   31  C3  UNL     1      12.973  14.460  37.224  1.00  0.00     0.118 C
BRANCH  31  32
HETATM   32  N3  UNL     1      12.182  15.451  36.651  1.00  0.00    -0.335 N
HETATM   33  C4  UNL     1      12.325  16.268  35.537  1.00  0.00     0.231 C
HETATM   34  O1  UNL     1      13.327  16.249  34.792  1.00  0.00    -0.272 OA
ATOM     35  H3  UNL     1      11.310  15.611  37.157  1.00  0.00     0.168 HD
BRANCH  33  36
HETATM   36  C5  UNL     1      11.255  17.265  35.135  1.00  0.00     0.185 C
BRANCH  36  37
HETATM   37  S1  UNL     1      11.302  17.451  33.317  1.00  0.00    -0.082 SA
BRANCH  37  38
HETATM   38  C6  UNL     1      11.309  19.164  32.858  1.00  0.00     0.175 A
HETATM   39  N4  UNL     1      11.690  20.200  33.624  1.00  0.00    -0.260 N
HETATM   40  N5  UNL     1      11.531  21.312  32.889  1.00  0.00     0.019 NA
ATOM     41  H4  UNL     1      12.035  20.152  34.582  1.00  0.00     0.186 HD
HETATM   42  N6  UNL     1      11.061  20.988  31.684  1.00  0.00    -0.120 N
HETATM   43  N8  UNL     1      10.935  19.678  31.692  1.00  0.00    -0.244 N
ATOM     44  H8  UNL     1      10.594  19.127  30.904  1.00  0.00     0.192 HD
BRANCH  42  45
HETATM   45  N7  UNL     1      10.763  21.874  30.637  1.00  0.00    -0.310 N
ATOM     46  H72 UNL     1      11.019  22.858  30.560  1.00  0.00     0.180 HD
ATOM     47  H71 UNL     1      10.242  21.657  29.787  1.00  0.00     0.180 HD
ENDBRANCH  42  45
ENDBRANCH  37  38
ENDBRANCH  36  37
ENDBRANCH  33  36
ENDBRANCH  31  32
ENDBRANCH   7  31
BRANCH   9  48
HETATM   48  N11 UNL     1      13.204  11.095  33.629  1.00  0.00    -0.070 N
ATOM     49 3H11 UNL     1      13.555  10.137  33.600  1.00  0.00     0.275 HD
ATOM     50 2H11 UNL     1      12.226  10.906  33.849  1.00  0.00     0.275 HD
ATOM     51 1H11 UNL     1      13.294  11.545  32.719  1.00  0.00     0.275 HD
ENDBRANCH   9  48
BRANCH  10  52
HETATM   52  O5  UNL     1      14.799   9.633  34.917  1.00  0.00    -0.390 OA
ATOM     53  H5  UNL     1      15.188   8.992  35.500  1.00  0.00     0.210 HD
ENDBRANCH  10  52
BRANCH  11  54
HETATM   54  O6  UNL     1      16.569  11.105  37.003  1.00  0.00    -0.385 OA
ATOM     55  H6  UNL     1      17.129  10.341  36.926  1.00  0.00     0.210 HD
ENDBRANCH  11  54
TORSDOF 15
ENDMDL