MODEL 4
REMARK VINA RESULT: -7.883777688      4.768      8.762
REMARK  14 active torsions:
REMARK  status: ('A' for Active; 'I' for Inactive)
REMARK    1  A    between atoms: O1_2  and  C2_3
REMARK    2  A    between atoms: C3_4  and  N1_5
REMARK    3  A    between atoms: C4_9  and  O2_10
REMARK    4  A    between atoms: N2_12  and  N3_13
REMARK    5  A    between atoms: C5_16  and  O3_17
REMARK    6  A    between atoms: C6_19  and  N4_20
REMARK    7  A    between atoms: C6_19  and  C7_24
REMARK       I    between atoms: C7_24  and  N5_26
REMARK    8  A    between atoms: N5_26  and  C8_28
REMARK    9  A    between atoms: C8_28  and  N6_29
REMARK   10  A    between atoms: N6_29  and  C9_32
REMARK   11  A    between atoms: N10_41  and  C13_42
REMARK   12  A    between atoms: C14_44  and  O6_45
REMARK   13  A    between atoms: C15_47  and  O7_48
REMARK   14  A    between atoms: C16_50  and  O8_51
ROOT
HETATM    1  C7  UNL     1      10.794  17.827  34.262  1.00  0.00     0.262 C
HETATM    2  O4  UNL     1       9.884  17.027  33.891  1.00  0.00    -0.270 OA
HETATM    3  N5  UNL     1      11.723  17.305  35.196  1.00  0.00    -0.335 N
ATOM      4  H5  UNL     1      12.475  17.911  35.524  1.00  0.00     0.164 HD
ENDROOT
BRANCH   3   5
HETATM    5  C8  UNL     1      11.657  15.952  35.705  1.00  0.00     0.357 C
BRANCH   5   6
HETATM    6  N6  UNL     1      12.290  15.000  34.852  1.00  0.00    -0.048 N
ATOM      7  H62 UNL     1      11.651  14.632  34.147  1.00  0.00     0.280 HD
ATOM      8  H61 UNL     1      12.967  15.436  34.226  1.00  0.00     0.280 HD
BRANCH   6   9
HETATM    9  C9  UNL     1      12.872  13.970  35.632  1.00  0.00     0.259 A
HETATM   10  C10 UNL     1      14.327  13.624  35.167  1.00  0.00     0.189 A
HETATM   11  N7  UNL     1      14.289  12.222  34.916  1.00  0.00    -0.283 N
HETATM   12  N8  UNL     1      15.039  11.153  34.511  1.00  0.00    -0.293 N
HETATM   13  C18 UNL     1      13.092  11.858  35.176  1.00  0.00     0.120 A
HETATM   14  C11 UNL     1      14.458   9.911  34.437  1.00  0.00     0.199 A
ATOM     15  H8  UNL     1      16.021  11.277  34.265  1.00  0.00     0.188 HD
HETATM   16  N9  UNL     1      13.144   9.636  34.746  1.00  0.00    -0.335 N
HETATM   17  C12 UNL     1      12.343  10.670  35.159  1.00  0.00     0.142 A
ATOM     18  H9  UNL     1      12.776   8.688  34.670  1.00  0.00     0.168 HD
HETATM   19  N10 UNL     1      11.356  11.514  35.587  1.00  0.00    -0.300 N
HETATM   20  C17 UNL     1      12.135  12.665  35.590  1.00  0.00     0.080 A
BRANCH  19  21
HETATM   21  C13 UNL     1      10.006  11.206  35.901  1.00  0.00     0.264 C
HETATM   22  O5  UNL     1       9.638  11.536  37.178  1.00  0.00    -0.331 OA
HETATM   23  C14 UNL     1       8.542  10.793  37.515  1.00  0.00     0.290 C
HETATM   24  C15 UNL     1       8.460   9.602  36.617  1.00  0.00     0.206 C
HETATM   25  C16 UNL     1       9.770   9.702  35.863  1.00  0.00     0.201 C
BRANCH  23  26
HETATM   26  O6  UNL     1       7.352  11.513  37.405  1.00  0.00    -0.368 OA
ATOM     27  H6  UNL     1       6.583  10.972  37.545  1.00  0.00     0.212 HD
ENDBRANCH  23  26
BRANCH  24  28
HETATM   28  O7  UNL     1       8.345   8.401  37.313  1.00  0.00    -0.388 OA
ATOM     29  H7  UNL     1       9.066   7.805  37.148  1.00  0.00     0.210 HD
ENDBRANCH  24  28
BRANCH  25  30
HETATM   30  O8  UNL     1      10.751   9.048  36.609  1.00  0.00    -0.388 OA
ATOM     31  H8  UNL     1      11.564   9.540  36.578  1.00  0.00     0.210 HD
ENDBRANCH  25  30
ENDBRANCH  19  21
ENDBRANCH   6   9
ENDBRANCH   5   6
ENDBRANCH   3   5
BRANCH   1  32
HETATM   32  C6  UNL     1      10.860  19.210  33.737  1.00  0.00     0.270 C
HETATM   33  C2  UNL     1      10.644  20.213  34.814  1.00  0.00     0.204 C
HETATM   34  C3  UNL     1      10.108  21.532  34.346  1.00  0.00     0.259 C
HETATM   35  C4  UNL     1       9.197  21.453  33.177  1.00  0.00     0.247 C
HETATM   36  N2  UNL     1       9.719  20.654  32.115  1.00  0.00    -0.175 NA
HETATM   37  C5  UNL     1       9.896  19.313  32.591  1.00  0.00     0.262 C
BRANCH  33  38
HETATM   38  O1  UNL     1       9.848  19.712  35.829  1.00  0.00    -0.385 OA
HETATM   39  C1  UNL     1      10.439  19.840  37.085  1.00  0.00     0.202 C
ENDBRANCH  33  38
BRANCH  34  40
HETATM   40  N1  UNL     1       9.368  22.136  35.450  1.00  0.00    -0.069 N
ATOM     41  H13 UNL     1       9.917  22.196  36.307  1.00  0.00     0.275 HD
ATOM     42  H12 UNL     1       9.210  23.135  35.319  1.00  0.00     0.275 HD
ATOM     43  H11 UNL     1       8.501  21.613  35.571  1.00  0.00     0.275 HD
ENDBRANCH  34  40
BRANCH  35  44
HETATM   44  O2  UNL     1       7.931  20.954  33.510  1.00  0.00    -0.377 OA
ATOM     45  H2  UNL     1       7.507  21.456  34.197  1.00  0.00     0.211 HD
ENDBRANCH  35  44
BRANCH  36  46
HETATM   46  N3  UNL     1      10.810  21.194  31.473  1.00  0.00    -0.359 NA
ATOM     47  H32 UNL     1      10.789  22.208  31.362  1.00  0.00     0.171 HD
ATOM     48  H31 UNL     1      11.025  20.771  30.571  1.00  0.00     0.171 HD
ENDBRANCH  36  46
BRANCH  37  49
HETATM   49  O3  UNL     1      10.354  18.499  31.561  1.00  0.00    -0.376 OA
ATOM     50  H3  UNL     1      10.410  17.598  31.858  1.00  0.00     0.211 HD
ENDBRANCH  37  49
BRANCH  32  51
HETATM   51  N4  UNL     1      12.213  19.376  33.171  1.00  0.00    -0.055 N
ATOM     52  H43 UNL     1      12.735  18.501  33.161  1.00  0.00     0.276 HD
ATOM     53  H42 UNL     1      12.191  19.546  32.165  1.00  0.00     0.276 HD
ATOM     54  H41 UNL     1      12.706  20.112  33.675  1.00  0.00     0.276 HD
ENDBRANCH  32  51
ENDBRANCH   1  32
TORSDOF 14
ENDMDL