MODEL 4
REMARK VINA RESULT: -8.110608055      5.466      9.852
REMARK  15 active torsions:
REMARK  status: ('A' for Active; 'I' for Inactive)
REMARK    1  A    between atoms: N1_1  and  N2_4
REMARK    2  A    between atoms: N2_4  and  C1_6
REMARK    3  A    between atoms: N7_20  and  C6_21
REMARK    4  A    between atoms: C7_22  and  N8_23
REMARK    5  A    between atoms: N8_23  and  C8_25
REMARK    6  A    between atoms: C8_25  and  O2_26
REMARK    7  A    between atoms: C8_25  and  C9_28
REMARK    8  A    between atoms: C9_28  and  N9_29
REMARK       I    between atoms: N9_29  and  C10_31
REMARK    9  A    between atoms: C10_31  and  C11_33
REMARK   10  A    between atoms: C11_33  and  C12_34
REMARK   11  A    between atoms: C12_34  and  N10_35
REMARK   12  A    between atoms: C12_34  and  O4_39
REMARK   13  A    between atoms: C14_42  and  N11_43
REMARK   14  A    between atoms: C15_47  and  O5_48
REMARK   15  A    between atoms: C16_50  and  O6_51
ROOT
HETATM    1  C6  UNL     1      11.610  18.414  36.044  1.00  0.00     0.165 C
HETATM    2  C7  UNL     1      10.889  19.343  35.075  1.00  0.00     0.108 C
HETATM    3  C13 UNL     1      11.669  20.623  35.068  1.00  0.00     0.062 C
HETATM    4  C14 UNL     1      11.222  21.393  36.336  1.00  0.00     0.216 C
HETATM    5  C15 UNL     1      11.237  20.439  37.517  1.00  0.00     0.179 C
HETATM    6  C16 UNL     1      12.019  19.187  37.274  1.00  0.00     0.175 C
ENDROOT
BRANCH   1   7
HETATM    7  N7  UNL     1      10.734  17.311  36.365  1.00  0.00    -0.249 N
HETATM    8  C4  UNL     1      10.965  16.006  36.157  1.00  0.00     0.171 A
HETATM    9  N4  UNL     1      11.984  15.313  35.627  1.00  0.00    -0.331 N
HETATM   10  C5  UNL     1       9.838  15.324  36.628  1.00  0.00     0.169 A
HETATM   11  C3  UNL     1      11.922  13.972  35.550  1.00  0.00     0.148 A
ATOM     12  H4  UNL     1      12.808  15.804  35.281  1.00  0.00     0.168 HD
HETATM   13  C2  UNL     1      12.974  13.235  34.998  1.00  0.00     0.290 A
HETATM   14  C17 UNL     1      10.804  13.304  36.018  1.00  0.00     0.155 A
HETATM   15  N3  UNL     1      12.920  11.896  34.914  1.00  0.00    -0.153 N
HETATM   16  O1  UNL     1      13.994  13.806  34.568  1.00  0.00    -0.265 OA
HETATM   17  C1  UNL     1      11.821  11.270  35.376  1.00  0.00     0.701 A
ATOM     18  H3  UNL     1      13.692  11.365  34.510  1.00  0.00     0.187 HD
HETATM   19  N13 UNL     1      10.800  11.961  35.910  1.00  0.00    -0.173 N
ATOM     20  H13 UNL     1       9.986  11.447  36.247  1.00  0.00     0.186 HD
HETATM   21  N12 UNL     1       9.775  13.985  36.551  1.00  0.00    -0.322 N
ATOM     22  H12 UNL     1       8.953  13.488  36.895  1.00  0.00     0.169 HD
HETATM   23  N5  UNL     1       8.998  16.251  37.089  1.00  0.00    -0.268 N
HETATM   24  N6  UNL     1       9.546  17.434  36.927  1.00  0.00    -0.237 N
ATOM     25  H5  UNL     1       8.082  16.072  37.500  1.00  0.00     0.190 HD
ATOM     26  H6  UNL     1       9.116  18.319  37.196  1.00  0.00     0.208 HD
BRANCH  17  27
HETATM   27  N2  UNL     1      11.747   9.965  35.302  1.00  0.00    -0.138 N
ATOM     28  H2  UNL     1      10.837   9.503  35.286  1.00  0.00     0.205 HD
BRANCH  27  29
HETATM   29  N1  UNL     1      12.922   9.207  35.245  1.00  0.00    -0.331 N
ATOM     30  H12 UNL     1      13.803   9.633  35.531  1.00  0.00     0.177 HD
ATOM     31  H11 UNL     1      12.883   8.241  34.919  1.00  0.00     0.177 HD
ENDBRANCH  27  29
ENDBRANCH  17  27
ENDBRANCH   1   7
BRANCH   2  32
HETATM   32  N8  UNL     1      10.531  18.767  33.858  1.00  0.00    -0.389 N
ATOM     33  H8  UNL     1      10.408  17.756  33.826  1.00  0.00     0.156 HD
BRANCH  32  34
HETATM   34  C8  UNL     1      10.331  19.489  32.684  1.00  0.00     0.231 C
BRANCH  34  35
HETATM   35  O2  UNL     1      10.304  18.540  31.614  1.00  0.00    -0.376 OA
ATOM     36  H2  UNL     1      11.143  18.598  31.174  1.00  0.00     0.212 HD
ENDBRANCH  34  35
BRANCH  34  37
HETATM   37  C9  UNL     1       9.074  20.286  32.533  1.00  0.00     0.175 C
BRANCH  37  38
HETATM   38  N9  UNL     1       7.968  19.661  33.289  1.00  0.00    -0.357 N
HETATM   39  C10 UNL     1       7.141  20.459  34.114  1.00  0.00     0.221 C
HETATM   40  O3  UNL     1       7.348  21.693  34.205  1.00  0.00    -0.273 OA
ATOM     41  H9  UNL     1       7.802  18.658  33.215  1.00  0.00     0.162 HD
BRANCH  39  42
HETATM   42  C11 UNL     1       6.035  19.849  34.873  1.00  0.00     0.163 C
BRANCH  42  43
HETATM   43  C12 UNL     1       6.324  19.872  36.356  1.00  0.00     0.324 C
BRANCH  43  44
HETATM   44  N10 UNL     1       5.811  21.072  36.958  1.00  0.00    -0.053 N
ATOM     45 3H10 UNL     1       6.002  21.893  36.385  1.00  0.00     0.277 HD
ATOM     46 2H10 UNL     1       4.791  21.101  36.933  1.00  0.00     0.277 HD
ATOM     47 1H10 UNL     1       6.169  21.182  37.907  1.00  0.00     0.277 HD
ENDBRANCH  43  44
BRANCH  43  48
HETATM   48  O4  UNL     1       7.704  19.755  36.536  1.00  0.00    -0.369 OA
ATOM     49  H4  UNL     1       7.905  19.959  37.442  1.00  0.00     0.212 HD
ENDBRANCH  43  48
ENDBRANCH  42  43
ENDBRANCH  39  42
ENDBRANCH  37  38
ENDBRANCH  34  37
ENDBRANCH  32  34
ENDBRANCH   2  32
BRANCH   6  50
HETATM   50  O6  UNL     1      11.795  18.353  38.381  1.00  0.00    -0.391 OA
ATOM     51  H6  UNL     1      11.063  18.717  38.864  1.00  0.00     0.210 HD
ENDBRANCH   6  50
BRANCH   5  52
HETATM   52  O5  UNL     1       9.953  20.221  38.011  1.00  0.00    -0.391 OA
ATOM     53  H5  UNL     1       9.494  21.040  38.155  1.00  0.00     0.210 HD
ENDBRANCH   5  52
BRANCH   4  54
HETATM   54  N11 UNL     1       9.873  21.850  36.057  1.00  0.00    -0.072 N
ATOM     55 3H11 UNL     1       9.629  22.720  36.531  1.00  0.00     0.274 HD
ATOM     56 2H11 UNL     1       9.744  22.192  35.104  1.00  0.00     0.274 HD
ATOM     57 1H11 UNL     1       9.264  21.068  36.297  1.00  0.00     0.274 HD
ENDBRANCH   4  54
TORSDOF 15
ENDMDL