MODEL 4
REMARK VINA RESULT: -7.861452734      2.908      4.740
REMARK  15 active torsions:
REMARK  status: ('A' for Active; 'I' for Inactive)
REMARK    1  A    between atoms: C4_8  and  O1_9
REMARK    2  A    between atoms: C5_12  and  C6_13
REMARK    3  A    between atoms: C6_13  and  N3_14
REMARK    4  A    between atoms: C8_22  and  C9_23
REMARK    5  A    between atoms: C9_23  and  O4_24
REMARK    6  A    between atoms: C9_23  and  N5_26
REMARK    7  A    between atoms: N5_26  and  C10_28
REMARK    8  A    between atoms: C10_28  and  C11_29
REMARK    9  A    between atoms: C10_28  and  C12_32
REMARK   10  A    between atoms: C11_29  and  O5_30
REMARK       I    between atoms: C12_32  and  N6_34
REMARK   11  A    between atoms: N6_34  and  C13_36
REMARK   12  A    between atoms: C16_39  and  O7_40
REMARK   13  A    between atoms: C17_42  and  N7_43
REMARK   14  A    between atoms: C18_47  and  O8_48
REMARK   15  A    between atoms: C19_50  and  O9_51
ROOT
HETATM    1  N1  UNL     1      12.865   9.473  37.391  1.00  0.00    -0.195 NA
HETATM    2  C1  UNL     1      12.932  10.455  36.801  1.00  0.00     0.099 C
HETATM    3  C2  UNL     1      12.989  11.690  36.063  1.00  0.00     0.341 C
HETATM    4  N2  UNL     1      12.276  12.718  36.798  1.00  0.00    -0.040 N
ATOM      5  H21 UNL     1      12.396  12.604  37.805  1.00  0.00     0.280 HD
ATOM      6  H22 UNL     1      11.267  12.581  36.739  1.00  0.00     0.280 HD
HETATM    7  C3  UNL     1      12.646  14.026  36.377  1.00  0.00     0.290 C
HETATM    8  C4  UNL     1      11.551  15.057  36.526  1.00  0.00     0.295 C
HETATM    9  O2  UNL     1      11.755  16.165  35.732  1.00  0.00    -0.328 OA
HETATM   10  C5  UNL     1      12.065  15.828  34.438  1.00  0.00     0.291 C
HETATM   11  O3  UNL     1      13.330  15.225  34.408  1.00  0.00    -0.333 OA
HETATM   12  C7  UNL     1      13.161  13.957  34.957  1.00  0.00     0.260 C
HETATM   13  N4  UNL     1      14.431  13.253  35.058  1.00  0.00    -0.362 N
ATOM     14  H4  UNL     1      15.312  13.637  34.714  1.00  0.00     0.162 HD
HETATM   15  C8  UNL     1      14.338  12.102  35.621  1.00  0.00     0.077 C
ENDROOT
BRANCH  15  16
HETATM   16  C9  UNL     1      15.517  11.216  35.827  1.00  0.00     0.264 C
BRANCH  16  17
HETATM   17  O4  UNL     1      16.096  11.013  34.577  1.00  0.00    -0.372 OA
ATOM     18  H4  UNL     1      17.037  11.058  34.697  1.00  0.00     0.212 HD
ENDBRANCH  16  17
BRANCH  16  19
HETATM   19  N5  UNL     1      16.352  11.780  36.794  1.00  0.00    -0.378 N
ATOM     20  H5  UNL     1      16.082  11.725  37.777  1.00  0.00     0.157 HD
BRANCH  19  21
HETATM   21  C10 UNL     1      17.557  12.423  36.450  1.00  0.00     0.195 C
BRANCH  21  22
HETATM   22  C11 UNL     1      18.771  11.918  37.198  1.00  0.00     0.198 C
BRANCH  22  23
HETATM   23  O5  UNL     1      18.489  11.636  38.537  1.00  0.00    -0.398 OA
ATOM     24  H5  UNL     1      17.956  10.856  38.638  1.00  0.00     0.209 HD
ENDBRANCH  22  23
ENDBRANCH  21  22
BRANCH  21  25
HETATM   25  C12 UNL     1      17.526  13.894  36.527  1.00  0.00     0.242 C
HETATM   26  O6  UNL     1      16.827  14.561  35.759  1.00  0.00    -0.271 OA
HETATM   27  N6  UNL     1      18.300  14.568  37.485  1.00  0.00    -0.352 N
ATOM     28  H6  UNL     1      18.876  14.004  38.111  1.00  0.00     0.163 HD
BRANCH  27  29
HETATM   29  C13 UNL     1      18.340  16.005  37.647  1.00  0.00     0.116 C
HETATM   30  C14 UNL     1      18.342  16.373  39.108  1.00  0.00     0.030 C
HETATM   31  C15 UNL     1      19.614  16.120  39.826  1.00  0.00     0.036 C
HETATM   32  C16 UNL     1      20.863  16.573  39.179  1.00  0.00     0.151 C
HETATM   33  C17 UNL     1      20.785  17.919  38.518  1.00  0.00     0.243 C
HETATM   34  C18 UNL     1      19.722  18.004  37.461  1.00  0.00     0.181 C
HETATM   35  C19 UNL     1      19.392  16.676  36.842  1.00  0.00     0.171 C
BRANCH  32  36
HETATM   36  O7  UNL     1      21.857  16.666  40.172  1.00  0.00    -0.393 OA
ATOM     37  H7  UNL     1      22.696  16.763  39.738  1.00  0.00     0.210 HD
ENDBRANCH  32  36
BRANCH  33  38
HETATM   38  N7  UNL     1      20.638  19.010  39.448  1.00  0.00    -0.070 N
ATOM     39  H73 UNL     1      19.658  19.283  39.531  1.00  0.00     0.274 HD
ATOM     40  H72 UNL     1      20.807  18.695  40.403  1.00  0.00     0.274 HD
ATOM     41  H71 UNL     1      21.220  19.818  39.225  1.00  0.00     0.274 HD
ENDBRANCH  33  38
BRANCH  34  42
HETATM   42  O8  UNL     1      20.156  18.864  36.424  1.00  0.00    -0.391 OA
ATOM     43  H8  UNL     1      19.777  18.583  35.600  1.00  0.00     0.210 HD
ENDBRANCH  34  42
BRANCH  35  44
HETATM   44  O9  UNL     1      18.875  16.974  35.557  1.00  0.00    -0.391 OA
ATOM     45  H9  UNL     1      19.247  16.370  34.923  1.00  0.00     0.210 HD
ENDBRANCH  35  44
ENDBRANCH  27  29
ENDBRANCH  21  25
ENDBRANCH  19  21
ENDBRANCH  16  19
ENDBRANCH  15  16
BRANCH   8  46
HETATM   46  O1  UNL     1      11.576  15.483  37.867  1.00  0.00    -0.369 OA
ATOM     47  H1  UNL     1      11.232  16.369  37.878  1.00  0.00     0.212 HD
ENDBRANCH   8  46
BRANCH  10  48
HETATM   48  C6  UNL     1      11.958  16.986  33.488  1.00  0.00     0.290 C
BRANCH  48  49
HETATM   49  N3  UNL     1      10.615  17.255  33.050  1.00  0.00    -0.075 N
ATOM     50  H33 UNL     1       9.951  17.087  33.806  1.00  0.00     0.274 HD
ATOM     51  H32 UNL     1      10.474  18.256  32.917  1.00  0.00     0.274 HD
ATOM     52  H31 UNL     1      10.344  16.739  32.213  1.00  0.00     0.274 HD
ENDBRANCH  48  49
ENDBRANCH  10  48
TORSDOF 15
ENDMDL