MODEL 4
REMARK VINA RESULT: -6.984814239      5.461      9.246
REMARK  17 active torsions:
REMARK  status: ('A' for Active; 'I' for Inactive)
REMARK    1  A    between atoms: C2_2  and  O2_4
REMARK    2  A    between atoms: O2_4  and  N1_5
REMARK    3  A    between atoms: N1_5  and  C3_6
REMARK    4  A    between atoms: C3_6  and  N2_7
REMARK    5  A    between atoms: C3_6  and  C4_11
REMARK       I    between atoms: C4_11  and  N3_13
REMARK    6  A    between atoms: N3_13  and  C5_15
REMARK    7  A    between atoms: C6_16  and  O4_17
REMARK    8  A    between atoms: C7_19  and  N4_20
REMARK    9  A    between atoms: C8_24  and  O5_25
REMARK   10  A    between atoms: O5_25  and  C9_26
REMARK   11  A    between atoms: C10_28  and  C11_29
REMARK   12  A    between atoms: C12_33  and  N5_34
REMARK   13  A    between atoms: C13_38  and  O9_39
REMARK   14  A    between atoms: C14_41  and  N6_42
REMARK   15  A    between atoms: C15_46  and  O10_47
REMARK   16  A    between atoms: C15_46  and  C16_49
REMARK   17  A    between atoms: C16_49  and  O11_50
ROOT
HETATM    1  C5  UNL     1      10.889  17.795  36.139  1.00  0.00     0.154 C
HETATM    2  C6  UNL     1      12.232  17.727  36.801  1.00  0.00     0.177 C
HETATM    3  C7  UNL     1      12.717  16.383  37.151  1.00  0.00     0.245 C
HETATM    4  C8  UNL     1      12.336  15.273  36.230  1.00  0.00     0.191 C
HETATM    5  C14 UNL     1      10.986  15.366  35.630  1.00  0.00     0.252 C
HETATM    6  C15 UNL     1      10.635  16.733  35.135  1.00  0.00     0.132 C
ENDROOT
BRANCH   4   7
HETATM    7  O5  UNL     1      12.420  14.014  36.869  1.00  0.00    -0.349 OA
BRANCH   7   8
HETATM    8  C9  UNL     1      12.773  13.004  35.999  1.00  0.00     0.294 C
HETATM    9  O6  UNL     1      14.109  12.667  36.219  1.00  0.00    -0.332 OA
HETATM   10  C10 UNL     1      14.633  12.072  35.076  1.00  0.00     0.289 C
HETATM   11  S1  UNL     1      13.746  10.540  34.680  1.00  0.00    -0.091 SA
HETATM   12  C12 UNL     1      11.986  10.834  35.071  1.00  0.00     0.280 C
HETATM   13  C13 UNL     1      11.959  11.753  36.275  1.00  0.00     0.213 C
BRANCH  10  14
HETATM   14  C11 UNL     1      16.063  11.774  35.233  1.00  0.00     0.213 C
HETATM   15  O7  UNL     1      16.464  10.586  35.216  1.00  0.00    -0.645 OA
HETATM   16  O8  UNL     1      16.980  12.782  35.401  1.00  0.00    -0.645 OA
ENDBRANCH  10  14
BRANCH  12  17
HETATM   17  N5  UNL     1      11.331   9.588  35.401  1.00  0.00    -0.064 N
ATOM     18  H53 UNL     1      11.617   8.832  34.779  1.00  0.00     0.275 HD
ATOM     19  H52 UNL     1      11.673   9.199  36.279  1.00  0.00     0.275 HD
ATOM     20  H51 UNL     1      10.318   9.713  35.409  1.00  0.00     0.275 HD
ENDBRANCH  12  17
BRANCH  13  21
HETATM   21  O9  UNL     1      12.518  11.046  37.351  1.00  0.00    -0.388 OA
ATOM     22  H9  UNL     1      12.290  10.126  37.288  1.00  0.00     0.210 HD
ENDBRANCH  13  21
ENDBRANCH   7   8
ENDBRANCH   4   7
BRANCH   3  23
HETATM   23  N4  UNL     1      14.164  16.415  37.356  1.00  0.00    -0.070 N
ATOM     24  H43 UNL     1      14.570  15.478  37.361  1.00  0.00     0.274 HD
ATOM     25  H42 UNL     1      14.658  16.786  36.545  1.00  0.00     0.274 HD
ATOM     26  H41 UNL     1      14.383  16.931  38.207  1.00  0.00     0.274 HD
ENDBRANCH   3  23
BRANCH   5  27
HETATM   27  N6  UNL     1       9.971  14.817  36.526  1.00  0.00    -0.070 N
ATOM     28  H63 UNL     1       9.246  14.319  36.011  1.00  0.00     0.275 HD
ATOM     29  H62 UNL     1      10.336  14.037  37.074  1.00  0.00     0.275 HD
ATOM     30  H61 UNL     1       9.576  15.542  37.124  1.00  0.00     0.275 HD
ENDBRANCH   5  27
BRANCH   2  31
HETATM   31  O4  UNL     1      12.293  18.561  37.919  1.00  0.00    -0.391 OA
ATOM     32  H4  UNL     1      11.860  18.170  38.668  1.00  0.00     0.210 HD
ENDBRANCH   2  31
BRANCH   6  33
HETATM   33  O10 UNL     1       9.272  16.727  34.818  1.00  0.00    -0.383 OA
ATOM     34  H10 UNL     1       8.850  16.019  35.291  1.00  0.00     0.210 HD
ENDBRANCH   6  33
BRANCH   6  35
HETATM   35  C16 UNL     1      11.383  16.949  33.833  1.00  0.00     0.206 C
BRANCH  35  36
HETATM   36  O11 UNL     1      10.587  17.504  32.857  1.00  0.00    -0.398 OA
ATOM     37  H11 UNL     1      11.068  17.686  32.058  1.00  0.00     0.209 HD
ENDBRANCH  35  36
ENDBRANCH   6  35
BRANCH   1  38
HETATM   38  N3  UNL     1      10.636  19.120  35.613  1.00  0.00    -0.348 N
HETATM   39  C4  UNL     1       9.427  19.806  35.748  1.00  0.00     0.267 C
HETATM   40  O3  UNL     1       8.482  19.256  36.364  1.00  0.00    -0.270 OA
ATOM     41  H3  UNL     1      11.392  19.583  35.108  1.00  0.00     0.163 HD
BRANCH  39  42
HETATM   42  C3  UNL     1       9.204  21.162  35.195  1.00  0.00     0.394 C
BRANCH  42  43
HETATM   43  N1  UNL     1       8.700  21.127  33.845  1.00  0.00    -0.048 NA
BRANCH  43  44
HETATM   44  O2  UNL     1       9.551  20.405  33.057  1.00  0.00    -0.205 OA
BRANCH  44  45
HETATM   45  C2  UNL     1      10.742  20.903  32.592  1.00  0.00     0.273 C
HETATM   46  C1  UNL     1      10.774  22.074  31.677  1.00  0.00     0.127 C
HETATM   47  O1  UNL     1      11.824  20.371  32.935  1.00  0.00    -0.264 OA
ENDBRANCH  44  45
ENDBRANCH  43  44
ENDBRANCH  42  43
BRANCH  42  48
HETATM   48  N2  UNL     1       8.340  21.952  36.053  1.00  0.00    -0.050 N
ATOM     49  H23 UNL     1       7.492  22.243  35.566  1.00  0.00     0.277 HD
ATOM     50  H22 UNL     1       7.911  21.383  36.782  1.00  0.00     0.277 HD
ATOM     51  H21 UNL     1       8.842  22.749  36.443  1.00  0.00     0.277 HD
ENDBRANCH  42  48
ENDBRANCH  39  42
ENDBRANCH   1  38
TORSDOF 17
ENDMDL