MODEL 2
REMARK VINA RESULT: -8.392611985      5.065      9.981
REMARK  14 active torsions:
REMARK  status: ('A' for Active; 'I' for Inactive)
REMARK       I    between atoms: C1_2  and  N2_4
REMARK    1  A    between atoms: N2_4  and  C2_6
REMARK    2  A    between atoms: C2_6  and  C3_7
REMARK    3  A    between atoms: C4_11  and  C5_12
REMARK    4  A    between atoms: C4_11  and  N5_32
REMARK    5  A    between atoms: C5_12  and  C6_13
REMARK    6  A    between atoms: C5_12  and  O3_16
REMARK    7  A    between atoms: C6_13  and  O2_14
REMARK    8  A    between atoms: O3_16  and  C7_17
REMARK    9  A    between atoms: C8_21  and  O4_22
REMARK   10  A    between atoms: C9_24  and  O5_25
REMARK   11  A    between atoms: C10_27  and  C11_28
REMARK   12  A    between atoms: C11_28  and  O6_29
REMARK   13  A    between atoms: C15_41  and  N8_42
REMARK   14  A    between atoms: N8_42  and  O9_44
ROOT
HETATM    1  C3  UNL     1      13.207  13.322  35.043  1.00  0.00     0.348 C
HETATM    2  N3  UNL     1      14.463  12.794  34.554  1.00  0.00     0.008 N
ATOM      3  H31 UNL     1      15.233  13.416  34.308  1.00  0.00     0.286 HD
ATOM      4  H32 UNL     1      14.530  12.375  33.626  1.00  0.00     0.286 HD
HETATM    5  C4  UNL     1      14.520  11.978  35.740  1.00  0.00     0.347 C
HETATM    6  O10 UNL     1      13.647  12.924  36.327  1.00  0.00    -0.300 OA
ENDROOT
BRANCH   5   7
HETATM    7  C5  UNL     1      13.868  10.633  35.581  1.00  0.00     0.236 C
BRANCH   7   8
HETATM    8  C6  UNL     1      14.466  10.004  34.314  1.00  0.00     0.203 C
BRANCH   8   9
HETATM    9  O2  UNL     1      13.620  10.250  33.207  1.00  0.00    -0.398 OA
ATOM     10  H2  UNL     1      13.377   9.429  32.795  1.00  0.00     0.209 HD
ENDBRANCH   8   9
ENDBRANCH   7   8
BRANCH   7  11
HETATM   11  O3  UNL     1      12.519  10.748  35.504  1.00  0.00    -0.324 OA
BRANCH  11  12
HETATM   12  C7  UNL     1      11.757   9.890  36.254  1.00  0.00     0.473 C
HETATM   13  N4  UNL     1      10.492   9.702  35.563  1.00  0.00     0.004 N
HETATM   14  C8  UNL     1       9.369   9.695  36.469  1.00  0.00     0.356 C
ATOM     15  H42 UNL     1      10.368  10.398  34.827  1.00  0.00     0.286 HD
ATOM     16  H41 UNL     1      10.508   8.860  34.989  1.00  0.00     0.286 HD
HETATM   17  C9  UNL     1       9.289  10.973  37.253  1.00  0.00     0.205 C
HETATM   18  C10 UNL     1      10.671  11.391  37.631  1.00  0.00     0.183 C
HETATM   19  O7  UNL     1      11.601  10.364  37.525  1.00  0.00    -0.329 OA
BRANCH  14  20
HETATM   20  O4  UNL     1       9.412   8.561  37.269  1.00  0.00    -0.368 OA
ATOM     21  H4  UNL     1       8.677   7.993  37.069  1.00  0.00     0.212 HD
ENDBRANCH  14  20
BRANCH  17  22
HETATM   22  O5  UNL     1       8.433  10.866  38.348  1.00  0.00    -0.389 OA
ATOM     23  H5  UNL     1       7.750  11.525  38.336  1.00  0.00     0.210 HD
ENDBRANCH  17  22
BRANCH  18  24
HETATM   24  C11 UNL     1      10.757  12.053  38.982  1.00  0.00     0.199 C
BRANCH  24  25
HETATM   25  O6  UNL     1      10.788  11.055  39.953  1.00  0.00    -0.398 OA
ATOM     26  H6  UNL     1      10.598  11.454  40.794  1.00  0.00     0.209 HD
ENDBRANCH  24  25
ENDBRANCH  18  24
ENDBRANCH  11  12
ENDBRANCH   7  11
ENDBRANCH   5   7
BRANCH   5  27
HETATM   27  N5  UNL     1      15.820  11.933  36.362  1.00  0.00    -0.268 N
HETATM   28  C12 UNL     1      16.363  10.838  36.915  1.00  0.00     0.190 A
HETATM   29  N6  UNL     1      17.579  11.123  37.401  1.00  0.00    -0.345 N
HETATM   30  C13 UNL     1      17.808  12.432  37.148  1.00  0.00     0.147 A
ATOM     31  H6  UNL     1      18.211  10.475  37.873  1.00  0.00     0.167 HD
HETATM   32  C14 UNL     1      18.880  13.266  37.418  1.00  0.00     0.290 A
HETATM   33  C16 UNL     1      16.716  12.953  36.497  1.00  0.00     0.160 A
HETATM   34  O8  UNL     1      19.877  12.790  38.010  1.00  0.00    -0.265 OA
HETATM   35  N7  UNL     1      18.809  14.545  37.034  1.00  0.00    -0.152 N
HETATM   36  C15 UNL     1      17.747  15.031  36.407  1.00  0.00     0.706 A
ATOM     37  H7  UNL     1      19.594  15.165  37.230  1.00  0.00     0.187 HD
HETATM   38  N9  UNL     1      16.707  14.238  36.141  1.00  0.00    -0.172 N
ATOM     39  H9  UNL     1      15.894  14.620  35.659  1.00  0.00     0.186 HD
BRANCH  36  40
HETATM   40  N8  UNL     1      17.736  16.286  36.058  1.00  0.00    -0.098 N
ATOM     41  H8  UNL     1      16.886  16.835  36.188  1.00  0.00     0.213 HD
BRANCH  40  42
HETATM   42  O9  UNL     1      18.842  16.878  35.521  1.00  0.00    -0.276 OA
ATOM     43  H9  UNL     1      18.880  17.103  34.598  1.00  0.00     0.245 HD
ENDBRANCH  40  42
ENDBRANCH  36  40
ENDBRANCH   5  27
BRANCH   1  44
HETATM   44  C2  UNL     1      13.159  14.807  34.858  1.00  0.00     0.185 C
BRANCH  44  45
HETATM   45  N2  UNL     1      12.653  15.486  36.011  1.00  0.00    -0.341 N
HETATM   46  C1  UNL     1      13.432  16.294  36.880  1.00  0.00     0.328 C
HETATM   47  N1  UNL     1      12.837  16.938  38.020  1.00  0.00    -0.040 NA
HETATM   48  O1  UNL     1      14.649  16.436  36.638  1.00  0.00    -0.251 OA
ATOM     49  H2  UNL     1      11.660  15.381  36.223  1.00  0.00     0.163 HD
ENDBRANCH  44  45
ENDBRANCH   1  44
TORSDOF 14
ENDMDL