MODEL 1
REMARK VINA RESULT: -8.260815004      0.000      0.000
REMARK  15 active torsions:
REMARK  status: ('A' for Active; 'I' for Inactive)
REMARK    1  A    between atoms: C2_2  and  O1_3
REMARK    2  A    between atoms: C2_2  and  C3_5
REMARK    3  A    between atoms: C3_5  and  O2_6
REMARK    4  A    between atoms: C3_5  and  C4_8
REMARK    5  A    between atoms: C4_8  and  O3_9
REMARK    6  A    between atoms: C4_8  and  C5_11
REMARK    7  A    between atoms: C5_11  and  O4_12
REMARK    8  A    between atoms: C5_11  and  C6_14
REMARK       I    between atoms: C6_14  and  N1_16
REMARK    9  A    between atoms: N1_16  and  C7_18
REMARK   10  A    between atoms: C8_20  and  C9_21
REMARK   11  A    between atoms: C10_23  and  N2_24
REMARK   12  A    between atoms: C15_33  and  O10_34
REMARK   13  A    between atoms: C16_36  and  N4_37
REMARK   14  A    between atoms: C17_41  and  O11_42
REMARK   15  A    between atoms: C18_45  and  O13_46
ROOT
HETATM    1  C7  UNL     1      14.416  10.770  35.869  1.00  0.00     0.279 C
HETATM    2  O6  UNL     1      13.501  11.471  36.642  1.00  0.00    -0.349 OA
HETATM    3  C8  UNL     1      12.242  11.299  36.124  1.00  0.00     0.210 C
HETATM    4  C17 UNL     1      12.242  11.971  34.782  1.00  0.00     0.291 C
HETATM    5  O12 UNL     1      12.977  11.160  33.929  1.00  0.00    -0.325 OA
HETATM    6  C18 UNL     1      14.117  10.638  34.432  1.00  0.00     0.309 C
ENDROOT
BRANCH   3   7
HETATM    7  C9  UNL     1      11.171  11.645  37.045  1.00  0.00     0.191 C
HETATM    8  O7  UNL     1      10.049  12.208  36.469  1.00  0.00    -0.353 OA
HETATM    9  C10 UNL     1       9.236  12.650  37.506  1.00  0.00     0.263 C
HETATM   10  C15 UNL     1      10.038  12.558  38.786  1.00  0.00     0.200 C
HETATM   11  C16 UNL     1      11.456  12.566  38.173  1.00  0.00     0.247 C
BRANCH   9  12
HETATM   12  N2  UNL     1       8.044  11.865  37.520  1.00  0.00    -0.280 N
HETATM   13  C11 UNL     1       8.079  10.575  37.177  1.00  0.00     0.104 A
HETATM   14  C12 UNL     1       6.900   9.862  37.208  1.00  0.00     0.092 A
HETATM   15  C13 UNL     1       5.736  10.474  37.585  1.00  0.00     0.250 A
HETATM   16  O8  UNL     1       4.672   9.813  37.609  1.00  0.00    -0.268 OA
HETATM   17  N3  UNL     1       5.726  11.775  37.927  1.00  0.00    -0.275 N
HETATM   18  C14 UNL     1       6.894  12.446  37.886  1.00  0.00     0.331 A
ATOM     19  H3  UNL     1       4.862  12.238  38.208  1.00  0.00     0.173 HD
HETATM   20  O9  UNL     1       6.824  13.670  38.219  1.00  0.00    -0.246 OA
ENDBRANCH   9  12
BRANCH  10  21
HETATM   21  O10 UNL     1       9.924  11.297  39.388  1.00  0.00    -0.389 OA
ATOM     22  H10 UNL     1      10.389  10.627  38.901  1.00  0.00     0.210 HD
ENDBRANCH  10  21
BRANCH  11  23
HETATM   23  N4  UNL     1      11.670  13.946  37.779  1.00  0.00    -0.070 N
ATOM     24  H43 UNL     1      12.395  14.004  37.063  1.00  0.00     0.274 HD
ATOM     25  H42 UNL     1      10.871  14.292  37.247  1.00  0.00     0.274 HD
ATOM     26  H41 UNL     1      11.883  14.576  38.552  1.00  0.00     0.274 HD
ENDBRANCH  11  23
ENDBRANCH   3   7
BRANCH   4  27
HETATM   27  O11 UNL     1      12.957  13.195  34.816  1.00  0.00    -0.368 OA
ATOM     28  H11 UNL     1      12.371  13.937  34.916  1.00  0.00     0.212 HD
ENDBRANCH   4  27
BRANCH   1  29
HETATM   29  N1  UNL     1      15.782  11.277  36.097  1.00  0.00    -0.328 N
HETATM   30  C6  UNL     1      16.680  10.699  36.986  1.00  0.00     0.251 C
HETATM   31  O5  UNL     1      16.342   9.671  37.670  1.00  0.00    -0.270 OA
ATOM     32  H1  UNL     1      16.085  12.098  35.572  1.00  0.00     0.165 HD
BRANCH  30  33
HETATM   33  C5  UNL     1      18.042  11.229  37.187  1.00  0.00     0.241 C
BRANCH  33  34
HETATM   34  C4  UNL     1      18.017  12.676  37.668  1.00  0.00     0.187 C
BRANCH  34  35
HETATM   35  C3  UNL     1      18.579  13.620  36.664  1.00  0.00     0.178 C
BRANCH  35  36
HETATM   36  C2  UNL     1      19.111  14.924  37.152  1.00  0.00     0.145 C
HETATM   37  C1  UNL     1      18.971  15.969  36.045  1.00  0.00     0.042 C
BRANCH  36  38
HETATM   38  O1  UNL     1      18.563  15.375  38.335  1.00  0.00    -0.393 OA
ATOM     39  H1  UNL     1      19.106  15.139  39.077  1.00  0.00     0.210 HD
ENDBRANCH  36  38
ENDBRANCH  35  36
BRANCH  35  40
HETATM   40  O2  UNL     1      17.877  13.697  35.482  1.00  0.00    -0.390 OA
ATOM     41  H2  UNL     1      17.587  12.859  35.141  1.00  0.00     0.210 HD
ENDBRANCH  35  40
ENDBRANCH  34  35
BRANCH  34  42
HETATM   42  O3  UNL     1      18.867  12.695  38.805  1.00  0.00    -0.390 OA
ATOM     43  H3  UNL     1      18.561  12.027  39.407  1.00  0.00     0.210 HD
ENDBRANCH  34  42
ENDBRANCH  33  34
BRANCH  33  44
HETATM   44  O4  UNL     1      18.702  11.163  35.940  1.00  0.00    -0.383 OA
ATOM     45  H4  UNL     1      19.041  10.285  35.811  1.00  0.00     0.210 HD
ENDBRANCH  33  44
ENDBRANCH  30  33
ENDBRANCH   1  29
BRANCH   6  46
HETATM   46  O13 UNL     1      14.174   9.285  34.006  1.00  0.00    -0.367 OA
ATOM     47  H13 UNL     1      14.792   9.165  33.295  1.00  0.00     0.212 HD
ENDBRANCH   6  46
TORSDOF 15
ENDMDL