MODEL 1
REMARK VINA RESULT: -8.077539742      0.000      0.000
REMARK  17 active torsions:
REMARK  status: ('A' for Active; 'I' for Inactive)
REMARK    1  A    between atoms: C3_6  and  O2_7
REMARK    2  A    between atoms: C3_6  and  C4_9
REMARK    3  A    between atoms: C4_9  and  O3_10
REMARK    4  A    between atoms: C4_9  and  C5_12
REMARK    5  A    between atoms: C5_12  and  O4_13
REMARK    6  A    between atoms: C5_12  and  O5_15
REMARK    7  A    between atoms: C9_22  and  O8_23
REMARK    8  A    between atoms: C10_25  and  O9_26
REMARK    9  A    between atoms: C11_28  and  O10_29
REMARK   10  A    between atoms: C12_31  and  C13_32
REMARK   11  A    between atoms: C13_32  and  C14_33
REMARK   12  A    between atoms: C13_32  and  N2_42
REMARK   13  A    between atoms: C14_33  and  O11_34
REMARK   14  A    between atoms: C14_33  and  C15_36
REMARK   15  A    between atoms: C15_36  and  O12_37
REMARK   16  A    between atoms: C15_36  and  C16_39
REMARK   17  A    between atoms: C16_39  and  O13_40
ROOT
HETATM    1  O1  UNL     1      14.475  15.940  35.205  1.00  0.00    -0.273 OA
HETATM    2  C1  UNL     1      14.942  14.807  35.628  1.00  0.00     0.228 C
HETATM    3  N1  UNL     1      14.180  13.706  35.300  1.00  0.00    -0.355 N
ATOM      4  H1  UNL     1      13.966  13.645  34.305  1.00  0.00     0.162 HD
HETATM    5  C2  UNL     1      13.627  12.630  36.066  1.00  0.00     0.194 C
HETATM    6  C3  UNL     1      14.042  11.259  35.542  1.00  0.00     0.211 C
HETATM    7  O6  UNL     1      15.025  10.797  36.349  1.00  0.00    -0.318 OA
HETATM    8  C6  UNL     1      16.331  10.925  35.925  1.00  0.00     0.294 C
HETATM    9  O7  UNL     1      16.561  11.795  34.937  1.00  0.00    -0.358 OA
HETATM   10  C7  UNL     1      17.000  13.041  35.132  1.00  0.00     0.179 C
HETATM   11  C8  UNL     1      16.784  13.604  36.546  1.00  0.00     0.060 C
HETATM   12  C9  UNL     1      18.075  13.408  37.227  1.00  0.00     0.157 C
HETATM   13  C10 UNL     1      18.380  11.899  37.043  1.00  0.00     0.180 C
HETATM   14  C11 UNL     1      17.194  11.028  37.153  1.00  0.00     0.204 C
HETATM   15  C12 UNL     1      16.209  14.963  36.372  1.00  0.00     0.137 C
ENDROOT
BRANCH  15  16
HETATM   16  C13 UNL     1      16.137  15.894  37.483  1.00  0.00     0.058 C
BRANCH  16  17
HETATM   17  C14 UNL     1      16.936  17.126  37.570  1.00  0.00     0.197 C
BRANCH  17  18
HETATM   18  O11 UNL     1      16.540  17.836  38.779  1.00  0.00    -0.387 OA
ATOM     19  H11 UNL     1      16.913  18.709  38.743  1.00  0.00     0.210 HD
ENDBRANCH  17  18
BRANCH  17  20
HETATM   20  C15 UNL     1      18.418  17.020  37.774  1.00  0.00     0.176 C
BRANCH  20  21
HETATM   21  O12 UNL     1      18.878  17.657  38.928  1.00  0.00    -0.390 OA
ATOM     22  H12 UNL     1      19.535  18.325  38.766  1.00  0.00     0.210 HD
ENDBRANCH  20  21
BRANCH  20  23
HETATM   23  C16 UNL     1      19.180  17.688  36.626  1.00  0.00     0.198 C
BRANCH  23  24
HETATM   24  O13 UNL     1      19.097  16.920  35.468  1.00  0.00    -0.398 OA
ATOM     25  H13 UNL     1      19.763  16.243  35.465  1.00  0.00     0.209 HD
ENDBRANCH  23  24
ENDBRANCH  20  23
ENDBRANCH  17  20
ENDBRANCH  16  17
BRANCH  16  26
HETATM   26  N2  UNL     1      14.840  16.074  38.116  1.00  0.00    -0.256 N
HETATM   27  C17 UNL     1      14.251  15.349  39.059  1.00  0.00     0.207 A
HETATM   28  N3  UNL     1      13.053  15.896  39.360  1.00  0.00    -0.346 N
HETATM   29  C18 UNL     1      12.916  16.979  38.579  1.00  0.00     0.198 A
ATOM     30  H3  UNL     1      12.383  15.553  40.047  1.00  0.00     0.167 HD
HETATM   31  N4  UNL     1      14.015  17.059  37.838  1.00  0.00    -0.289 N
ATOM     32  H4  UNL     1      14.196  17.788  37.147  1.00  0.00     0.188 HD
ENDBRANCH  16  26
ENDBRANCH  15  16
BRANCH  12  33
HETATM   33  O8  UNL     1      19.179  14.001  36.588  1.00  0.00    -0.392 OA
ATOM     34  H8  UNL     1      19.275  14.934  36.736  1.00  0.00     0.210 HD
ENDBRANCH  12  33
BRANCH  13  35
HETATM   35  O9  UNL     1      19.265  11.580  38.076  1.00  0.00    -0.390 OA
ATOM     36  H9  UNL     1      18.795  11.785  38.876  1.00  0.00     0.210 HD
ENDBRANCH  13  35
BRANCH   6  37
HETATM   37  O2  UNL     1      14.367  11.374  34.188  1.00  0.00    -0.362 OA
ATOM     38  H2  UNL     1      15.289  11.588  34.110  1.00  0.00     0.213 HD
ENDBRANCH   6  37
BRANCH   6  39
HETATM   39  C4  UNL     1      12.852  10.329  35.646  1.00  0.00     0.236 C
BRANCH  39  40
HETATM   40  O3  UNL     1      13.201   9.120  34.969  1.00  0.00    -0.385 OA
ATOM     41  H3  UNL     1      13.189   9.307  34.037  1.00  0.00     0.210 HD
ENDBRANCH  39  40
BRANCH  39  42
HETATM   42  C5  UNL     1      12.462   9.983  37.056  1.00  0.00     0.287 C
BRANCH  42  43
HETATM   43  O4  UNL     1      11.097   9.943  37.275  1.00  0.00    -0.369 OA
ATOM     44  H4  UNL     1      10.846   9.994  38.190  1.00  0.00     0.212 HD
ENDBRANCH  42  43
BRANCH  42  45
HETATM   45  O5  UNL     1      12.964   8.728  37.403  1.00  0.00    -0.369 OA
ATOM     46  H5  UNL     1      12.445   8.347  38.101  1.00  0.00     0.212 HD
ENDBRANCH  42  45
ENDBRANCH  39  42
ENDBRANCH   6  39
BRANCH  14  47
HETATM   47  O10 UNL     1      17.692   9.748  37.528  1.00  0.00    -0.388 OA
ATOM     48  H10 UNL     1      18.641   9.756  37.571  1.00  0.00     0.210 HD
ENDBRANCH  14  47
TORSDOF 17
ENDMDL