MODEL 1
REMARK VINA RESULT: -7.544722616      0.000      0.000
REMARK  11 active torsions:
REMARK  status: ('A' for Active; 'I' for Inactive)
REMARK    1  A    between atoms: O1_2  and  C2_3
REMARK    2  A    between atoms: C3_4  and  N1_5
REMARK    3  A    between atoms: C5_10  and  N2_11
REMARK    4  A    between atoms: C6_15  and  O2_16
REMARK    5  A    between atoms: O2_16  and  C7_17
REMARK    6  A    between atoms: C9_19  and  N3_20
REMARK       I    between atoms: N3_20  and  C10_22
REMARK    7  A    between atoms: C10_22  and  C11_24
REMARK    8  A    between atoms: C11_24  and  C12_26
REMARK    9  A    between atoms: C17_33  and  N5_34
REMARK   10  A    between atoms: C19_39  and  N6_40
REMARK   11  A    between atoms: C20_44  and  O5_45
ROOT
HETATM    1  C7  UNL     1      46.955  40.614   7.167  1.00  0.00     0.154 C
HETATM    2  C8  UNL     1      45.452  40.377   7.111  1.00  0.00     0.061 C
HETATM    3  C9  UNL     1      44.996  39.776   5.827  1.00  0.00     0.117 C
HETATM    4  C17 UNL     1      45.425  40.665   4.648  1.00  0.00     0.208 C
HETATM    5  C18 UNL     1      46.942  40.581   4.665  1.00  0.00     0.070 C
HETATM    6  C19 UNL     1      47.365  41.331   5.919  1.00  0.00     0.214 C
ENDROOT
BRANCH   1   7
HETATM    7  O2  UNL     1      47.687  39.508   7.345  1.00  0.00    -0.374 OA
BRANCH   7   8
HETATM    8  C6  UNL     1      47.661  38.833   8.542  1.00  0.00     0.183 C
HETATM    9  C5  UNL     1      48.943  38.388   9.118  1.00  0.00     0.217 C
HETATM   10  C4  UNL     1      48.776  37.093   9.891  1.00  0.00     0.071 C
HETATM   11  C3  UNL     1      48.492  35.908   9.003  1.00  0.00     0.216 C
HETATM   12  C2  UNL     1      47.681  36.403   7.825  1.00  0.00     0.182 C
HETATM   13  C20 UNL     1      46.828  37.585   8.204  1.00  0.00     0.182 C
BRANCH   9  14
HETATM   14  N2  UNL     1      49.528  39.297  10.102  1.00  0.00    -0.072 N
ATOM     15  H23 UNL     1      49.230  40.268  10.010  1.00  0.00     0.274 HD
ATOM     16  H22 UNL     1      49.182  39.170  11.053  1.00  0.00     0.274 HD
ATOM     17  H21 UNL     1      50.531  39.150   9.994  1.00  0.00     0.274 HD
ENDBRANCH   9  14
BRANCH  11  18
HETATM   18  N1  UNL     1      47.830  34.827   9.660  1.00  0.00    -0.072 N
ATOM     19  H13 UNL     1      46.900  35.095   9.982  1.00  0.00     0.274 HD
ATOM     20  H12 UNL     1      47.562  34.094   9.003  1.00  0.00     0.274 HD
ATOM     21  H11 UNL     1      48.401  34.458  10.421  1.00  0.00     0.274 HD
ENDBRANCH  11  18
BRANCH  12  22
HETATM   22  O1  UNL     1      48.458  36.714   6.719  1.00  0.00    -0.386 OA
HETATM   23  C1  UNL     1      49.270  35.655   6.342  1.00  0.00     0.202 C
ENDBRANCH  12  22
BRANCH  13  24
HETATM   24  O5  UNL     1      45.966  37.280   9.246  1.00  0.00    -0.385 OA
HETATM   25  C21 UNL     1      45.338  38.451   9.732  1.00  0.00     0.202 C
ENDBRANCH  13  24
ENDBRANCH   7   8
ENDBRANCH   1   7
BRANCH   6  26
HETATM   26  N6  UNL     1      48.800  41.454   5.838  1.00  0.00    -0.072 N
ATOM     27  H63 UNL     1      49.216  41.610   6.757  1.00  0.00     0.274 HD
ATOM     28  H62 UNL     1      49.242  40.562   5.616  1.00  0.00     0.274 HD
ATOM     29  H61 UNL     1      49.070  42.182   5.176  1.00  0.00     0.274 HD
ENDBRANCH   6  26
BRANCH   3  30
HETATM   30  N3  UNL     1      43.581  39.638   5.797  1.00  0.00    -0.347 N
HETATM   31  C10 UNL     1      42.862  38.497   6.267  1.00  0.00     0.292 C
HETATM   32  O3  UNL     1      43.535  37.572   6.724  1.00  0.00    -0.264 OA
ATOM     33  H3  UNL     1      43.039  40.411   5.412  1.00  0.00     0.163 HD
BRANCH  31  34
HETATM   34  C11 UNL     1      41.425  38.458   6.198  1.00  0.00     0.250 C
HETATM   35  O4  UNL     1      40.875  37.901   5.170  1.00  0.00    -0.281 OA
BRANCH  34  36
HETATM   36  C12 UNL     1      40.481  38.978   7.164  1.00  0.00     0.035 A
HETATM   37  C13 UNL     1      40.732  40.071   7.948  1.00  0.00     0.018 A
HETATM   38  C14 UNL     1      39.790  40.525   8.859  1.00  0.00     0.018 A
HETATM   39  C15 UNL     1      38.577  39.911   9.017  1.00  0.00     0.087 A
HETATM   40  N4  UNL     1      38.356  38.835   8.227  1.00  0.00    -0.374 N
HETATM   41  C16 UNL     1      39.234  38.367   7.341  1.00  0.00     0.103 A
ATOM     42  H4  UNL     1      37.462  38.353   8.315  1.00  0.00     0.164 HD
ENDBRANCH  34  36
ENDBRANCH  31  34
ENDBRANCH   3  30
BRANCH   4  43
HETATM   43  N5  UNL     1      45.067  42.038   4.882  1.00  0.00    -0.073 N
ATOM     44  H53 UNL     1      44.200  42.116   5.414  1.00  0.00     0.274 HD
ATOM     45  H52 UNL     1      45.698  42.483   5.549  1.00  0.00     0.274 HD
ATOM     46  H51 UNL     1      45.018  42.557   4.006  1.00  0.00     0.274 HD
ENDBRANCH   4  43
TORSDOF 11
ENDMDL