MODEL 5
REMARK VINA RESULT: -6.329351499      3.985      7.170
REMARK  13 active torsions:
REMARK  status: ('A' for Active; 'I' for Inactive)
REMARK    1  A    between atoms: C2_2  and  O1_3
REMARK    2  A    between atoms: O1_3  and  N1_4
REMARK    3  A    between atoms: N1_4  and  C3_6
REMARK    4  A    between atoms: C3_6  and  N2_8
REMARK    5  A    between atoms: N2_8  and  C4_10
REMARK    6  A    between atoms: C5_11  and  O2_12
REMARK    7  A    between atoms: C7_16  and  C8_17
REMARK    8  A    between atoms: C8_17  and  O4_18
REMARK    9  A    between atoms: C9_20  and  O5_21
REMARK   10  A    between atoms: C10_23  and  O6_24
REMARK   11  A    between atoms: O6_24  and  C11_25
REMARK   12  A    between atoms: C17_31  and  O7_32
REMARK   13  A    between atoms: C18_34  and  N3_35
ROOT
HETATM    1  C4  UNL     1      44.346  38.761   7.618  1.00  0.00     0.163 C
HETATM    2  C5  UNL     1      43.349  39.103   6.555  1.00  0.00     0.176 C
HETATM    3  C6  UNL     1      42.113  39.539   7.337  1.00  0.00     0.162 C
HETATM    4  O3  UNL     1      40.956  39.547   6.636  1.00  0.00    -0.373 OA
HETATM    5  C7  UNL     1      39.912  39.699   7.566  1.00  0.00     0.176 C
HETATM    6  C9  UNL     1      40.333  40.492   8.781  1.00  0.00     0.178 C
HETATM    7  C10 UNL     1      41.259  41.608   8.240  1.00  0.00     0.162 C
HETATM    8  C16 UNL     1      42.522  40.927   7.822  1.00  0.00     0.083 C
HETATM    9  C17 UNL     1      43.553  40.813   8.897  1.00  0.00     0.174 C
HETATM   10  C18 UNL     1      44.665  39.850   8.599  1.00  0.00     0.039 C
ENDROOT
BRANCH   1  11
HETATM   11  N2  UNL     1      45.486  38.130   7.032  1.00  0.00    -0.353 N
ATOM     12  H2  UNL     1      45.726  38.340   6.063  1.00  0.00     0.162 HD
BRANCH  11  13
HETATM   13  C3  UNL     1      46.293  37.223   7.759  1.00  0.00     0.192 C
HETATM   14  S1  UNL     1      45.644  36.614   9.170  1.00  0.00    -0.039 SA
BRANCH  13  15
HETATM   15  N1  UNL     1      47.595  36.804   7.378  1.00  0.00    -0.241 N
ATOM     16  H1  UNL     1      47.739  36.160   6.601  1.00  0.00     0.197 HD
BRANCH  15  17
HETATM   17  O1  UNL     1      48.647  37.299   8.097  1.00  0.00    -0.279 OA
BRANCH  17  18
HETATM   18  C2  UNL     1      49.458  36.263   8.552  1.00  0.00     0.197 C
HETATM   19  C1  UNL     1      49.415  36.273  10.064  1.00  0.00     0.036 C
ENDBRANCH  17  18
ENDBRANCH  15  17
ENDBRANCH  13  15
ENDBRANCH  11  13
ENDBRANCH   1  11
BRANCH   2  20
HETATM   20  O2  UNL     1      43.109  38.046   5.735  1.00  0.00    -0.391 OA
ATOM     21  H2  UNL     1      43.852  37.865   5.172  1.00  0.00     0.210 HD
ENDBRANCH   2  20
BRANCH  10  22
HETATM   22  N3  UNL     1      45.899  40.506   8.438  1.00  0.00    -0.392 N
HETATM   23  C19 UNL     1      46.272  41.170   7.289  1.00  0.00     0.148 C
HETATM   24  C20 UNL     1      46.884  40.278   9.436  1.00  0.00     0.148 C
ENDBRANCH  10  22
BRANCH   9  25
HETATM   25  O7  UNL     1      44.139  42.059   9.094  1.00  0.00    -0.389 OA
ATOM     26  H7  UNL     1      44.918  41.953   9.628  1.00  0.00     0.210 HD
ENDBRANCH   9  25
BRANCH   5  27
HETATM   27  C8  UNL     1      39.211  38.415   7.882  1.00  0.00     0.198 C
BRANCH  27  28
HETATM   28  O4  UNL     1      38.065  38.548   8.634  1.00  0.00    -0.398 OA
ATOM     29  H4  UNL     1      37.687  37.731   8.938  1.00  0.00     0.209 HD
ENDBRANCH  27  28
ENDBRANCH   5  27
BRANCH   7  30
HETATM   30  O6  UNL     1      41.340  42.555   9.194  1.00  0.00    -0.377 OA
BRANCH  30  31
HETATM   31  C11 UNL     1      41.071  43.830   8.914  1.00  0.00     0.122 C
HETATM   32  C12 UNL     1      41.804  44.731   9.923  1.00  0.00     0.032 C
HETATM   33  C13 UNL     1      40.794  45.032  10.985  1.00  0.00     0.002 C
HETATM   34  C14 UNL     1      39.453  44.503  10.525  1.00  0.00     0.002 C
HETATM   35  C15 UNL     1      39.677  44.322   9.041  1.00  0.00     0.032 C
ENDBRANCH  30  31
ENDBRANCH   7  30
BRANCH   6  36
HETATM   36  O5  UNL     1      39.170  41.054   9.301  1.00  0.00    -0.390 OA
ATOM     37  H5  UNL     1      39.450  41.698   9.942  1.00  0.00     0.210 HD
ENDBRANCH   6  36
TORSDOF 13
ENDMDL