MODEL 3
REMARK VINA RESULT: -8.657912005      2.272      3.053
REMARK  11 active torsions:
REMARK  status: ('A' for Active; 'I' for Inactive)
REMARK    1  A    between atoms: C9_15  and  C10_16
REMARK    2  A    between atoms: C10_16  and  O2_17
REMARK    3  A    between atoms: O2_17  and  C11_18
REMARK    4  A    between atoms: C14_21  and  O3_22
REMARK    5  A    between atoms: C15_24  and  C16_25
REMARK    6  A    between atoms: C16_25  and  N4_26
REMARK    7  A    between atoms: N4_26  and  C17_28
REMARK    8  A    between atoms: C17_28  and  O4_32
REMARK    9  A    between atoms: O4_32  and  C18_33
REMARK   10  A    between atoms: C18_33  and  C19_34
REMARK   11  A    between atoms: N6_35  and  O5_37
ROOT
HETATM    1  C11 UNL     1      42.218  38.358   7.054  1.00  0.00     0.153 C
HETATM    2  C12 UNL     1      40.869  37.673   7.276  1.00  0.00     0.043 C
HETATM    3  C13 UNL     1      40.225  39.031   7.094  1.00  0.00     0.052 C
HETATM    4  C14 UNL     1      39.301  39.450   8.193  1.00  0.00     0.156 C
HETATM    5  C15 UNL     1      40.205  39.609   9.373  1.00  0.00     0.233 C
HETATM    6  N7  UNL     1      41.560  39.773   8.901  1.00  0.00    -0.060 N
ATOM      7  H71 UNL     1      42.214  39.131   9.349  1.00  0.00     0.278 HD
ATOM      8  H72 UNL     1      41.984  40.645   9.218  1.00  0.00     0.278 HD
HETATM    9  C20 UNL     1      41.555  39.649   7.476  1.00  0.00     0.221 C
ENDROOT
BRANCH   1  10
HETATM   10  O2  UNL     1      42.555  38.280   5.703  1.00  0.00    -0.383 OA
BRANCH  10  11
HETATM   11  C10 UNL     1      43.075  39.510   5.344  1.00  0.00     0.175 C
BRANCH  11  12
HETATM   12  C9  UNL     1      44.448  39.765   5.926  1.00  0.00     0.040 C
HETATM   13  C3  UNL     1      45.426  39.297   4.839  1.00  0.00     0.091 C
HETATM   14  N3  UNL     1      46.847  39.149   5.660  1.00  0.00    -0.350 N
HETATM   15  C4  UNL     1      45.646  40.493   4.019  1.00  0.00     0.028 C
HETATM   16  C2  UNL     1      46.596  39.968   6.747  1.00  0.00     0.234 C
ATOM     17  H3  UNL     1      47.679  38.605   5.432  1.00  0.00     0.163 HD
HETATM   18  N2  UNL     1      46.817  41.073   6.010  1.00  0.00    -0.264 N
HETATM   19  O1  UNL     1      46.242  40.033   8.026  1.00  0.00    -0.321 OA
HETATM   20  N1  UNL     1      46.727  42.318   6.212  1.00  0.00    -0.305 N
ATOM     21  H2  UNL     1      47.132  40.854   5.065  1.00  0.00     0.190 HD
HETATM   22  C1  UNL     1      47.130  43.566   6.491  1.00  0.00     0.143 C
HETATM   23  C6  UNL     1      45.073  42.272   5.842  1.00  0.00     0.113 C
HETATM   24  C5  UNL     1      45.181  41.852   4.383  1.00  0.00     0.030 C
HETATM   25  C7  UNL     1      44.535  41.087   6.580  1.00  0.00     0.043 C
HETATM   26  C8  UNL     1      44.939  40.912   8.060  1.00  0.00     0.186 C
ENDBRANCH  11  12
ENDBRANCH  10  11
ENDBRANCH   1  10
BRANCH   4  27
HETATM   27  O3  UNL     1      38.283  38.508   8.399  1.00  0.00    -0.393 OA
ATOM     28  H3  UNL     1      37.516  38.903   8.796  1.00  0.00     0.210 HD
ENDBRANCH   4  27
BRANCH   5  29
HETATM   29  C16 UNL     1      39.868  40.821  10.206  1.00  0.00     0.159 C
BRANCH  29  30
HETATM   30  N4  UNL     1      39.371  41.858   9.337  1.00  0.00    -0.354 N
ATOM     31  H4  UNL     1      38.413  41.811   8.990  1.00  0.00     0.163 HD
BRANCH  30  32
HETATM   32  C17 UNL     1      40.208  42.948   8.959  1.00  0.00     0.212 C
HETATM   33  N5  UNL     1      39.756  44.146   8.980  1.00  0.00    -0.365 N
ATOM     34  H52 UNL     1      38.794  44.322   9.269  1.00  0.00     0.159 HD
ATOM     35  H51 UNL     1      40.355  44.926   8.709  1.00  0.00     0.159 HD
BRANCH  32  36
HETATM   36  O4  UNL     1      41.499  42.711   8.572  1.00  0.00    -0.317 OA
BRANCH  36  37
HETATM   37  C18 UNL     1      42.490  43.696   8.708  1.00  0.00     0.225 C
BRANCH  37  38
HETATM   38  C19 UNL     1      43.072  43.619  10.072  1.00  0.00     0.113 C
HETATM   39  N6  UNL     1      42.843  44.572  10.891  1.00  0.00    -0.282 N
ATOM     40  H6  UNL     1      43.239  44.524  11.829  1.00  0.00     0.192 HD
BRANCH  39  41
HETATM   41  O5  UNL     1      42.081  45.654  10.543  1.00  0.00    -0.290 OA
ATOM     42  H5  UNL     1      42.472  46.468  10.249  1.00  0.00     0.244 HD
ENDBRANCH  39  41
ENDBRANCH  37  38
ENDBRANCH  36  37
ENDBRANCH  32  36
ENDBRANCH  30  32
ENDBRANCH  29  30
ENDBRANCH   5  29
TORSDOF 11
ENDMDL