MODEL 3
REMARK VINA RESULT: -8.663133368      1.884      2.596
REMARK  13 active torsions:
REMARK  status: ('A' for Active; 'I' for Inactive)
REMARK    1  A    between atoms: N1_1  and  N2_4
REMARK    2  A    between atoms: N3_6  and  C1_8
REMARK    3  A    between atoms: C2_9  and  C3_10
REMARK    4  A    between atoms: C3_10  and  O1_11
REMARK    5  A    between atoms: O1_11  and  C4_12
REMARK    6  A    between atoms: C4_12  and  C5_14
REMARK    7  A    between atoms: C11_21  and  O4_22
REMARK    8  A    between atoms: O4_22  and  C12_23
REMARK    9  A    between atoms: C13_24  and  O5_25
REMARK   10  A    between atoms: C14_27  and  O6_28
REMARK   11  A    between atoms: C15_30  and  N4_31
REMARK   12  A    between atoms: C19_38  and  O7_39
REMARK   13  A    between atoms: C20_41  and  O8_42
ROOT
HETATM    1  C1  UNL     1      41.147  43.055   9.678  1.00  0.00     0.163 C
HETATM    2  C2  UNL     1      41.497  41.612   9.827  1.00  0.00     0.176 C
HETATM    3  O3  UNL     1      42.396  41.268   8.840  1.00  0.00    -0.349 OA
HETATM    4  C11 UNL     1      43.640  41.803   9.260  1.00  0.00     0.292 C
HETATM    5  C19 UNL     1      43.590  43.288   9.117  1.00  0.00     0.204 C
HETATM    6  C20 UNL     1      42.344  43.938   9.580  1.00  0.00     0.178 C
ENDROOT
BRANCH   4   7
HETATM    7  O4  UNL     1      44.680  41.334   8.490  1.00  0.00    -0.350 OA
BRANCH   7   8
HETATM    8  C12 UNL     1      44.369  40.180   7.775  1.00  0.00     0.160 C
HETATM    9  C13 UNL     1      44.987  38.944   8.345  1.00  0.00     0.178 C
HETATM   10  C14 UNL     1      46.322  38.601   7.707  1.00  0.00     0.180 C
HETATM   11  C15 UNL     1      46.047  38.347   6.256  1.00  0.00     0.219 C
HETATM   12  C16 UNL     1      45.564  39.602   5.624  1.00  0.00     0.026 A
HETATM   13  C17 UNL     1      46.073  40.938   6.020  1.00  0.00     0.015 A
HETATM   14  C18 UNL     1      44.649  40.435   6.349  1.00  0.00     0.024 A
BRANCH   9  15
HETATM   15  O5  UNL     1      44.131  37.869   8.049  1.00  0.00    -0.390 OA
ATOM     16  H5  UNL     1      43.294  38.049   8.460  1.00  0.00     0.210 HD
ENDBRANCH   9  15
BRANCH  10  17
HETATM   17  O6  UNL     1      46.762  37.424   8.356  1.00  0.00    -0.391 OA
ATOM     18  H6  UNL     1      47.701  37.391   8.214  1.00  0.00     0.210 HD
ENDBRANCH  10  17
BRANCH  11  19
HETATM   19  N4  UNL     1      47.240  37.846   5.604  1.00  0.00    -0.072 N
ATOM     20  H43 UNL     1      47.344  36.838   5.720  1.00  0.00     0.274 HD
ATOM     21  H42 UNL     1      47.159  37.873   4.588  1.00  0.00     0.274 HD
ATOM     22  H41 UNL     1      48.060  38.355   5.936  1.00  0.00     0.274 HD
ENDBRANCH  11  19
ENDBRANCH   7   8
ENDBRANCH   4   7
BRANCH   5  23
HETATM   23  O7  UNL     1      43.903  43.582   7.770  1.00  0.00    -0.388 OA
ATOM     24  H7  UNL     1      44.822  43.376   7.649  1.00  0.00     0.210 HD
ENDBRANCH   5  23
BRANCH   2  25
HETATM   25  C3  UNL     1      40.285  40.743   9.889  1.00  0.00     0.213 C
BRANCH  25  26
HETATM   26  O1  UNL     1      39.679  40.510   8.653  1.00  0.00    -0.315 OA
BRANCH  26  27
HETATM   27  C4  UNL     1      39.400  39.166   8.340  1.00  0.00     0.293 C
HETATM   28  O2  UNL     1      38.671  38.478   9.094  1.00  0.00    -0.259 OA
BRANCH  27  29
HETATM   29  C5  UNL     1      39.943  38.548   7.148  1.00  0.00     0.039 A
HETATM   30  C6  UNL     1      41.135  39.022   6.598  1.00  0.00     0.017 A
HETATM   31  C7  UNL     1      41.660  38.440   5.463  1.00  0.00     0.001 A
HETATM   32  C8  UNL     1      40.965  37.385   4.904  1.00  0.00     0.000 A
HETATM   33  C9  UNL     1      39.792  36.908   5.434  1.00  0.00     0.001 A
HETATM   34  C10 UNL     1      39.279  37.498   6.568  1.00  0.00     0.017 A
ENDBRANCH  27  29
ENDBRANCH  26  27
ENDBRANCH  25  26
ENDBRANCH   2  25
BRANCH   6  35
HETATM   35  O8  UNL     1      42.589  44.638  10.777  1.00  0.00    -0.391 OA
ATOM     36  H8  UNL     1      43.050  44.107  11.416  1.00  0.00     0.210 HD
ENDBRANCH   6  35
BRANCH   1  37
HETATM   37  N3  UNL     1      40.191  43.284   8.604  1.00  0.00    -0.313 N
HETATM   38  N2  UNL     1      39.287  44.087   8.835  1.00  0.00    -0.253 N
ATOM     39  H2  UNL     1      39.418  44.217   9.838  1.00  0.00     0.207 HD
ATOM     40  H3  UNL     1      40.266  42.806   7.707  1.00  0.00     0.182 HD
BRANCH  38  41
HETATM   41  N1  UNL     1      38.333  44.832   8.645  1.00  0.00    -0.331 N
ATOM     42  H12 UNL     1      37.628  44.103   8.544  1.00  0.00     0.178 HD
ATOM     43  H11 UNL     1      37.799  45.692   8.524  1.00  0.00     0.178 HD
ENDBRANCH  38  41
ENDBRANCH   1  37
TORSDOF 13
ENDMDL