MODEL 3
REMARK VINA RESULT: -7.323757097      2.228      5.046
REMARK  12 active torsions:
REMARK  status: ('A' for Active; 'I' for Inactive)
REMARK    1  A    between atoms: N1_1  and  C1_4
REMARK    2  A    between atoms: C3_8  and  C4_9
REMARK    3  A    between atoms: C4_9  and  C5_10
REMARK    4  A    between atoms: C5_10  and  N3_11
REMARK    5  A    between atoms: C5_10  and  C6_15
REMARK       I    between atoms: C6_15  and  N4_17
REMARK    6  A    between atoms: N4_17  and  C7_19
REMARK    7  A    between atoms: C8_20  and  O2_21
REMARK    8  A    between atoms: C9_23  and  O3_24
REMARK    9  A    between atoms: C10_26  and  C11_27
REMARK   10  A    between atoms: C12_28  and  S1_29
REMARK   11  A    between atoms: S1_29  and  C13_30
REMARK   12  A    between atoms: N6_38  and  O4_39
ROOT
HETATM    1  C6  UNL     1      44.407  41.875   8.704  1.00  0.00     0.249 C
HETATM    2  O1  UNL     1      44.959  40.755   8.905  1.00  0.00    -0.271 OA
HETATM    3  N4  UNL     1      44.649  42.629   7.527  1.00  0.00    -0.351 N
ATOM      4  H4  UNL     1      44.198  43.530   7.374  1.00  0.00     0.163 HD
ENDROOT
BRANCH   1   5
HETATM    5  C5  UNL     1      43.481  42.396   9.745  1.00  0.00     0.280 C
BRANCH   5   6
HETATM    6  C4  UNL     1      42.858  43.690   9.364  1.00  0.00     0.102 C
BRANCH   6   7
HETATM    7  C3  UNL     1      41.492  43.923   9.863  1.00  0.00     0.047 A
HETATM    8  C2  UNL     1      41.119  43.824  11.164  1.00  0.00     0.132 A
HETATM    9  N2  UNL     1      39.836  44.047  11.496  1.00  0.00    -0.197 N
HETATM   10  C1  UNL     1      38.962  44.361  10.532  1.00  0.00     0.717 A
ATOM     11  H2  UNL     1      39.532  43.977  12.468  1.00  0.00     0.183 HD
HETATM   12  N6  UNL     1      39.308  44.466   9.238  1.00  0.00     0.016 N
HETATM   13  N5  UNL     1      40.561  44.248   8.911  1.00  0.00    -0.262 N
ATOM     14  H5  UNL     1      40.845  44.323   7.934  1.00  0.00     0.190 HD
BRANCH  10  15
HETATM   15  N1  UNL     1      37.728  44.576  10.851  1.00  0.00    -0.231 N
ATOM     16  H12 UNL     1      37.241  43.861  11.393  1.00  0.00     0.174 HD
ATOM     17  H11 UNL     1      37.285  45.445  10.553  1.00  0.00     0.174 HD
ENDBRANCH  10  15
BRANCH  12  18
HETATM   18  O4  UNL     1      38.337  44.794   8.318  1.00  0.00    -0.254 OA
ATOM     19  H4  UNL     1      37.603  44.203   8.197  1.00  0.00     0.247 HD
ENDBRANCH  12  18
ENDBRANCH   6   7
ENDBRANCH   5   6
BRANCH   5  20
HETATM   20  N3  UNL     1      42.541  41.355  10.073  1.00  0.00    -0.066 N
ATOM     21  H33 UNL     1      42.817  40.476   9.635  1.00  0.00     0.275 HD
ATOM     22  H32 UNL     1      42.628  41.095  11.055  1.00  0.00     0.275 HD
ATOM     23  H31 UNL     1      41.571  41.574   9.848  1.00  0.00     0.275 HD
ENDBRANCH   5  20
ENDBRANCH   1   5
BRANCH   3  24
HETATM   24  C7  UNL     1      45.559  42.069   6.552  1.00  0.00     0.126 C
HETATM   25  C8  UNL     1      45.903  43.148   5.525  1.00  0.00     0.171 C
HETATM   26  C9  UNL     1      45.785  42.074   4.465  1.00  0.00     0.158 C
HETATM   27  C10 UNL     1      44.869  41.327   5.413  1.00  0.00     0.065 C
BRANCH  25  28
HETATM   28  O2  UNL     1      47.214  43.584   5.738  1.00  0.00    -0.391 OA
ATOM     29  H2  UNL     1      47.260  44.521   5.585  1.00  0.00     0.210 HD
ENDBRANCH  25  28
BRANCH  26  30
HETATM   30  O3  UNL     1      46.981  41.426   4.189  1.00  0.00    -0.392 OA
ATOM     31  H3  UNL     1      47.723  42.012   4.102  1.00  0.00     0.210 HD
ENDBRANCH  26  30
BRANCH  27  32
HETATM   32  C11 UNL     1      45.224  39.880   5.492  1.00  0.00    -0.010 C
HETATM   33  C12 UNL     1      44.326  38.918   5.512  1.00  0.00     0.043 C
BRANCH  33  34
HETATM   34  S1  UNL     1      42.586  39.327   5.445  1.00  0.00    -0.116 SA
BRANCH  34  35
HETATM   35  C13 UNL     1      41.835  39.041   7.065  1.00  0.00     0.173 C
HETATM   36  S2  UNL     1      40.774  37.552   7.028  1.00  0.00    -0.143 SA
HETATM   37  C14 UNL     1      39.053  38.189   6.986  1.00  0.00     0.076 C
HETATM   38  C15 UNL     1      38.703  38.740   8.355  1.00  0.00     0.020 C
HETATM   39  C16 UNL     1      39.578  39.875   8.770  1.00  0.00     0.076 C
HETATM   40  S3  UNL     1      40.734  40.423   7.505  1.00  0.00    -0.143 SA
ENDBRANCH  34  35
ENDBRANCH  33  34
ENDBRANCH  27  32
ENDBRANCH   3  24
TORSDOF 12
ENDMDL