MODEL 3
REMARK VINA RESULT: -6.804743763      2.860      6.752
REMARK  13 active torsions:
REMARK  status: ('A' for Active; 'I' for Inactive)
REMARK    1  A    between atoms: C2_2  and  C3_3
REMARK    2  A    between atoms: C3_3  and  N1_4
REMARK    3  A    between atoms: C4_6  and  C5_7
REMARK    4  A    between atoms: C6_11  and  O1_12
REMARK    5  A    between atoms: O1_12  and  C7_13
REMARK    6  A    between atoms: C9_15  and  C10_16
REMARK    7  A    between atoms: C10_16  and  N3_17
REMARK    8  A    between atoms: C11_21  and  C12_22
REMARK    9  A    between atoms: C12_22  and  O2_23
REMARK   10  A    between atoms: C13_26  and  N4_27
REMARK   11  A    between atoms: C18_34  and  N5_35
REMARK   12  A    between atoms: C19_39  and  O4_40
REMARK   13  A    between atoms: C20_42  and  O5_43
ROOT
HETATM    1  C5  UNL     1      40.437  40.510   8.727  1.00  0.00     0.258 C
HETATM    2  N2  UNL     1      41.641  40.351   9.526  1.00  0.00    -0.035 N
ATOM      3  H21 UNL     1      42.254  39.618   9.168  1.00  0.00     0.281 HD
ATOM      4  H22 UNL     1      41.453  39.941  10.440  1.00  0.00     0.281 HD
HETATM    5  C6  UNL     1      42.304  41.636   9.617  1.00  0.00     0.349 C
HETATM    6  C13 UNL     1      41.507  42.629  10.410  1.00  0.00     0.169 C
HETATM    7  C19 UNL     1      40.094  42.116  10.615  1.00  0.00     0.176 C
HETATM    8  C20 UNL     1      39.502  41.516   9.358  1.00  0.00     0.184 C
ENDROOT
BRANCH   5   9
HETATM    9  O1  UNL     1      42.692  42.121   8.379  1.00  0.00    -0.327 OA
BRANCH   9  10
HETATM   10  C7  UNL     1      43.927  41.731   7.965  1.00  0.00     0.263 C
HETATM   11  C8  UNL     1      43.731  40.654   6.887  1.00  0.00     0.069 C
HETATM   12  C9  UNL     1      45.192  40.561   6.417  1.00  0.00     0.047 C
HETATM   13  C11 UNL     1      45.559  42.015   6.445  1.00  0.00     0.154 C
HETATM   14  O3  UNL     1      44.680  42.660   7.311  1.00  0.00    -0.353 OA
BRANCH  12  15
HETATM   15  C10 UNL     1      45.219  39.913   5.080  1.00  0.00     0.236 C
BRANCH  15  16
HETATM   16  N3  UNL     1      45.846  38.623   5.102  1.00  0.00    -0.079 N
ATOM     17  H33 UNL     1      46.843  38.704   5.299  1.00  0.00     0.274 HD
ATOM     18  H32 UNL     1      45.558  38.091   5.923  1.00  0.00     0.274 HD
ATOM     19  H31 UNL     1      45.683  38.092   4.247  1.00  0.00     0.274 HD
ENDBRANCH  15  16
ENDBRANCH  12  15
BRANCH  13  20
HETATM   20  C12 UNL     1      45.471  42.702   5.103  1.00  0.00     0.196 C
BRANCH  20  21
HETATM   21  O2  UNL     1      46.446  43.728   5.144  1.00  0.00    -0.398 OA
ATOM     22  H2  UNL     1      46.005  44.505   4.822  1.00  0.00     0.209 HD
ENDBRANCH  20  21
ENDBRANCH  13  20
ENDBRANCH   9  10
ENDBRANCH   5   9
BRANCH   6  23
HETATM   23  N4  UNL     1      42.081  42.754  11.718  1.00  0.00    -0.375 N
HETATM   24  C14 UNL     1      42.202  43.894  12.306  1.00  0.00     0.076 C
HETATM   25  S1  UNL     1      41.789  45.573  11.862  1.00  0.00    -0.103 SA
HETATM   26  C18 UNL     1      42.743  44.314  13.623  1.00  0.00     0.257 C
HETATM   27  C15 UNL     1      41.830  45.520  13.676  1.00  0.00     0.041 C
HETATM   28  C16 UNL     1      40.489  45.132  14.243  1.00  0.00     0.029 C
HETATM   29  C17 UNL     1      42.471  46.728  14.313  1.00  0.00     0.029 C
ATOM     30  H4  UNL     1      42.403  41.914  12.197  1.00  0.00     0.160 HD
BRANCH  26  31
HETATM   31  N5  UNL     1      44.156  44.647  13.548  1.00  0.00    -0.068 N
ATOM     32  H53 UNL     1      44.504  44.990  14.443  1.00  0.00     0.275 HD
ATOM     33  H52 UNL     1      44.730  43.809  13.463  1.00  0.00     0.275 HD
ATOM     34  H51 UNL     1      44.352  45.307  12.796  1.00  0.00     0.275 HD
ENDBRANCH  26  31
ENDBRANCH   6  23
BRANCH   1  35
HETATM   35  C4  UNL     1      39.789  39.213   8.449  1.00  0.00     0.091 C
HETATM   36  N1  UNL     1      40.033  38.604   7.350  1.00  0.00    -0.397 N
ATOM     37  H1  UNL     1      40.679  39.046   6.696  1.00  0.00     0.159 HD
BRANCH  36  38
HETATM   38  C3  UNL     1      39.467  37.353   6.977  1.00  0.00     0.145 C
BRANCH  38  39
HETATM   39  C2  UNL     1      39.955  37.058   5.586  1.00  0.00    -0.018 C
HETATM   40  C1  UNL     1      40.971  37.728   5.083  1.00  0.00     0.008 C
ENDBRANCH  38  39
ENDBRANCH  36  38
ENDBRANCH   1  35
BRANCH   7  41
HETATM   41  O4  UNL     1      39.960  41.297  11.707  1.00  0.00    -0.391 OA
ATOM     42  H4  UNL     1      39.057  41.127  11.945  1.00  0.00     0.210 HD
ENDBRANCH   7  41
BRANCH   8  43
HETATM   43  O5  UNL     1      38.350  40.824   9.744  1.00  0.00    -0.390 OA
ATOM     44  H5  UNL     1      37.618  41.220   9.288  1.00  0.00     0.210 HD
ENDBRANCH   8  43
TORSDOF 13
ENDMDL