MODEL 5
REMARK VINA RESULT: -6.623575609      2.306      6.278
REMARK  12 active torsions:
REMARK  status: ('A' for Active; 'I' for Inactive)
REMARK    1  A    between atoms: C9_9  and  N1_10
REMARK    2  A    between atoms: N1_10  and  C10_11
REMARK    3  A    between atoms: N1_10  and  N2_13
REMARK    4  A    between atoms: N2_13  and  O1_14
REMARK    5  A    between atoms: C12_16  and  O2_17
REMARK    6  A    between atoms: O2_17  and  C13_18
REMARK    7  A    between atoms: C14_20  and  C15_21
REMARK    8  A    between atoms: C15_21  and  O4_22
REMARK    9  A    between atoms: C16_24  and  O5_25
REMARK   10  A    between atoms: C17_27  and  O6_28
REMARK   11  A    between atoms: C18_30  and  O7_31
REMARK   12  A    between atoms: C20_34  and  O8_35
ROOT
HETATM    1  C1  UNL     1      41.152  38.469   7.037  1.00  0.00     0.015 C
HETATM    2  C2  UNL     1      41.149  39.719   7.501  1.00  0.00    -0.072 C
HETATM    3  C3  UNL     1      40.092  40.468   8.239  1.00  0.00     0.051 C
HETATM    4  C4  UNL     1      39.862  39.867   9.573  1.00  0.00     0.017 C
HETATM    5  C5  UNL     1      41.173  40.167  10.305  1.00  0.00    -0.005 C
HETATM    6  C6  UNL     1      40.887  39.971  11.756  1.00  0.00     0.011 C
HETATM    7  C7  UNL     1      41.569  41.507   9.879  1.00  0.00     0.016 C
HETATM    8  C8  UNL     1      40.987  42.645  10.662  1.00  0.00     0.021 C
HETATM    9  C9  UNL     1      42.997  41.736   9.529  1.00  0.00     0.148 C
HETATM   10  C12 UNL     1      43.275  40.800   8.336  1.00  0.00     0.161 C
HETATM   11  C19 UNL     1      42.011  40.908   7.564  1.00  0.00     0.081 C
HETATM   12  C20 UNL     1      40.988  41.610   8.465  1.00  0.00     0.085 C
ENDROOT
BRANCH  10  13
HETATM   13  O2  UNL     1      44.378  41.347   7.707  1.00  0.00    -0.350 OA
BRANCH  13  14
HETATM   14  C13 UNL     1      45.088  40.495   6.921  1.00  0.00     0.292 C
HETATM   15  O3  UNL     1      45.940  39.648   7.608  1.00  0.00    -0.348 OA
HETATM   16  C14 UNL     1      46.965  39.145   6.826  1.00  0.00     0.179 C
HETATM   17  C16 UNL     1      46.592  39.071   5.362  1.00  0.00     0.180 C
HETATM   18  C17 UNL     1      46.244  40.411   4.780  1.00  0.00     0.183 C
HETATM   19  C18 UNL     1      45.883  41.328   5.931  1.00  0.00     0.204 C
BRANCH  16  20
HETATM   20  C15 UNL     1      47.215  37.718   7.285  1.00  0.00     0.198 C
BRANCH  20  21
HETATM   21  O4  UNL     1      48.013  37.006   6.422  1.00  0.00    -0.398 OA
ATOM     22  H4  UNL     1      48.128  36.100   6.683  1.00  0.00     0.209 HD
ENDBRANCH  20  21
ENDBRANCH  16  20
BRANCH  17  23
HETATM   23  O5  UNL     1      45.612  38.103   5.132  1.00  0.00    -0.390 OA
ATOM     24  H5  UNL     1      44.750  38.494   5.051  1.00  0.00     0.210 HD
ENDBRANCH  17  23
BRANCH  18  25
HETATM   25  O6  UNL     1      45.096  40.239   3.977  1.00  0.00    -0.390 OA
ATOM     26  H6  UNL     1      45.296  40.587   3.116  1.00  0.00     0.210 HD
ENDBRANCH  18  25
BRANCH  19  27
HETATM   27  O7  UNL     1      45.096  42.385   5.506  1.00  0.00    -0.388 OA
ATOM     28  H7  UNL     1      45.621  42.953   4.953  1.00  0.00     0.210 HD
ENDBRANCH  19  27
ENDBRANCH  13  14
ENDBRANCH  10  13
BRANCH   9  29
HETATM   29  N1  UNL     1      43.961  41.616  10.545  1.00  0.00    -0.263 N
BRANCH  29  30
HETATM   30  C10 UNL     1      44.346  42.610  11.477  1.00  0.00     0.189 C
HETATM   31  S1  UNL     1      43.929  42.409  13.034  1.00  0.00    -0.073 SA
ENDBRANCH  29  30
BRANCH  29  32
HETATM   32  N2  UNL     1      44.640  40.393  10.690  1.00  0.00     0.024 NA
BRANCH  32  33
HETATM   33  O1  UNL     1      45.957  40.515  10.754  1.00  0.00    -0.272 OA
HETATM   34  C11 UNL     1      46.585  39.286  11.056  1.00  0.00     0.234 C
ENDBRANCH  32  33
ENDBRANCH  29  32
ENDBRANCH   9  29
BRANCH  12  35
HETATM   35  O8  UNL     1      40.607  42.855   8.069  1.00  0.00    -0.387 OA
ATOM     36  H8  UNL     1      40.238  43.459   8.703  1.00  0.00     0.210 HD
ENDBRANCH  12  35
TORSDOF 12
ENDMDL