MODEL 2
REMARK VINA RESULT: -7.959181093      2.273      3.237
REMARK  11 active torsions:
REMARK  status: ('A' for Active; 'I' for Inactive)
REMARK    1  A    between atoms: N1_2  and  C2_5
REMARK    2  A    between atoms: C2_5  and  C3_6
REMARK    3  A    between atoms: C7_10  and  O1_11
REMARK    4  A    between atoms: O1_11  and  C8_12
REMARK    5  A    between atoms: C10_14  and  S1_15
REMARK    6  A    between atoms: S1_15  and  C11_16
REMARK    7  A    between atoms: C14_20  and  O3_21
REMARK    8  A    between atoms: C15_23  and  O4_24
REMARK    9  A    between atoms: C16_26  and  C17_27
REMARK   10  A    between atoms: C18_30  and  N2_31
REMARK   11  A    between atoms: C20_36  and  N3_37
ROOT
HETATM    1  C8  UNL     1      40.090  39.615   7.692  1.00  0.00     0.156 C
HETATM    2  C9  UNL     1      41.373  39.791   6.954  1.00  0.00     0.051 C
HETATM    3  C10 UNL     1      42.293  38.618   6.937  1.00  0.00     0.082 C
HETATM    4  C18 UNL     1      41.477  37.402   6.479  1.00  0.00     0.199 C
HETATM    5  C19 UNL     1      40.445  37.139   7.526  1.00  0.00     0.069 C
HETATM    6  C20 UNL     1      39.463  38.266   7.569  1.00  0.00     0.214 C
ENDROOT
BRANCH   3   7
HETATM    7  S1  UNL     1      43.520  38.919   5.634  1.00  0.00    -0.129 SA
BRANCH   7   8
HETATM    8  C11 UNL     1      44.840  40.019   6.208  1.00  0.00     0.200 C
HETATM    9  O2  UNL     1      44.245  41.141   6.772  1.00  0.00    -0.367 OA
HETATM   10  C12 UNL     1      45.120  42.109   7.196  1.00  0.00     0.150 C
HETATM   11  C13 UNL     1      44.274  43.320   7.599  1.00  0.00     0.042 C
HETATM   12  C14 UNL     1      46.060  42.603   6.116  1.00  0.00     0.176 C
HETATM   13  C15 UNL     1      45.591  41.936   4.816  1.00  0.00     0.167 C
HETATM   14  C16 UNL     1      45.750  40.432   5.077  1.00  0.00     0.157 C
BRANCH  12  15
HETATM   15  O3  UNL     1      46.090  43.974   6.007  1.00  0.00    -0.390 OA
ATOM     16  H3  UNL     1      45.261  44.347   5.733  1.00  0.00     0.210 HD
ENDBRANCH  12  15
BRANCH  13  17
HETATM   17  O4  UNL     1      46.429  42.288   3.784  1.00  0.00    -0.392 OA
ATOM     18  H4  UNL     1      46.815  41.507   3.403  1.00  0.00     0.210 HD
ENDBRANCH  13  17
BRANCH  14  19
HETATM   19  C17 UNL     1      47.176  40.231   5.422  1.00  0.00     0.183 C
HETATM   20  O5  UNL     1      48.108  40.460   4.620  1.00  0.00    -0.648 OA
HETATM   21  O6  UNL     1      47.494  39.770   6.684  1.00  0.00    -0.648 OA
ENDBRANCH  14  19
ENDBRANCH   7   8
ENDBRANCH   3   7
BRANCH   4  22
HETATM   22  N2  UNL     1      40.906  37.786   5.191  1.00  0.00    -0.074 N
ATOM     23  H23 UNL     1      41.179  37.176   4.421  1.00  0.00     0.274 HD
ATOM     24  H22 UNL     1      39.902  37.622   5.121  1.00  0.00     0.274 HD
ATOM     25  H21 UNL     1      41.174  38.761   5.059  1.00  0.00     0.274 HD
ENDBRANCH   4  22
BRANCH   1  26
HETATM   26  O1  UNL     1      40.256  40.039   8.998  1.00  0.00    -0.354 OA
BRANCH  26  27
HETATM   27  C7  UNL     1      41.090  41.125   9.138  1.00  0.00     0.260 C
HETATM   28  C6  UNL     1      41.992  41.075  10.319  1.00  0.00     0.061 C
HETATM   29  C5  UNL     1      41.358  41.489  11.610  1.00  0.00     0.007 C
HETATM   30  C4  UNL     1      39.866  41.517  11.530  1.00  0.00     0.034 C
HETATM   31  C3  UNL     1      39.328  42.107  10.275  1.00  0.00     0.150 C
HETATM   32  O7  UNL     1      40.269  42.263   9.273  1.00  0.00    -0.354 OA
BRANCH  31  33
HETATM   33  C2  UNL     1      38.736  43.478  10.545  1.00  0.00     0.263 C
BRANCH  33  34
HETATM   34  N1  UNL     1      39.666  44.515  10.170  1.00  0.00    -0.077 N
HETATM   35  C1  UNL     1      40.246  45.124  11.325  1.00  0.00     0.267 C
ATOM     36  H12 UNL     1      39.232  45.206   9.558  1.00  0.00     0.276 HD
ATOM     37  H11 UNL     1      40.379  44.167   9.529  1.00  0.00     0.276 HD
ENDBRANCH  33  34
ENDBRANCH  31  33
ENDBRANCH  26  27
ENDBRANCH   1  26
BRANCH   6  38
HETATM   38  N3  UNL     1      38.630  38.176   6.357  1.00  0.00    -0.072 N
ATOM     39  H33 UNL     1      37.641  38.078   6.588  1.00  0.00     0.274 HD
ATOM     40  H32 UNL     1      38.587  39.068   5.864  1.00  0.00     0.274 HD
ATOM     41  H31 UNL     1      38.949  37.424   5.746  1.00  0.00     0.274 HD
ENDBRANCH   6  38
TORSDOF 11
ENDMDL