MODEL 1
REMARK VINA RESULT: -6.884397080      0.000      0.000
REMARK  14 active torsions:
REMARK  status: ('A' for Active; 'I' for Inactive)
REMARK    1  A    between atoms: C2_2  and  N1_3
REMARK       I    between atoms: N1_3  and  C3_5
REMARK    2  A    between atoms: C3_5  and  C4_7
REMARK    3  A    between atoms: C5_9  and  N2_10
REMARK    4  A    between atoms: N2_10  and  C6_12
REMARK    5  A    between atoms: C8_15  and  O3_16
REMARK    6  A    between atoms: O3_16  and  C9_17
REMARK    7  A    between atoms: C9_17  and  C10_18
REMARK    8  A    between atoms: C11_20  and  O5_21
REMARK    9  A    between atoms: C13_23  and  N3_24
REMARK   10  A    between atoms: N3_24  and  N4_26
REMARK   11  A    between atoms: N4_26  and  N5_27
REMARK   12  A    between atoms: C14_30  and  O6_31
REMARK   13  A    between atoms: C15_33  and  O7_34
REMARK   14  A    between atoms: C16_36  and  O8_37
ROOT
HETATM    1  O3  UNL     1      42.536  41.055   7.321  1.00  0.00    -0.376 OA
ENDROOT
BRANCH   1   2
HETATM    2  C8  UNL     1      41.295  41.413   7.839  1.00  0.00     0.202 C
HETATM    3  C5  UNL     1      40.320  40.283   7.863  1.00  0.00     0.254 C
HETATM    4  O2  UNL     1      39.629  40.384   9.076  1.00  0.00    -0.347 OA
HETATM    5  C4  UNL     1      40.572  40.763  10.027  1.00  0.00     0.247 C
HETATM    6  C16 UNL     1      41.488  41.722   9.314  1.00  0.00     0.189 C
BRANCH   3   7
HETATM    7  N2  UNL     1      41.018  39.027   7.741  1.00  0.00    -0.356 N
ATOM      8  H2  UNL     1      41.635  38.723   8.494  1.00  0.00     0.162 HD
BRANCH   7   9
HETATM    9  C6  UNL     1      40.866  38.210   6.598  1.00  0.00     0.071 C
HETATM   10  C7  UNL     1      41.904  38.158   5.533  1.00  0.00     0.081 C
HETATM   11  S1  UNL     1      39.532  37.307   6.438  1.00  0.00    -0.066 SA
ENDBRANCH   7   9
ENDBRANCH   3   7
BRANCH   5  12
HETATM   12  C3  UNL     1      39.902  41.379  11.192  1.00  0.00     0.249 C
HETATM   13  N1  UNL     1      38.843  42.309  11.024  1.00  0.00    -0.359 N
ATOM     14  H1  UNL     1      38.544  42.554  10.079  1.00  0.00     0.162 HD
HETATM   15  O1  UNL     1      40.251  41.094  12.362  1.00  0.00    -0.271 OA
BRANCH  13  16
HETATM   16  C2  UNL     1      38.175  42.920  12.156  1.00  0.00     0.118 C
HETATM   17  C1  UNL     1      37.745  44.329  11.793  1.00  0.00     0.026 C
ENDBRANCH  13  16
ENDBRANCH   5  12
BRANCH   6  18
HETATM   18  O8  UNL     1      41.123  43.041   9.517  1.00  0.00    -0.390 OA
ATOM     19  H8  UNL     1      41.646  43.641   9.000  1.00  0.00     0.210 HD
ENDBRANCH   6  18
ENDBRANCH   1   2
BRANCH   1  20
HETATM   20  C9  UNL     1      43.516  41.391   8.285  1.00  0.00     0.203 C
BRANCH  20  21
HETATM   21  C10 UNL     1      44.791  40.722   7.827  1.00  0.00     0.179 C
HETATM   22  O4  UNL     1      44.712  40.316   6.495  1.00  0.00    -0.349 OA
HETATM   23  C11 UNL     1      45.994  40.074   6.061  1.00  0.00     0.287 C
HETATM   24  C13 UNL     1      46.684  39.021   6.872  1.00  0.00     0.200 C
HETATM   25  C14 UNL     1      45.821  38.441   7.961  1.00  0.00     0.179 C
HETATM   26  C15 UNL     1      44.980  39.470   8.662  1.00  0.00     0.180 C
BRANCH  23  27
HETATM   27  O5  UNL     1      46.070  39.715   4.723  1.00  0.00    -0.364 OA
HETATM   28  C12 UNL     1      45.589  40.690   3.866  1.00  0.00     0.204 C
ENDBRANCH  23  27
BRANCH  24  29
HETATM   29  N3  UNL     1      47.116  37.910   6.034  1.00  0.00    -0.240 N
ATOM     30  H3  UNL     1      46.779  37.873   5.072  1.00  0.00     0.197 HD
BRANCH  29  31
HETATM   31  N4  UNL     1      47.858  37.023   6.418  1.00  0.00    -0.248 NA
BRANCH  31  32
HETATM   32  N5  UNL     1      48.450  36.000   6.742  1.00  0.00    -0.261 N
ATOM     33  H52 UNL     1      49.313  36.425   6.402  1.00  0.00     0.193 HD
ATOM     34  H51 UNL     1      48.785  35.093   7.064  1.00  0.00     0.193 HD
ENDBRANCH  31  32
ENDBRANCH  29  31
ENDBRANCH  24  29
BRANCH  25  35
HETATM   35  O6  UNL     1      45.008  37.435   7.479  1.00  0.00    -0.391 OA
ATOM     36  H6  UNL     1      44.292  37.252   8.076  1.00  0.00     0.210 HD
ENDBRANCH  25  35
BRANCH  26  37
HETATM   37  O7  UNL     1      43.700  38.962   8.919  1.00  0.00    -0.390 OA
ATOM     38  H7  UNL     1      43.811  38.235   9.520  1.00  0.00     0.210 HD
ENDBRANCH  26  37
ENDBRANCH  20  21
ENDBRANCH   1  20
TORSDOF 14
ENDMDL