MODEL 4
REMARK VINA RESULT: -6.715053854      2.260      3.808
REMARK  10 active torsions:
REMARK  status: ('A' for Active; 'I' for Inactive)
REMARK    1  A    between atoms: N1_2  and  N2_3
REMARK    2  A    between atoms: N1_2  and  N3_6
REMARK    3  A    between atoms: N4_8  and  C2_10
REMARK    4  A    between atoms: C3_12  and  N5_13
REMARK    5  A    between atoms: C5_20  and  C6_21
REMARK    6  A    between atoms: C6_21  and  O2_22
REMARK    7  A    between atoms: C6_21  and  N7_24
REMARK    8  A    between atoms: N7_24  and  N8_26
REMARK       I    between atoms: N8_26  and  C7_28
REMARK    9  A    between atoms: C7_28  and  C8_30
REMARK   10  A    between atoms: N9_31  and  N10_33
ROOT
HETATM    1  C2  UNL     1       4.402  22.518   3.550  1.00  0.00     0.113 A
HETATM    2  S1  UNL     1       4.065  23.867   2.519  1.00  0.00    -0.034 SA
HETATM    3  C3  UNL     1       3.256  25.120   3.325  1.00  0.00     0.147 A
HETATM    4  N6  UNL     1       3.004  24.885   4.609  1.00  0.00    -0.303 N
ATOM      5  H6  UNL     1       2.517  25.623   5.118  1.00  0.00     0.171 HD
HETATM    6  C4  UNL     1       3.313  23.805   5.298  1.00  0.00     0.264 A
HETATM    7  O1  UNL     1       2.966  23.804   6.531  1.00  0.00    -0.267 OA
HETATM    8  C5  UNL     1       3.969  22.665   4.848  1.00  0.00     0.119 A
ENDROOT
BRANCH   8   9
HETATM    9  C6  UNL     1       4.164  21.560   5.789  1.00  0.00     0.173 C
BRANCH   9  10
HETATM   10  O2  UNL     1       5.350  21.513   6.324  1.00  0.00    -0.344 OA
ATOM     11  H2  UNL     1       5.398  21.006   7.126  1.00  0.00     0.219 HD
ENDBRANCH   9  10
BRANCH   9  12
HETATM   12  N7  UNL     1       3.278  20.576   6.185  1.00  0.00    -0.276 N
ATOM     13  H7  UNL     1       3.468  20.034   7.027  1.00  0.00     0.189 HD
BRANCH  12  14
HETATM   14  N8  UNL     1       2.104  20.315   5.428  1.00  0.00    -0.263 N
HETATM   15  C7  UNL     1       2.087  19.507   4.273  1.00  0.00     0.276 C
HETATM   16  O3  UNL     1       3.141  18.980   3.872  1.00  0.00    -0.265 OA
ATOM     17  H8  UNL     1       1.227  20.734   5.736  1.00  0.00     0.190 HD
BRANCH  15  18
HETATM   18  C8  UNL     1       0.855  19.279   3.545  1.00  0.00     0.182 C
HETATM   19  N9  UNL     1       0.797  19.114   2.289  1.00  0.00    -0.313 N
ATOM     20  H9  UNL     1      -0.131  18.961   1.896  1.00  0.00     0.185 HD
BRANCH  19  21
HETATM   21  N10 UNL     1       1.853  19.118   1.390  1.00  0.00    -0.345 N
ATOM     22 2H10 UNL     1       2.735  19.476   1.758  1.00  0.00     0.176 HD
ATOM     23 1H10 UNL     1       1.841  18.806   0.418  1.00  0.00     0.176 HD
ENDBRANCH  19  21
ENDBRANCH  15  18
ENDBRANCH  12  14
ENDBRANCH   9  12
ENDBRANCH   8   9
BRANCH   1  24
HETATM   24  N4  UNL     1       5.106  21.381   3.050  1.00  0.00    -0.277 N
HETATM   25  N3  UNL     1       5.817  21.550   2.018  1.00  0.00    -0.226 N
ATOM     26  H3  UNL     1       5.860  22.474   1.590  1.00  0.00     0.210 HD
ATOM     27  H4  UNL     1       5.039  20.472   3.505  1.00  0.00     0.189 HD
BRANCH  25  28
HETATM   28  N1  UNL     1       6.552  20.489   1.445  1.00  0.00    -0.231 N
HETATM   29  C1  UNL     1       5.800  19.329   1.013  1.00  0.00     0.201 C
BRANCH  28  30
HETATM   30  N2  UNL     1       7.916  20.498   1.275  1.00  0.00    -0.328 N
ATOM     31  H22 UNL     1       8.397  20.090   0.474  1.00  0.00     0.178 HD
ATOM     32  H21 UNL     1       8.499  20.937   1.989  1.00  0.00     0.178 HD
ENDBRANCH  28  30
ENDBRANCH  25  28
ENDBRANCH   1  24
BRANCH   3  33
HETATM   33  N5  UNL     1       2.901  26.223   2.752  1.00  0.00    -0.380 N
ATOM     34  H52 UNL     1       3.263  26.495   1.838  1.00  0.00     0.158 HD
ATOM     35  H51 UNL     1       2.247  26.887   3.167  1.00  0.00     0.158 HD
ENDBRANCH   3  33
TORSDOF 10
ENDMDL