MODEL 3
REMARK VINA RESULT: -6.560552033      1.112      1.112
REMARK  7 active torsions:
REMARK  status: ('A' for Active; 'I' for Inactive)
REMARK    1  A    between atoms: N1_1  and  N2_4
REMARK       I    between atoms: N2_4  and  C1_6
REMARK       I    between atoms: C1_6  and  N3_8
REMARK    2  A    between atoms: C2_9  and  C3_10
REMARK    3  A    between atoms: C3_10  and  C4_11
REMARK    4  A    between atoms: C4_11  and  S1_12
REMARK    5  A    between atoms: S1_12  and  N4_13
REMARK    6  A    between atoms: N5_18  and  O4_20
REMARK    7  A    between atoms: C5_24  and  C6_25
ROOT
HETATM    1  N2  UNL     1       2.594  18.570   5.668  1.00  0.00    -0.258 N
ATOM      2  H2  UNL     1       2.511  18.439   6.677  1.00  0.00     0.191 HD
HETATM    3  C1  UNL     1       3.080  19.791   5.175  1.00  0.00     0.347 C
HETATM    4  O1  UNL     1       3.126  19.799   3.911  1.00  0.00    -0.245 OA
HETATM    5  N3  UNL     1       3.488  20.919   5.953  1.00  0.00    -0.231 N
HETATM    6  C2  UNL     1       3.990  22.067   5.448  1.00  0.00     0.144 A
HETATM    7  N6  UNL     1       4.204  22.882   6.546  1.00  0.00    -0.333 N
ATOM      8  H6  UNL     1       4.580  23.829   6.505  1.00  0.00     0.168 HD
HETATM    9  C5  UNL     1       3.849  22.256   7.655  1.00  0.00     0.141 A
HETATM   10  C7  UNL     1       3.383  20.986   7.304  1.00  0.00     0.160 A
HETATM   11  N8  UNL     1       2.910  20.009   8.189  1.00  0.00    -0.079 NA
ENDROOT
BRANCH   6  12
HETATM   12  C3  UNL     1       4.349  22.501   4.107  1.00  0.00     0.092 C
HETATM   13  N5  UNL     1       5.358  22.236   3.412  1.00  0.00    -0.269 N
ATOM     14  H5  UNL     1       6.065  21.621   3.815  1.00  0.00     0.194 HD
BRANCH  12  15
HETATM   15  C4  UNL     1       3.334  23.392   3.407  1.00  0.00     0.225 C
BRANCH  15  16
HETATM   16  S1  UNL     1       3.604  25.095   3.723  1.00  0.00     0.230 S
HETATM   17  O2  UNL     1       5.074  25.401   3.667  1.00  0.00    -0.206 OA
HETATM   18  O3  UNL     1       3.125  25.483   5.072  1.00  0.00    -0.206 OA
BRANCH  16  19
HETATM   19  N4  UNL     1       2.851  26.053   2.494  1.00  0.00    -0.328 N
ATOM     20  H42 UNL     1       1.851  26.042   2.292  1.00  0.00     0.168 HD
ATOM     21  H41 UNL     1       3.551  26.619   2.015  1.00  0.00     0.168 HD
ENDBRANCH  16  19
ENDBRANCH  15  16
ENDBRANCH  12  15
BRANCH  13  22
HETATM   22  O4  UNL     1       5.572  22.706   2.175  1.00  0.00    -0.290 OA
ATOM     23  H4  UNL     1       6.345  22.519   1.654  1.00  0.00     0.244 HD
ENDBRANCH  13  22
ENDBRANCH   6  12
BRANCH   9  24
HETATM   24  C6  UNL     1       3.905  22.735   9.026  1.00  0.00     0.284 C
HETATM   25  N7  UNL     1       5.148  22.743   9.690  1.00  0.00    -0.056 NA
HETATM   26  O5  UNL     1       2.872  23.124   9.590  1.00  0.00    -0.269 OA
ENDBRANCH   9  24
BRANCH   1  27
HETATM   27  N1  UNL     1       2.219  17.521   4.804  1.00  0.00    -0.341 N
ATOM     28  H12 UNL     1       1.742  17.760   3.935  1.00  0.00     0.177 HD
ATOM     29  H11 UNL     1       2.414  16.546   5.032  1.00  0.00     0.177 HD
ENDBRANCH   1  27
TORSDOF 7
ENDMDL