MODEL 1
REMARK VINA RESULT: -8.422679915      0.000      0.000
REMARK  5 active torsions:
REMARK  status: ('A' for Active; 'I' for Inactive)
REMARK    1  A    between atoms: N1_4  and  N2_6
REMARK    2  A    between atoms: N2_6  and  C4_8
REMARK    3  A    between atoms: N4_15  and  O3_16
REMARK    4  A    between atoms: C7_18  and  C8_19
REMARK       I    between atoms: C8_19  and  N5_21
REMARK    5  A    between atoms: N5_21  and  C9_23
ROOT
HETATM    1  C4  UNL     1       6.317  18.930   2.099  1.00  0.00     0.158 A
HETATM    2  N3  UNL     1       6.208  17.591   2.185  1.00  0.00    -0.302 N
ATOM      3  H3  UNL     1       7.056  17.028   2.127  1.00  0.00     0.171 HD
HETATM    4  C5  UNL     1       5.047  16.972   2.341  1.00  0.00     0.317 A
HETATM    5  O1  UNL     1       4.932  15.704   2.422  1.00  0.00    -0.262 OA
HETATM    6  C6  UNL     1       3.913  17.731   2.419  1.00  0.00     0.340 A
HETATM    7  O2  UNL     1       2.762  17.222   2.569  1.00  0.00    -0.260 OA
HETATM    8  N4  UNL     1       4.003  19.079   2.335  1.00  0.00    -0.174 N
HETATM    9  C7  UNL     1       5.195  19.720   2.173  1.00  0.00     0.180 A
ENDROOT
BRANCH   9  10
HETATM   10  C8  UNL     1       5.222  21.175   2.092  1.00  0.00     0.293 C
HETATM   11  O4  UNL     1       5.693  21.787   1.098  1.00  0.00    -0.265 OA
HETATM   12  N5  UNL     1       4.693  21.923   3.181  1.00  0.00    -0.152 N
ATOM     13  H5  UNL     1       4.174  21.427   3.906  1.00  0.00     0.188 HD
BRANCH  12  14
HETATM   14  C9  UNL     1       4.838  23.184   3.288  1.00  0.00     0.713 A
HETATM   15  N6  UNL     1       4.023  24.130   2.827  1.00  0.00    -0.113 N
HETATM   16  N7  UNL     1       4.536  25.307   3.158  1.00  0.00     0.009 NA
ATOM     17  H6  UNL     1       3.156  23.977   2.311  1.00  0.00     0.203 HD
HETATM   18  N8  UNL     1       5.673  25.072   3.825  1.00  0.00    -0.212 N
HETATM   19  N9  UNL     1       5.883  23.777   3.920  1.00  0.00    -0.118 N
ATOM     20  H8  UNL     1       6.286  25.793   4.205  1.00  0.00     0.206 HD
ATOM     21  H9  UNL     1       6.670  23.314   4.374  1.00  0.00     0.207 HD
ENDBRANCH  12  14
ENDBRANCH   9  10
BRANCH   1  22
HETATM   22  N2  UNL     1       7.584  19.527   1.921  1.00  0.00    -0.283 N
ATOM     23  H2  UNL     1       8.165  19.695   2.742  1.00  0.00     0.188 HD
BRANCH  22  24
HETATM   24  N1  UNL     1       8.076  19.898   0.669  1.00  0.00    -0.308 N
HETATM   25  C2  UNL     1       8.744  19.123  -0.087  1.00  0.00    -0.004 C
HETATM   26  C1  UNL     1       9.051  17.730   0.326  1.00  0.00     0.064 C
HETATM   27  C3  UNL     1       9.240  19.608  -1.406  1.00  0.00     0.064 C
ATOM     28  H1  UNL     1       7.890  20.846   0.341  1.00  0.00     0.186 HD
ENDBRANCH  22  24
ENDBRANCH   1  22
BRANCH   8  29
HETATM   29  O3  UNL     1       2.868  19.843   2.415  1.00  0.00    -0.279 OA
ATOM     30  H3  UNL     1       2.925  20.742   2.716  1.00  0.00     0.245 HD
ENDBRANCH   8  29
TORSDOF 5
ENDMDL