MODEL 2
REMARK VINA RESULT: -6.406369603      2.678      4.328
REMARK  7 active torsions:
REMARK  status: ('A' for Active; 'I' for Inactive)
REMARK    1  A    between atoms: C2_2  and  N1_3
REMARK    2  A    between atoms: C2_2  and  C3_7
REMARK       I    between atoms: C3_7  and  N2_9
REMARK    3  A    between atoms: N2_9  and  C4_11
REMARK    4  A    between atoms: C4_11  and  N3_12
REMARK       I    between atoms: N3_12  and  C5_14
REMARK       I    between atoms: C5_14  and  N4_16
REMARK    5  A    between atoms: N5_20  and  N6_21
REMARK    6  A    between atoms: N6_21  and  O5_23
REMARK    7  A    between atoms: C8_26  and  N7_28
ROOT
HETATM    1  C4  UNL     1       4.332  23.143   4.880  1.00  0.00     0.163 C
HETATM    2  C6  UNL     1       4.726  24.412   4.156  1.00  0.00     0.201 C
HETATM    3  N5  UNL     1       3.517  25.190   4.001  1.00  0.00    -0.302 N
HETATM    4  C7  UNL     1       2.617  24.785   5.045  1.00  0.00     0.187 C
HETATM    5  C8  UNL     1       2.871  23.277   5.093  1.00  0.00     0.182 C
HETATM    6  C9  UNL     1       2.028  22.668   4.007  1.00  0.00     0.053 C
ENDROOT
BRANCH   1   7
HETATM    7  N2  UNL     1       4.739  21.973   4.138  1.00  0.00    -0.329 N
HETATM    8  C3  UNL     1       4.882  21.887   2.742  1.00  0.00     0.249 C
HETATM    9  O1  UNL     1       4.644  22.898   2.050  1.00  0.00    -0.271 OA
ATOM     10  H2  UNL     1       4.940  21.130   4.676  1.00  0.00     0.165 HD
BRANCH   8  11
HETATM   11  C2  UNL     1       5.304  20.661   2.036  1.00  0.00     0.270 C
HETATM   12  C1  UNL     1       5.150  19.459   2.975  1.00  0.00     0.050 C
BRANCH  11  13
HETATM   13  N1  UNL     1       6.706  20.706   1.670  1.00  0.00    -0.067 N
ATOM     14  H13 UNL     1       7.196  21.523   2.037  1.00  0.00     0.275 HD
ATOM     15  H12 UNL     1       7.272  20.001   2.141  1.00  0.00     0.275 HD
ATOM     16  H11 UNL     1       6.734  20.638   0.653  1.00  0.00     0.275 HD
ENDBRANCH  11  13
ENDBRANCH   8  11
ENDBRANCH   1   7
BRANCH   1  17
HETATM   17  N3  UNL     1       4.987  23.083   6.172  1.00  0.00    -0.307 N
HETATM   18  C5  UNL     1       5.066  21.879   6.928  1.00  0.00     0.383 C
HETATM   19  O2  UNL     1       4.548  20.841   6.450  1.00  0.00    -0.241 OA
HETATM   20  N4  UNL     1       5.697  21.799   8.185  1.00  0.00    -0.055 N
HETATM   21  O3  UNL     1       5.777  20.660   8.910  1.00  0.00    -0.528 OA
HETATM   22  O4  UNL     1       6.267  22.897   8.731  1.00  0.00    -0.528 OA
ATOM     23  H3  UNL     1       5.406  23.932   6.552  1.00  0.00     0.167 HD
ENDBRANCH   1  17
BRANCH   5  24
HETATM   24  N7  UNL     1       2.377  22.830   6.362  1.00  0.00    -0.065 N
ATOM     25  H73 UNL     1       1.424  23.167   6.500  1.00  0.00     0.275 HD
ATOM     26  H72 UNL     1       2.215  21.824   6.336  1.00  0.00     0.275 HD
ATOM     27  H71 UNL     1       2.947  23.067   7.174  1.00  0.00     0.275 HD
ENDBRANCH   5  24
BRANCH   3  28
HETATM   28  N6  UNL     1       3.226  26.162   3.040  1.00  0.00    -0.212 N
ATOM     29  H6  UNL     1       3.692  27.068   3.085  1.00  0.00     0.215 HD
BRANCH  28  30
HETATM   30  O5  UNL     1       2.398  25.935   2.122  1.00  0.00    -0.275 OA
ATOM     31  H5  UNL     1       2.670  25.922   1.212  1.00  0.00     0.246 HD
ENDBRANCH  28  30
ENDBRANCH   3  28
TORSDOF 7
ENDMDL