MODEL 2
REMARK VINA RESULT: -7.514347751      2.098      7.078
REMARK  7 active torsions:
REMARK  status: ('A' for Active; 'I' for Inactive)
REMARK    1  A    between atoms: N1_1  and  C1_4
REMARK    2  A    between atoms: C4_14  and  C5_15
REMARK       I    between atoms: C5_15  and  N5_17
REMARK    3  A    between atoms: N5_17  and  C6_19
REMARK    4  A    between atoms: C6_19  and  C7_20
REMARK    5  A    between atoms: C6_19  and  C8_25
REMARK    6  A    between atoms: C7_20  and  N6_21
REMARK    7  A    between atoms: N6_21  and  O3_23
ROOT
HETATM    1  C1  UNL     1       3.416  25.239   3.284  1.00  0.00     0.680 A
HETATM    2  N2  UNL     1       3.363  25.024   4.594  1.00  0.00    -0.154 N
ATOM      3  H2  UNL     1       3.046  25.773   5.209  1.00  0.00     0.187 HD
HETATM    4  C2  UNL     1       3.719  23.839   5.129  1.00  0.00     0.291 A
HETATM    5  O1  UNL     1       3.680  23.606   6.355  1.00  0.00    -0.265 OA
HETATM    6  C3  UNL     1       4.153  22.809   4.303  1.00  0.00     0.162 A
HETATM    7  N3  UNL     1       4.520  21.617   4.757  1.00  0.00    -0.291 N
ATOM      8  H3  UNL     1       4.486  21.433   5.761  1.00  0.00     0.187 HD
HETATM    9  N4  UNL     1       4.928  20.663   3.944  1.00  0.00    -0.280 N
ATOM     10  H4  UNL     1       5.202  19.760   4.330  1.00  0.00     0.188 HD
HETATM   11  C4  UNL     1       4.990  20.857   2.618  1.00  0.00     0.191 A
HETATM   12  N7  UNL     1       4.625  22.053   2.134  1.00  0.00    -0.321 N
ATOM     13  H7  UNL     1       4.665  22.218   1.128  1.00  0.00     0.169 HD
HETATM   14  C9  UNL     1       4.208  23.035   2.945  1.00  0.00     0.156 A
HETATM   15  N8  UNL     1       3.837  24.246   2.464  1.00  0.00    -0.174 N
ATOM     16  H8  UNL     1       3.877  24.415   1.459  1.00  0.00     0.186 HD
ENDROOT
BRANCH  11  17
HETATM   17  C5  UNL     1       5.440  19.810   1.707  1.00  0.00     0.288 C
HETATM   18  O2  UNL     1       4.639  19.340   0.845  1.00  0.00    -0.264 OA
HETATM   19  N5  UNL     1       6.774  19.344   1.816  1.00  0.00    -0.335 N
ATOM     20  H5  UNL     1       7.382  19.752   2.526  1.00  0.00     0.164 HD
BRANCH  19  21
HETATM   21  C6  UNL     1       7.306  18.304   0.950  1.00  0.00     0.226 C
BRANCH  21  22
HETATM   22  C7  UNL     1       7.919  18.964  -0.209  1.00  0.00     0.122 C
BRANCH  22  23
HETATM   23  N6  UNL     1       8.742  19.938  -0.056  1.00  0.00    -0.282 N
ATOM     24  H6  UNL     1       9.743  19.797  -0.193  1.00  0.00     0.193 HD
BRANCH  23  25
HETATM   25  O3  UNL     1       8.256  21.165   0.293  1.00  0.00    -0.290 OA
ATOM     26  H3  UNL     1       8.869  21.854   0.523  1.00  0.00     0.244 HD
ENDBRANCH  23  25
ENDBRANCH  22  23
ENDBRANCH  21  22
BRANCH  21  27
HETATM   27  C8  UNL     1       8.337  17.509   1.650  1.00  0.00     0.202 C
HETATM   28  O4  UNL     1       8.220  17.153   2.842  1.00  0.00    -0.646 OA
HETATM   29  O5  UNL     1       9.473  17.149   0.952  1.00  0.00    -0.646 OA
ENDBRANCH  21  27
ENDBRANCH  19  21
ENDBRANCH  11  17
BRANCH   1  30
HETATM   30  N1  UNL     1       3.088  26.351   2.718  1.00  0.00    -0.234 N
ATOM     31  H12 UNL     1       2.090  26.561   2.675  1.00  0.00     0.174 HD
ATOM     32  H11 UNL     1       3.756  27.011   2.322  1.00  0.00     0.174 HD
ENDBRANCH   1  30
TORSDOF 7
ENDMDL