MODEL 2
REMARK VINA RESULT: -6.726452857      1.317      1.716
REMARK  8 active torsions:
REMARK  status: ('A' for Active; 'I' for Inactive)
REMARK    1  A    between atoms: N1_1  and  C1_5
REMARK    2  A    between atoms: C1_5  and  C2_6
REMARK    3  A    between atoms: C1_5  and  C5_23
REMARK       I    between atoms: C2_6  and  N2_8
REMARK    4  A    between atoms: C4_15  and  S1_16
REMARK    5  A    between atoms: S1_16  and  N5_17
REMARK    6  A    between atoms: C5_23  and  O4_24
REMARK    7  A    between atoms: C5_23  and  N6_26
REMARK    8  A    between atoms: N6_26  and  O5_27
ROOT
HETATM    1  C2  UNL     1       3.436  22.595   3.444  1.00  0.00     0.258 C
HETATM    2  O1  UNL     1       2.530  21.765   3.758  1.00  0.00    -0.271 OA
HETATM    3  N2  UNL     1       4.358  22.248   2.436  1.00  0.00    -0.304 N
ATOM      4  H2  UNL     1       4.514  22.901   1.668  1.00  0.00     0.171 HD
HETATM    5  C3  UNL     1       5.022  21.122   2.448  1.00  0.00     0.168 A
HETATM    6  N3  UNL     1       5.003  20.113   3.320  1.00  0.00    -0.278 N
ATOM      7  H3  UNL     1       4.398  20.150   4.140  1.00  0.00     0.189 HD
HETATM    8  N4  UNL     1       5.747  19.107   3.116  1.00  0.00    -0.281 N
ATOM      9  H4  UNL     1       5.739  18.331   3.777  1.00  0.00     0.188 HD
HETATM   10  C4  UNL     1       6.532  19.056   2.054  1.00  0.00     0.208 A
HETATM   11  S2  UNL     1       6.180  20.545   1.301  1.00  0.00    -0.020 SA
ENDROOT
BRANCH   1  12
HETATM   12  C1  UNL     1       3.555  23.909   4.095  1.00  0.00     0.321 C
BRANCH  12  13
HETATM   13  N1  UNL     1       2.254  24.355   4.505  1.00  0.00    -0.062 N
ATOM     14  H13 UNL     1       2.003  25.250   4.084  1.00  0.00     0.275 HD
ATOM     15  H12 UNL     1       1.507  23.790   4.101  1.00  0.00     0.275 HD
ATOM     16  H11 UNL     1       2.212  24.381   5.524  1.00  0.00     0.275 HD
ENDBRANCH  12  13
BRANCH  12  17
HETATM   17  C5  UNL     1       4.259  24.911   3.211  1.00  0.00     0.277 C
BRANCH  17  18
HETATM   18  O4  UNL     1       5.488  25.182   3.776  1.00  0.00    -0.375 OA
ATOM     19  H4  UNL     1       5.335  25.565   4.633  1.00  0.00     0.211 HD
ENDBRANCH  17  18
BRANCH  17  20
HETATM   20  N6  UNL     1       3.443  26.069   3.026  1.00  0.00    -0.069 NA
BRANCH  20  21
HETATM   21  O5  UNL     1       2.447  25.851   2.140  1.00  0.00    -0.294 OA
ATOM     22  H5  UNL     1       2.634  26.234   1.291  1.00  0.00     0.238 HD
ENDBRANCH  20  21
ENDBRANCH  17  20
ENDBRANCH  12  17
ENDBRANCH   1  12
BRANCH  10  23
HETATM   23  S1  UNL     1       7.661  17.843   1.484  1.00  0.00     0.280 S
HETATM   24  O2  UNL     1       8.497  17.321   2.644  1.00  0.00    -0.199 OA
HETATM   25  O3  UNL     1       6.907  16.653   0.956  1.00  0.00    -0.199 OA
BRANCH  23  26
HETATM   26  N5  UNL     1       8.697  18.475   0.272  1.00  0.00    -0.323 N
ATOM     27  H52 UNL     1       8.474  19.299  -0.286  1.00  0.00     0.169 HD
ATOM     28  H51 UNL     1       9.551  17.923   0.189  1.00  0.00     0.169 HD
ENDBRANCH  23  26
ENDBRANCH  10  23
TORSDOF 8
ENDMDL