MODEL 3
REMARK VINA RESULT: -7.022066616      4.353      8.409
REMARK  7 active torsions:
REMARK  status: ('A' for Active; 'I' for Inactive)
REMARK    1  A    between atoms: C2_2  and  C3_4
REMARK    2  A    between atoms: C3_4  and  O2_5
REMARK    3  A    between atoms: C3_4  and  N1_7
REMARK    4  A    between atoms: N2_10  and  C6_11
REMARK    5  A    between atoms: C7_14  and  C8_15
REMARK       I    between atoms: C8_15  and  N4_17
REMARK    6  A    between atoms: N4_17  and  N5_18
REMARK    7  A    between atoms: C9_23  and  N7_24
ROOT
HETATM    1  C6  UNL     1       4.558  22.289   5.686  1.00  0.00     0.696 A
HETATM    2  N3  UNL     1       4.605  21.399   4.671  1.00  0.00    -0.169 N
ATOM      3  H3  UNL     1       4.358  20.426   4.849  1.00  0.00     0.186 HD
HETATM    4  C7  UNL     1       4.956  21.753   3.479  1.00  0.00     0.220 A
HETATM    5  N6  UNL     1       5.298  23.017   3.170  1.00  0.00    -0.169 N
ATOM      6  H6  UNL     1       5.563  23.266   2.217  1.00  0.00     0.186 HD
HETATM    7  C9  UNL     1       5.284  23.908   4.106  1.00  0.00     0.692 A
HETATM    8  N8  UNL     1       4.932  23.587   5.324  1.00  0.00    -0.022 N
ATOM      9  H8  UNL     1       4.930  24.314   6.041  1.00  0.00     0.203 HD
ENDROOT
BRANCH   1  10
HETATM   10  N2  UNL     1       4.120  22.065   7.015  1.00  0.00    -0.214 N
HETATM   11  C5  UNL     1       2.625  22.048   7.136  1.00  0.00     0.160 C
HETATM   12  C4  UNL     1       2.464  23.020   8.361  1.00  0.00     0.140 C
HETATM   13  N1  UNL     1       2.844  22.242   9.481  1.00  0.00    -0.379 N
HETATM   14  C11 UNL     1       3.925  21.335   9.307  1.00  0.00     0.140 C
HETATM   15  C10 UNL     1       4.863  21.790   8.181  1.00  0.00     0.160 C
BRANCH  13  16
HETATM   16  C3  UNL     1       1.780  21.905  10.357  1.00  0.00     0.286 C
BRANCH  16  17
HETATM   17  C2  UNL     1       2.020  22.483  11.698  1.00  0.00     0.170 C
HETATM   18  C1  UNL     1       2.763  21.843  12.806  1.00  0.00     0.096 C
HETATM   19  O1  UNL     1       1.533  23.630  11.839  1.00  0.00    -0.294 OA
ENDBRANCH  16  17
BRANCH  16  20
HETATM   20  O2  UNL     1       0.575  22.492   9.817  1.00  0.00    -0.370 OA
ATOM     21  H2  UNL     1       0.264  21.939   9.109  1.00  0.00     0.212 HD
ENDBRANCH  16  20
ENDBRANCH  13  16
ENDBRANCH   1  10
BRANCH   4  22
HETATM   22  C8  UNL     1       5.195  20.723   2.361  1.00  0.00     0.379 C
HETATM   23  O3  UNL     1       4.197  20.166   1.969  1.00  0.00    -0.246 OA
HETATM   24  N4  UNL     1       6.414  20.556   1.921  1.00  0.00    -0.285 NA
BRANCH  24  25
HETATM   25  N5  UNL     1       7.704  20.370   1.445  1.00  0.00    -0.276 N
ATOM     26  H52 UNL     1       6.746  20.098   1.666  1.00  0.00     0.191 HD
ATOM     27  H51 UNL     1       8.654  20.241   1.097  1.00  0.00     0.191 HD
ENDBRANCH  24  25
ENDBRANCH   4  22
BRANCH   7  28
HETATM   28  N7  UNL     1       5.576  25.126   3.744  1.00  0.00    -0.234 N
ATOM     29  H72 UNL     1       6.231  25.344   2.994  1.00  0.00     0.174 HD
ATOM     30  H71 UNL     1       5.145  25.872   4.290  1.00  0.00     0.174 HD
ENDBRANCH   7  28
TORSDOF 7
ENDMDL