MODEL 1
REMARK VINA RESULT: -8.189375183      0.000      0.000
REMARK  6 active torsions:
REMARK  status: ('A' for Active; 'I' for Inactive)
REMARK    1  A    between atoms: C4_4  and  C5_5
REMARK    2  A    between atoms: N3_10  and  C6_11
REMARK    3  A    between atoms: C6_11  and  C7_12
REMARK       I    between atoms: C7_12  and  N4_14
REMARK    4  A    between atoms: N4_14  and  N5_16
REMARK    5  A    between atoms: N5_16  and  C8_18
REMARK    6  A    between atoms: C9_25  and  N9_26
ROOT
HETATM    1  C7  UNL     1       6.307  20.874   1.085  1.00  0.00     0.256 C
HETATM    2  O1  UNL     1       5.354  20.094   0.834  1.00  0.00    -0.270 OA
HETATM    3  N4  UNL     1       6.062  21.963   1.962  1.00  0.00    -0.254 N
ATOM      4  H4  UNL     1       6.824  22.606   2.179  1.00  0.00     0.190 HD
ENDROOT
BRANCH   3   5
HETATM    5  N5  UNL     1       4.809  22.180   2.538  1.00  0.00    -0.128 N
ATOM      6  H5  UNL     1       4.101  21.448   2.492  1.00  0.00     0.205 HD
BRANCH   5   7
HETATM    7  C8  UNL     1       4.529  23.310   3.136  1.00  0.00     0.727 A
HETATM    8  N6  UNL     1       4.970  23.602   4.355  1.00  0.00    -0.115 N
HETATM    9  N7  UNL     1       4.661  24.756   4.920  1.00  0.00    -0.214 N
ATOM     10  H6  UNL     1       5.551  22.931   4.858  1.00  0.00     0.207 HD
HETATM   11  N8  UNL     1       3.913  25.662   4.316  1.00  0.00    -0.117 N
ATOM     12  H7  UNL     1       5.013  24.955   5.857  1.00  0.00     0.209 HD
HETATM   13  C9  UNL     1       3.458  25.376   3.075  1.00  0.00     0.706 A
ATOM     14  H8  UNL     1       3.686  26.546   4.770  1.00  0.00     0.207 HD
HETATM   15  N10 UNL     1       3.765  24.198   2.480  1.00  0.00    -0.019 N
ATOM     16  H10 UNL     1       3.419  23.987   1.543  1.00  0.00     0.203 HD
BRANCH  13  17
HETATM   17  N9  UNL     1       2.729  26.205   2.427  1.00  0.00    -0.233 N
ATOM     18  H92 UNL     1       1.912  25.841   1.935  1.00  0.00     0.174 HD
ATOM     19  H91 UNL     1       2.953  27.199   2.399  1.00  0.00     0.174 HD
ENDBRANCH  13  17
ENDBRANCH   5   7
ENDBRANCH   3   5
BRANCH   1  20
HETATM   20  C6  UNL     1       7.652  20.671   0.488  1.00  0.00     0.253 C
BRANCH  20  21
HETATM   21  N3  UNL     1       8.056  19.292   0.538  1.00  0.00    -0.287 N
HETATM   22  C2  UNL     1       8.970  18.715  -0.263  1.00  0.00     0.027 A
HETATM   23  C1  UNL     1       9.742  19.376  -1.355  1.00  0.00     0.070 C
HETATM   24  C3  UNL     1       9.040  17.396   0.135  1.00  0.00     0.060 A
HETATM   25  C4  UNL     1       8.150  17.196   1.191  1.00  0.00     0.085 A
HETATM   26  N2  UNL     1       7.577  18.389   1.394  1.00  0.00    -0.295 N
ATOM     27  H2  UNL     1       6.872  18.581   2.106  1.00  0.00     0.187 HD
BRANCH  25  28
HETATM   28  C5  UNL     1       7.912  15.940   1.906  1.00  0.00     0.141 C
HETATM   29  N1  UNL     1       7.907  15.924   3.326  1.00  0.00    -0.087 NA
HETATM   30  S1  UNL     1       7.649  14.547   1.098  1.00  0.00    -0.061 SA
ENDBRANCH  25  28
ENDBRANCH  20  21
ENDBRANCH   1  20
TORSDOF 6
ENDMDL