MODEL 2
REMARK VINA RESULT: -6.800735155      2.863      3.953
REMARK  5 active torsions:
REMARK  status: ('A' for Active; 'I' for Inactive)
REMARK    1  A    between atoms: N1_1  and  C1_4
REMARK    2  A    between atoms: C5_16  and  O3_17
REMARK    3  A    between atoms: C6_19  and  C7_20
REMARK    4  A    between atoms: C7_20  and  N6_21
REMARK    5  A    between atoms: N6_21  and  C8_23
ROOT
HETATM    1  C1  UNL     1       7.593  20.480   0.869  1.00  0.00     0.145 A
HETATM    2  N2  UNL     1       8.225  19.311   0.689  1.00  0.00    -0.258 N
ATOM      3  H2  UNL     1       9.033  19.264   0.068  1.00  0.00     0.191 HD
HETATM    4  N3  UNL     1       7.811  18.220   1.310  1.00  0.00    -0.129 N
HETATM    5  C2  UNL     1       8.345  16.981   1.227  1.00  0.00     0.365 A
HETATM    6  O1  UNL     1       9.359  16.667   0.515  1.00  0.00    -0.243 OA
HETATM    7  N4  UNL     1       7.617  16.190   2.015  1.00  0.00    -0.256 N
ATOM      8  H4  UNL     1       7.778  15.193   2.158  1.00  0.00     0.175 HD
HETATM    9  C3  UNL     1       6.624  16.919   2.598  1.00  0.00     0.351 A
HETATM   10  O2  UNL     1       5.817  16.395   3.375  1.00  0.00    -0.244 OA
HETATM   11  N5  UNL     1       6.774  18.166   2.142  1.00  0.00    -0.174 N
HETATM   12  C4  UNL     1       6.097  19.321   2.361  1.00  0.00     0.128 A
HETATM   13  C5  UNL     1       5.022  19.350   3.199  1.00  0.00     0.109 A
HETATM   14  C6  UNL     1       4.357  20.555   3.394  1.00  0.00     0.051 A
HETATM   15  C10 UNL     1       4.765  21.690   2.764  1.00  0.00     0.103 A
HETATM   16  N8  UNL     1       5.822  21.628   1.950  1.00  0.00    -0.360 N
ATOM     17  H8  UNL     1       6.121  22.483   1.482  1.00  0.00     0.165 HD
HETATM   18  C11 UNL     1       6.510  20.504   1.715  1.00  0.00     0.109 A
ENDROOT
BRANCH  14  19
HETATM   19  C7  UNL     1       3.173  20.593   4.279  1.00  0.00     0.255 A
HETATM   20  C9  UNL     1       3.481  21.031   5.684  1.00  0.00     0.302 A
HETATM   21  N7  UNL     1       2.755  21.889   4.804  1.00  0.00    -0.038 N
ATOM     22  H72 UNL     1       2.891  22.850   4.490  1.00  0.00     0.280 HD
ATOM     23  H71 UNL     1       1.852  22.360   4.870  1.00  0.00     0.280 HD
BRANCH  19  24
HETATM   24  N6  UNL     1       2.074  19.676   4.066  1.00  0.00    -0.330 N
ATOM     25  H6  UNL     1       1.856  18.999   4.796  1.00  0.00     0.164 HD
BRANCH  24  26
HETATM   26  C8  UNL     1       1.291  19.677   2.894  1.00  0.00     0.350 C
HETATM   27  O4  UNL     1       1.714  19.205   1.803  1.00  0.00    -0.284 OA
ENDBRANCH  24  26
ENDBRANCH  19  24
ENDBRANCH  14  19
BRANCH  13  28
HETATM   28  O3  UNL     1       4.568  18.248   3.858  1.00  0.00    -0.358 OA
ATOM     29  H3  UNL     1       4.159  17.514   3.416  1.00  0.00     0.217 HD
ENDBRANCH  13  28
BRANCH   1  30
HETATM   30  N1  UNL     1       7.963  21.569   0.283  1.00  0.00    -0.382 N
ATOM     31  H12 UNL     1       8.277  21.533  -0.687  1.00  0.00     0.157 HD
ATOM     32  H11 UNL     1       7.953  22.476   0.751  1.00  0.00     0.157 HD
ENDBRANCH   1  30
TORSDOF 5
ENDMDL