MODEL 5
REMARK VINA RESULT: -6.637561625      1.003      1.059
REMARK  7 active torsions:
REMARK  status: ('A' for Active; 'I' for Inactive)
REMARK       I    between atoms: C2_2  and  N1_4
REMARK    1  A    between atoms: N1_4  and  N2_6
REMARK    2  A    between atoms: N3_8  and  N4_10
REMARK    3  A    between atoms: N4_10  and  C3_12
REMARK    4  A    between atoms: C4_15  and  N6_16
REMARK    5  A    between atoms: N6_16  and  N7_18
REMARK    6  A    between atoms: C6_25  and  S1_26
REMARK    7  A    between atoms: S1_26  and  N9_27
ROOT
HETATM    1  C3  UNL     1       5.179  21.624   2.482  1.00  0.00     0.166 A
HETATM    2  N5  UNL     1       5.379  22.812   3.135  1.00  0.00    -0.172 N
ATOM      3  H5  UNL     1       6.065  23.472   2.769  1.00  0.00     0.186 HD
HETATM    4  C4  UNL     1       4.692  23.128   4.245  1.00  0.00     0.701 A
HETATM    5  N8  UNL     1       3.801  22.276   4.726  1.00  0.00    -0.153 N
ATOM      6  H8  UNL     1       3.278  22.514   5.568  1.00  0.00     0.187 HD
HETATM    7  C5  UNL     1       3.576  21.099   4.116  1.00  0.00     0.286 A
HETATM    8  O2  UNL     1       2.731  20.267   4.553  1.00  0.00    -0.266 OA
HETATM    9  C6  UNL     1       4.262  20.723   2.959  1.00  0.00     0.193 A
ENDROOT
BRANCH   1  10
HETATM   10  N4  UNL     1       5.915  21.317   1.305  1.00  0.00    -0.268 N
ATOM     11  H4  UNL     1       5.437  21.444   0.414  1.00  0.00     0.190 HD
BRANCH  10  12
HETATM   12  N3  UNL     1       7.202  20.867   1.258  1.00  0.00    -0.227 N
HETATM   13  N2  UNL     1       7.755  19.848   1.641  1.00  0.00    -0.226 N
ATOM     14  H2  UNL     1       8.756  19.827   1.446  1.00  0.00     0.210 HD
ATOM     15  H3  UNL     1       7.838  21.522   0.806  1.00  0.00     0.210 HD
BRANCH  13  16
HETATM   16  N1  UNL     1       7.296  18.731   2.281  1.00  0.00    -0.255 N
HETATM   17  C2  UNL     1       7.939  17.481   2.081  1.00  0.00     0.233 C
HETATM   18  C1  UNL     1       7.404  16.280   2.803  1.00  0.00     0.119 C
HETATM   19  O1  UNL     1       8.918  17.405   1.324  1.00  0.00    -0.272 OA
ATOM     20  H1  UNL     1       6.491  18.796   2.902  1.00  0.00     0.191 HD
ENDBRANCH  13  16
ENDBRANCH  10  12
ENDBRANCH   1  10
BRANCH   9  21
HETATM   21  S1  UNL     1       3.935  19.202   2.236  1.00  0.00     0.266 S
HETATM   22  O3  UNL     1       4.578  19.079   0.854  1.00  0.00    -0.200 OA
HETATM   23  O4  UNL     1       4.287  18.008   3.072  1.00  0.00    -0.200 OA
BRANCH  21  24
HETATM   24  N9  UNL     1       2.215  19.058   1.945  1.00  0.00    -0.324 N
ATOM     25  H92 UNL     1       1.497  19.140   2.665  1.00  0.00     0.169 HD
ATOM     26  H91 UNL     1       2.055  18.881   0.954  1.00  0.00     0.169 HD
ENDBRANCH  21  24
ENDBRANCH   9  21
BRANCH   4  27
HETATM   27  N6  UNL     1       4.951  24.274   4.787  1.00  0.00    -0.138 N
ATOM     28  H6  UNL     1       4.783  24.379   5.788  1.00  0.00     0.205 HD
BRANCH  27  29
HETATM   29  N7  UNL     1       5.445  25.371   4.091  1.00  0.00    -0.331 N
ATOM     30  H72 UNL     1       6.459  25.460   4.029  1.00  0.00     0.177 HD
ATOM     31  H71 UNL     1       4.858  26.078   3.648  1.00  0.00     0.177 HD
ENDBRANCH  27  29
ENDBRANCH   4  27
TORSDOF 7
ENDMDL