MODEL 1
REMARK VINA RESULT: -8.491485125      0.000      0.000
REMARK  11 active torsions:
REMARK  status: ('A' for Active; 'I' for Inactive)
REMARK    1  A    between atoms: N1_1  and  C1_4
REMARK    2  A    between atoms: C4_12  and  C5_13
REMARK    3  A    between atoms: C5_13  and  C6_14
REMARK    4  A    between atoms: C6_14  and  N4_15
REMARK    5  A    between atoms: C6_14  and  C7_19
REMARK       I    between atoms: C7_19  and  N5_21
REMARK    6  A    between atoms: N5_21  and  O3_22
REMARK    7  A    between atoms: N5_21  and  N6_24
REMARK    8  A    between atoms: C8_25  and  O4_26
REMARK    9  A    between atoms: C10_32  and  C11_33
REMARK   10  A    between atoms: C11_33  and  N8_34
REMARK   11  A    between atoms: N8_34  and  C12_36
ROOT
HETATM    1  C7  UNL     1       5.573 -29.160  -3.611  1.00  0.00     0.289 C
HETATM    2  O2  UNL     1       6.303 -28.166  -3.878  1.00  0.00    -0.267 OA
HETATM    3  N5  UNL     1       5.781 -29.863  -2.401  1.00  0.00    -0.141 N
ENDROOT
BRANCH   1   4
HETATM    4  C6  UNL     1       4.529 -29.559  -4.559  1.00  0.00     0.284 C
BRANCH   4   5
HETATM    5  C5  UNL     1       4.293 -28.518  -5.660  1.00  0.00     0.101 C
BRANCH   5   6
HETATM    6  C4  UNL     1       4.212 -29.186  -6.988  1.00  0.00     0.028 A
HETATM    7  N3  UNL     1       3.198 -28.980  -7.849  1.00  0.00    -0.351 N
HETATM    8  C3  UNL     1       3.188 -29.622  -9.044  1.00  0.00     0.147 A
ATOM      9  H3  UNL     1       2.440 -28.342  -7.604  1.00  0.00     0.166 HD
HETATM   10  C2  UNL     1       2.150 -29.413  -9.929  1.00  0.00     0.290 A
HETATM   11  C17 UNL     1       4.183 -30.494  -9.431  1.00  0.00     0.153 A
HETATM   12  N2  UNL     1       2.155 -30.064 -11.121  1.00  0.00    -0.154 N
HETATM   13  O1  UNL     1       1.229 -28.621  -9.598  1.00  0.00    -0.265 OA
HETATM   14  C1  UNL     1       3.132 -30.912 -11.484  1.00  0.00     0.680 A
ATOM     15  H2  UNL     1       1.383 -29.902 -11.768  1.00  0.00     0.187 HD
HETATM   16  N13 UNL     1       4.150 -31.126 -10.633  1.00  0.00    -0.174 N
ATOM     17  H13 UNL     1       4.902 -31.765 -10.892  1.00  0.00     0.186 HD
HETATM   18  N12 UNL     1       5.198 -30.697  -8.564  1.00  0.00    -0.348 N
HETATM   19  C16 UNL     1       5.222 -30.068  -7.377  1.00  0.00     0.114 A
ATOM     20  H12 UNL     1       5.954 -31.335  -8.813  1.00  0.00     0.167 HD
BRANCH  14  21
HETATM   21  N1  UNL     1       3.097 -31.520 -12.643  1.00  0.00    -0.234 N
ATOM     22  H12 UNL     1       3.957 -31.688 -13.165  1.00  0.00     0.174 HD
ATOM     23  H11 UNL     1       2.211 -31.833 -13.043  1.00  0.00     0.174 HD
ENDBRANCH  14  21
ENDBRANCH   5   6
ENDBRANCH   4   5
BRANCH   4  24
HETATM   24  N4  UNL     1       3.259 -29.793  -3.864  1.00  0.00    -0.066 N
ATOM     25  H43 UNL     1       2.616 -30.372  -4.404  1.00  0.00     0.275 HD
ATOM     26  H42 UNL     1       3.360 -30.410  -3.059  1.00  0.00     0.275 HD
ATOM     27  H41 UNL     1       2.858 -28.888  -3.616  1.00  0.00     0.275 HD
ENDBRANCH   4  24
ENDBRANCH   1   4
BRANCH   3  28
HETATM   28  O3  UNL     1       5.028 -30.929  -2.064  1.00  0.00    -0.269 OA
ATOM     29  H3  UNL     1       4.988 -31.249  -1.170  1.00  0.00     0.246 HD
ENDBRANCH   3  28
BRANCH   3  30
HETATM   30  N6  UNL     1       6.803 -29.451  -1.504  1.00  0.00    -0.139 NA
HETATM   31  C8  UNL     1       6.855 -30.470  -0.465  1.00  0.00     0.324 C
HETATM   32  N7  UNL     1       5.738 -30.114   0.426  1.00  0.00    -0.320 N
HETATM   33  C9  UNL     1       5.363 -28.799   0.132  1.00  0.00     0.242 C
ATOM     34  H7  UNL     1       5.315 -30.718   1.131  1.00  0.00     0.166 HD
HETATM   35  O5  UNL     1       4.347 -28.230   0.644  1.00  0.00    -0.272 OA
HETATM   36  C10 UNL     1       6.328 -28.251  -0.832  1.00  0.00     0.197 C
BRANCH  31  37
HETATM   37  O4  UNL     1       6.610 -31.745  -0.933  1.00  0.00    -0.362 OA
ATOM     38  H4  UNL     1       7.317 -32.355  -0.756  1.00  0.00     0.213 HD
ENDBRANCH  31  37
BRANCH  36  39
HETATM   39  C11 UNL     1       7.421 -27.535  -0.090  1.00  0.00     0.169 C
BRANCH  39  40
HETATM   40  N8  UNL     1       6.919 -26.771   1.004  1.00  0.00    -0.224 N
ATOM     41  H8  UNL     1       6.467 -27.252   1.782  1.00  0.00     0.177 HD
BRANCH  40  42
HETATM   42  C12 UNL     1       7.023 -25.491   1.033  1.00  0.00     0.682 A
HETATM   43  N9  UNL     1       6.155 -24.746   1.774  1.00  0.00    -0.179 N
HETATM   44  C13 UNL     1       6.270 -23.419   1.798  1.00  0.00     0.137 A
ATOM     45  H9  UNL     1       5.418 -25.205   2.311  1.00  0.00     0.185 HD
HETATM   46  N10 UNL     1       5.389 -22.609   2.555  1.00  0.00    -0.082 NA
HETATM   47  C14 UNL     1       7.272 -22.810   1.066  1.00  0.00     0.120 A
HETATM   48  C15 UNL     1       8.140 -23.588   0.322  1.00  0.00     0.262 A
HETATM   49  O6  UNL     1       9.053 -23.040  -0.344  1.00  0.00    -0.268 OA
HETATM   50  N11 UNL     1       7.997 -24.912   0.320  1.00  0.00    -0.156 N
ATOM     51  H11 UNL     1       8.636 -25.490  -0.227  1.00  0.00     0.187 HD
ENDBRANCH  40  42
ENDBRANCH  39  40
ENDBRANCH  36  39
ENDBRANCH   3  30
TORSDOF 11
ENDMDL