MODEL 3
REMARK VINA RESULT: -7.847896239      5.507      9.899
REMARK  12 active torsions:
REMARK  status: ('A' for Active; 'I' for Inactive)
REMARK    1  A    between atoms: N1_2  and  C3_4
REMARK    2  A    between atoms: N4_10  and  N5_12
REMARK    3  A    between atoms: N5_12  and  C5_14
REMARK    4  A    between atoms: C5_14  and  N6_15
REMARK    5  A    between atoms: C5_14  and  C8_28
REMARK       I    between atoms: N6_15  and  C6_17
REMARK    6  A    between atoms: C6_17  and  C7_19
REMARK       I    between atoms: C7_19  and  N7_21
REMARK    7  A    between atoms: N7_21  and  O3_23
REMARK    8  A    between atoms: O3_23  and  N8_24
REMARK    9  A    between atoms: N8_24  and  N9_25
REMARK   10  A    between atoms: C11_33  and  S1_34
REMARK   11  A    between atoms: S1_34  and  N11_35
REMARK   12  A    between atoms: C15_45  and  N13_46
ROOT
HETATM    1  C5  UNL     1       5.901 -30.153 -12.986  1.00  0.00     0.268 C
ENDROOT
BRANCH   1   2
HETATM    2  N5  UNL     1       4.973 -29.766 -14.014  1.00  0.00    -0.304 N
ATOM      3  H5  UNL     1       4.001 -29.563 -13.781  1.00  0.00     0.183 HD
BRANCH   2   4
HETATM    4  N4  UNL     1       5.412 -29.673 -15.317  1.00  0.00    -0.283 N
HETATM    5  C4  UNL     1       5.173 -30.484 -16.255  1.00  0.00     0.180 A
HETATM    6  N3  UNL     1       4.424 -31.581 -16.053  1.00  0.00    -0.267 N
HETATM    7  C15 UNL     1       5.679 -30.267 -17.518  1.00  0.00     0.162 A
HETATM    8  N2  UNL     1       4.143 -32.463 -16.996  1.00  0.00    -0.130 N
ATOM      9  H3  UNL     1       4.049 -31.742 -15.117  1.00  0.00     0.189 HD
HETATM   10  C3  UNL     1       4.629 -32.267 -18.243  1.00  0.00     0.695 A
ATOM     11  H2  UNL     1       3.568 -33.280 -16.787  1.00  0.00     0.205 HD
HETATM   12  N14 UNL     1       5.388 -31.168 -18.464  1.00  0.00    -0.172 N
ATOM     13  H14 UNL     1       5.757 -31.019 -19.402  1.00  0.00     0.186 HD
ATOM     14  H4  UNL     1       5.989 -28.864 -15.548  1.00  0.00     0.188 HD
BRANCH  10  15
HETATM   15  N1  UNL     1       4.350 -33.194 -19.283  1.00  0.00    -0.225 N
HETATM   16  C1  UNL     1       5.060 -34.453 -19.258  1.00  0.00     0.168 C
HETATM   17  C2  UNL     1       3.410 -32.947 -20.342  1.00  0.00     0.168 C
ENDBRANCH  10  15
BRANCH   7  18
HETATM   18  N13 UNL     1       6.404 -29.225 -17.747  1.00  0.00    -0.382 N
ATOM     19 2H13 UNL     1       6.200 -28.567 -18.499  1.00  0.00     0.157 HD
ATOM     20 1H13 UNL     1       7.218 -29.035 -17.163  1.00  0.00     0.157 HD
ENDBRANCH   7  18
ENDBRANCH   2   4
ENDBRANCH   1   2
BRANCH   1  21
HETATM   21  N6  UNL     1       6.808 -29.005 -12.824  1.00  0.00    -0.324 N
HETATM   22  C6  UNL     1       8.201 -29.151 -12.612  1.00  0.00     0.313 C
HETATM   23  O1  UNL     1       8.744 -30.277 -12.548  1.00  0.00    -0.262 OA
ATOM     24  H6  UNL     1       6.417 -28.064 -12.868  1.00  0.00     0.165 HD
BRANCH  22  25
HETATM   25  C7  UNL     1       9.009 -27.955 -12.467  1.00  0.00     0.334 C
HETATM   26  O2  UNL     1      10.261 -28.072 -12.382  1.00  0.00    -0.260 OA
HETATM   27  N7  UNL     1       8.449 -26.665 -12.416  1.00  0.00    -0.203 N
ATOM     28  H7  UNL     1       7.437 -26.545 -12.482  1.00  0.00     0.200 HD
BRANCH  27  29
HETATM   29  O3  UNL     1       9.257 -25.573 -12.277  1.00  0.00    -0.140 OA
BRANCH  29  30
HETATM   30  N8  UNL     1       8.607 -24.501 -12.822  1.00  0.00     0.040 NA
BRANCH  30  31
HETATM   31  N9  UNL     1       7.242 -24.542 -12.480  1.00  0.00    -0.321 N
ATOM     32  H92 UNL     1       6.528 -25.024 -13.027  1.00  0.00     0.174 HD
ATOM     33  H91 UNL     1       7.084 -24.025 -11.615  1.00  0.00     0.174 HD
ENDBRANCH  30  31
ENDBRANCH  29  30
ENDBRANCH  27  29
ENDBRANCH  22  25
ENDBRANCH   1  21
BRANCH   1  34
HETATM   34  C8  UNL     1       5.164 -30.231 -11.668  1.00  0.00     0.127 A
HETATM   35  N10 UNL     1       5.499 -30.906 -10.622  1.00  0.00    -0.341 N
HETATM   36  C9  UNL     1       4.567 -30.740  -9.571  1.00  0.00     0.062 A
ATOM     37  H10 UNL     1       6.334 -31.489 -10.560  1.00  0.00     0.167 HD
HETATM   38  C10 UNL     1       4.506 -31.265  -8.271  1.00  0.00     0.057 A
HETATM   39  C14 UNL     1       3.576 -29.885 -10.021  1.00  0.00     0.060 A
HETATM   40  C11 UNL     1       3.467 -30.943  -7.424  1.00  0.00     0.081 A
HETATM   41  C12 UNL     1       2.507 -30.091  -7.911  1.00  0.00     0.027 A
HETATM   42  C13 UNL     1       2.550 -29.563  -9.190  1.00  0.00     0.033 A
HETATM   43  N12 UNL     1       3.953 -29.554 -11.367  1.00  0.00    -0.341 N
ATOM     44  H12 UNL     1       3.439 -28.939 -11.998  1.00  0.00     0.167 HD
BRANCH  40  45
HETATM   45  S1  UNL     1       3.366 -31.618  -5.793  1.00  0.00     0.256 S
HETATM   46  O4  UNL     1       4.636 -32.255  -5.360  1.00  0.00    -0.201 OA
HETATM   47  O5  UNL     1       2.214 -32.591  -5.774  1.00  0.00    -0.201 OA
BRANCH  45  48
HETATM   48  N11 UNL     1       2.911 -30.316  -4.717  1.00  0.00    -0.324 N
ATOM     49 2H11 UNL     1       3.413 -30.040  -3.874  1.00  0.00     0.169 HD
ATOM     50 1H11 UNL     1       2.060 -29.896  -5.091  1.00  0.00     0.169 HD
ENDBRANCH  45  48
ENDBRANCH  40  45
ENDBRANCH   1  34
TORSDOF 12
ENDMDL