MODEL 5
REMARK VINA RESULT: -8.155659312      1.510      3.269
REMARK  13 active torsions:
REMARK  status: ('A' for Active; 'I' for Inactive)
REMARK       I    between atoms: N1_1  and  C1_4
REMARK       I    between atoms: C1_4  and  N3_6
REMARK       I    between atoms: N3_6  and  C2_8
REMARK    1  A    between atoms: C2_8  and  C3_10
REMARK    2  A    between atoms: C3_10  and  N4_11
REMARK    3  A    between atoms: C3_10  and  C4_15
REMARK    4  A    between atoms: C4_15  and  N5_16
REMARK    5  A    between atoms: N5_16  and  N6_18
REMARK    6  A    between atoms: N6_18  and  C5_20
REMARK    7  A    between atoms: C8_27  and  N9_28
REMARK    8  A    between atoms: N9_28  and  C9_30
REMARK    9  A    between atoms: C11_32  and  O2_33
REMARK   10  A    between atoms: C12_35  and  O3_36
REMARK   11  A    between atoms: O3_36  and  S1_37
REMARK   12  A    between atoms: S1_37  and  N10_38
REMARK   13  A    between atoms: C13_46  and  N12_47
ROOT
HETATM    1  C5  UNL     1       3.929 -31.138 -11.486  1.00  0.00     0.150 A
HETATM    2  N7  UNL     1       5.125 -31.692 -11.368  1.00  0.00    -0.336 N
ATOM      3  H7  UNL     1       5.512 -32.235 -12.141  1.00  0.00     0.168 HD
HETATM    4  C6  UNL     1       5.833 -31.543 -10.233  1.00  0.00     0.182 A
HETATM    5  N8  UNL     1       5.355 -30.836  -9.201  1.00  0.00    -0.347 N
ATOM      6  H8  UNL     1       5.926 -30.748  -8.360  1.00  0.00     0.167 HD
HETATM    7  C7  UNL     1       4.153 -30.240  -9.234  1.00  0.00     0.109 A
HETATM    8  C8  UNL     1       3.690 -29.522  -8.159  1.00  0.00     0.148 A
HETATM    9  N11 UNL     1       2.433 -28.972  -8.356  1.00  0.00    -0.175 N
ATOM     10  H11 UNL     1       2.023 -28.425  -7.600  1.00  0.00     0.186 HD
HETATM   11  C13 UNL     1       1.735 -29.118  -9.473  1.00  0.00     0.678 A
HETATM   12  N13 UNL     1       2.219 -29.829 -10.506  1.00  0.00    -0.186 N
ATOM     13  H13 UNL     1       1.667 -29.932 -11.358  1.00  0.00     0.184 HD
HETATM   14  C14 UNL     1       3.430 -30.403 -10.417  1.00  0.00     0.125 A
ENDROOT
BRANCH   1  15
HETATM   15  N6  UNL     1       3.180 -31.225 -12.526  1.00  0.00    -0.288 N
ATOM     16  H6  UNL     1       2.168 -31.168 -12.409  1.00  0.00     0.188 HD
BRANCH  15  17
HETATM   17  N5  UNL     1       3.702 -31.396 -13.820  1.00  0.00    -0.332 N
ATOM     18  H5  UNL     1       3.822 -32.348 -14.168  1.00  0.00     0.180 HD
BRANCH  17  19
HETATM   19  C4  UNL     1       4.071 -30.322 -14.673  1.00  0.00     0.182 C
BRANCH  19  20
HETATM   20  C3  UNL     1       5.458 -30.438 -15.233  1.00  0.00     0.294 C
BRANCH  20  21
HETATM   21  C2  UNL     1       6.504 -30.318 -14.207  1.00  0.00     0.256 C
HETATM   22  N3  UNL     1       7.019 -29.050 -13.787  1.00  0.00    -0.300 N
HETATM   23  C1  UNL     1       8.021 -28.912 -12.807  1.00  0.00     0.188 C
ATOM     24  H3  UNL     1       6.642 -28.206 -14.219  1.00  0.00     0.171 HD
HETATM   25  N1  UNL     1       8.435 -27.746 -12.479  1.00  0.00    -0.373 N
HETATM   26  N2  UNL     1       8.564 -30.063 -12.189  1.00  0.00    -0.064 NA
ATOM     27  H12 UNL     1       9.160 -27.646 -11.769  1.00  0.00     0.158 HD
ATOM     28  H11 UNL     1       8.043 -26.916 -12.925  1.00  0.00     0.158 HD
HETATM   29  O1  UNL     1       6.996 -31.325 -13.649  1.00  0.00    -0.271 OA
ENDBRANCH  20  21
BRANCH  20  30
HETATM   30  N4  UNL     1       5.584 -31.742 -15.886  1.00  0.00    -0.065 N
ATOM     31  H43 UNL     1       5.947 -32.459 -15.257  1.00  0.00     0.275 HD
ATOM     32  H42 UNL     1       4.678 -32.170 -16.080  1.00  0.00     0.275 HD
ATOM     33  H41 UNL     1       6.152 -31.636 -16.726  1.00  0.00     0.275 HD
ENDBRANCH  20  30
ENDBRANCH  19  20
ENDBRANCH  17  19
ENDBRANCH  15  17
ENDBRANCH   1  15
BRANCH   8  34
HETATM   34  N9  UNL     1       4.281 -29.336  -7.071  1.00  0.00    -0.347 N
ATOM     35  H9  UNL     1       5.165 -28.834  -7.166  1.00  0.00     0.163 HD
BRANCH  34  36
HETATM   36  C9  UNL     1       3.973 -29.674  -5.770  1.00  0.00     0.227 C
HETATM   37  C10 UNL     1       4.825 -28.944  -4.715  1.00  0.00     0.090 C
HETATM   38  C11 UNL     1       4.402 -29.731  -3.480  1.00  0.00     0.178 C
HETATM   39  C12 UNL     1       4.151 -31.095  -4.094  1.00  0.00     0.311 C
HETATM   40  O6  UNL     1       4.394 -31.001  -5.446  1.00  0.00    -0.333 OA
BRANCH  38  41
HETATM   41  O2  UNL     1       5.369 -29.758  -2.506  1.00  0.00    -0.390 OA
ATOM     42  H2  UNL     1       6.048 -29.108  -2.639  1.00  0.00     0.210 HD
ENDBRANCH  38  41
BRANCH  39  43
HETATM   43  O3  UNL     1       4.864 -32.090  -3.461  1.00  0.00    -0.224 OA
BRANCH  43  44
HETATM   44  S1  UNL     1       4.860 -33.550  -4.203  1.00  0.00     0.358 S
HETATM   45  O4  UNL     1       5.337 -34.601  -3.225  1.00  0.00    -0.176 OA
HETATM   46  O5  UNL     1       3.536 -33.996  -4.716  1.00  0.00    -0.176 OA
BRANCH  44  47
HETATM   47  N10 UNL     1       5.986 -33.597  -5.538  1.00  0.00    -0.306 N
ATOM     48 2H10 UNL     1       6.483 -32.776  -5.882  1.00  0.00     0.171 HD
ATOM     49 1H10 UNL     1       6.078 -34.539  -5.918  1.00  0.00     0.171 HD
ENDBRANCH  44  47
ENDBRANCH  43  44
ENDBRANCH  39  43
ENDBRANCH  34  36
ENDBRANCH   8  34
BRANCH  11  50
HETATM   50  N12 UNL     1       0.557 -28.563  -9.571  1.00  0.00    -0.234 N
ATOM     51 2H12 UNL     1       0.099 -28.208  -8.732  1.00  0.00     0.174 HD
ATOM     52 1H12 UNL     1       0.111 -28.493 -10.485  1.00  0.00     0.174 HD
ENDBRANCH  11  50
TORSDOF 13
ENDMDL