MODEL 5
REMARK VINA RESULT: -6.852315045      1.692      1.863
REMARK  12 active torsions:
REMARK  status: ('A' for Active; 'I' for Inactive)
REMARK    1  A    between atoms: N1_1  and  N2_4
REMARK       I    between atoms: N2_4  and  C1_6
REMARK    2  A    between atoms: C1_6  and  C2_8
REMARK    3  A    between atoms: C3_9  and  C4_10
REMARK       I    between atoms: C4_10  and  N3_12
REMARK    4  A    between atoms: N3_12  and  C5_13
REMARK    5  A    between atoms: C5_13  and  C6_14
REMARK    6  A    between atoms: C6_14  and  C7_15
REMARK    7  A    between atoms: C6_14  and  C8_18
REMARK    8  A    between atoms: C8_18  and  O4_19
REMARK    9  A    between atoms: C9_22  and  N5_23
REMARK   10  A    between atoms: C14_32  and  O8_33
REMARK   11  A    between atoms: C15_35  and  O9_36
REMARK   12  A    between atoms: C17_39  and  O10_40
ROOT
HETATM    1  C6  UNL     1       6.326 -30.596  -4.851  1.00  0.00     0.192 C
ENDROOT
BRANCH   1   2
HETATM    2  C5  UNL     1       6.649 -30.000  -6.231  1.00  0.00     0.178 C
BRANCH   2   3
HETATM    3  N3  UNL     1       6.099 -30.617  -7.234  1.00  0.00    -0.382 NA
HETATM    4  C4  UNL     1       5.489 -31.309  -8.353  1.00  0.00     0.326 C
HETATM    5  O2  UNL     1       5.936 -32.384  -8.750  1.00  0.00    -0.251 OA
BRANCH   4   6
HETATM    6  C3  UNL     1       4.321 -30.718  -9.019  1.00  0.00     0.072 A
HETATM    7  C2  UNL     1       3.421 -29.893  -8.400  1.00  0.00     0.118 A
HETATM    8  C18 UNL     1       2.359 -29.356  -9.181  1.00  0.00     0.264 A
HETATM    9  N7  UNL     1       2.248 -29.651 -10.473  1.00  0.00    -0.303 N
HETATM   10  O11 UNL     1       1.553 -28.604  -8.603  1.00  0.00    -0.267 OA
HETATM   11  C17 UNL     1       3.102 -30.446 -11.096  1.00  0.00     0.143 A
ATOM     12  H7  UNL     1       1.474 -29.249 -11.003  1.00  0.00     0.171 HD
HETATM   13  C16 UNL     1       4.141 -30.980 -10.360  1.00  0.00     0.075 A
BRANCH   7  14
HETATM   14  C1  UNL     1       3.417 -29.536  -7.008  1.00  0.00     0.276 C
HETATM   15  N2  UNL     1       3.812 -28.350  -6.453  1.00  0.00    -0.272 N
ATOM     16  H2  UNL     1       4.163 -27.610  -7.061  1.00  0.00     0.189 HD
HETATM   17  O1  UNL     1       3.001 -30.452  -6.200  1.00  0.00    -0.266 OA
BRANCH  15  18
HETATM   18  N1  UNL     1       3.747 -28.122  -5.046  1.00  0.00    -0.342 N
ATOM     19  H12 UNL     1       3.127 -28.712  -4.491  1.00  0.00     0.176 HD
ATOM     20  H11 UNL     1       4.299 -27.392  -4.594  1.00  0.00     0.176 HD
ENDBRANCH  15  18
ENDBRANCH   7  14
BRANCH  11  21
HETATM   21  O10 UNL     1       2.974 -30.755 -12.473  1.00  0.00    -0.346 OA
ATOM     22  H10 UNL     1       2.182 -30.519 -12.943  1.00  0.00     0.219 HD
ENDBRANCH  11  21
ENDBRANCH   4   6
ENDBRANCH   2   3
ENDBRANCH   1   2
BRANCH   1  23
HETATM   23  C7  UNL     1       6.974 -31.898  -4.715  1.00  0.00     0.246 C
HETATM   24  N4  UNL     1       8.305 -32.152  -5.214  1.00  0.00    -0.061 NA
HETATM   25  O3  UNL     1       6.358 -32.843  -4.140  1.00  0.00    -0.276 OA
ENDBRANCH   1  23
BRANCH   1  26
HETATM   26  C8  UNL     1       6.420 -29.655  -3.697  1.00  0.00     0.210 C
HETATM   27  O5  UNL     1       7.576 -30.092  -2.979  1.00  0.00    -0.324 OA
HETATM   28  C9  UNL     1       7.271 -29.953  -1.598  1.00  0.00     0.267 C
HETATM   29  C14 UNL     1       5.944 -30.459  -1.589  1.00  0.00     0.201 C
HETATM   30  C15 UNL     1       5.266 -29.746  -2.740  1.00  0.00     0.214 C
BRANCH  26  31
HETATM   31  O4  UNL     1       6.583 -28.327  -4.051  1.00  0.00    -0.362 OA
ATOM     32  H4  UNL     1       6.688 -27.733  -3.316  1.00  0.00     0.213 HD
ENDBRANCH  26  31
BRANCH  28  33
HETATM   33  N5  UNL     1       7.774 -28.737  -1.194  1.00  0.00    -0.280 N
HETATM   34  C10 UNL     1       8.915 -28.283  -1.806  1.00  0.00     0.104 A
HETATM   35  C11 UNL     1       9.552 -27.133  -1.484  1.00  0.00     0.092 A
HETATM   36  C12 UNL     1       9.013 -26.354  -0.466  1.00  0.00     0.250 A
HETATM   37  O6  UNL     1       9.526 -25.261  -0.095  1.00  0.00    -0.268 OA
HETATM   38  N6  UNL     1       7.909 -26.793   0.123  1.00  0.00    -0.275 N
HETATM   39  C13 UNL     1       7.308 -27.958  -0.238  1.00  0.00     0.331 A
ATOM     40  H6  UNL     1       7.497 -26.238   0.874  1.00  0.00     0.173 HD
HETATM   41  O7  UNL     1       6.295 -28.280   0.361  1.00  0.00    -0.246 OA
ENDBRANCH  28  33
BRANCH  29  42
HETATM   42  O8  UNL     1       5.174 -30.665  -0.502  1.00  0.00    -0.388 OA
ATOM     43  H8  UNL     1       4.692 -31.457  -0.295  1.00  0.00     0.210 HD
ENDBRANCH  29  42
BRANCH  30  44
HETATM   44  O9  UNL     1       4.234 -30.588  -3.149  1.00  0.00    -0.387 OA
ATOM     45  H9  UNL     1       3.530 -30.689  -2.519  1.00  0.00     0.210 HD
ENDBRANCH  30  44
ENDBRANCH   1  26
TORSDOF 12
ENDMDL