MODEL 1
REMARK VINA RESULT: -6.821744379      0.000      0.000
REMARK  15 active torsions:
REMARK  status: ('A' for Active; 'I' for Inactive)
REMARK       I    between atoms: C1_4  and  N2_5
REMARK       I    between atoms: C1_4  and  N5_21
REMARK    1  A    between atoms: N2_5  and  N3_7
REMARK       I    between atoms: N3_7  and  C2_9
REMARK    2  A    between atoms: C2_9  and  C3_11
REMARK    3  A    between atoms: C3_11  and  N4_12
REMARK    4  A    between atoms: C3_11  and  C4_16
REMARK    5  A    between atoms: C4_16  and  O2_17
REMARK    6  A    between atoms: C4_16  and  O3_19
REMARK    7  A    between atoms: N5_21  and  S1_23
REMARK    8  A    between atoms: S1_23  and  O6_26
REMARK    9  A    between atoms: O6_26  and  C5_27
REMARK   10  A    between atoms: C7_29  and  O7_30
REMARK   11  A    between atoms: O7_30  and  S2_31
REMARK   12  A    between atoms: S2_31  and  N6_32
REMARK   13  A    between atoms: C10_39  and  S3_40
REMARK   14  A    between atoms: S3_40  and  N7_41
REMARK   15  A    between atoms: S3_40  and  N8_44
ROOT
HETATM    1  S1  UNL     1       2.639 -29.563  -8.418  1.00  0.00     0.381 S
HETATM    2  O4  UNL     1       3.485 -28.644  -7.540  1.00  0.00    -0.175 OA
HETATM    3  O5  UNL     1       1.224 -29.278  -8.006  1.00  0.00    -0.175 OA
ENDROOT
BRANCH   1   4
HETATM    4  N5  UNL     1       2.842 -29.135 -10.068  1.00  0.00    -0.092 N
HETATM    5  C1  UNL     1       2.363 -30.045 -11.041  1.00  0.00     0.701 C
HETATM    6  N1  UNL     1       1.216 -29.852 -11.565  1.00  0.00    -0.233 N
HETATM    7  N2  UNL     1       3.158 -31.152 -11.417  1.00  0.00    -0.129 N
ATOM      8  H12 UNL     1       0.871 -30.508 -12.266  1.00  0.00     0.174 HD
ATOM      9  H11 UNL     1       0.642 -29.054 -11.294  1.00  0.00     0.174 HD
ATOM     10  H2  UNL     1       3.573 -31.755 -10.707  1.00  0.00     0.205 HD
ATOM     11  H5  UNL     1       3.290 -28.259 -10.336  1.00  0.00     0.199 HD
BRANCH   7  12
HETATM   12  N3  UNL     1       3.367 -31.408 -12.766  1.00  0.00    -0.254 N
HETATM   13  C2  UNL     1       4.511 -30.891 -13.420  1.00  0.00     0.272 C
HETATM   14  O1  UNL     1       5.316 -30.192 -12.715  1.00  0.00    -0.269 OA
ATOM     15  H3  UNL     1       2.694 -31.971 -13.287  1.00  0.00     0.190 HD
BRANCH  13  16
HETATM   16  C3  UNL     1       4.791 -31.130 -14.851  1.00  0.00     0.330 C
BRANCH  16  17
HETATM   17  N4  UNL     1       6.090 -31.755 -14.967  1.00  0.00    -0.062 N
ATOM     18  H43 UNL     1       6.383 -32.212 -14.103  1.00  0.00     0.275 HD
ATOM     19  H42 UNL     1       6.074 -32.582 -15.563  1.00  0.00     0.275 HD
ATOM     20  H41 UNL     1       6.759 -31.055 -15.287  1.00  0.00     0.275 HD
ENDBRANCH  16  17
BRANCH  16  21
HETATM   21  C4  UNL     1       4.725 -29.878 -15.687  1.00  0.00     0.293 C
BRANCH  21  22
HETATM   22  O2  UNL     1       3.408 -29.466 -15.868  1.00  0.00    -0.369 OA
ATOM     23  H2  UNL     1       3.071 -29.756 -16.707  1.00  0.00     0.212 HD
ENDBRANCH  21  22
BRANCH  21  24
HETATM   24  O3  UNL     1       5.433 -28.853 -15.062  1.00  0.00    -0.369 OA
ATOM     25  H3  UNL     1       6.064 -28.482 -15.667  1.00  0.00     0.212 HD
ENDBRANCH  21  24
ENDBRANCH  16  21
ENDBRANCH  13  16
ENDBRANCH   7  12
ENDBRANCH   1   4
BRANCH   1  26
HETATM   26  O6  UNL     1       3.110 -31.171  -8.140  1.00  0.00    -0.214 OA
BRANCH  26  27
HETATM   27  C5  UNL     1       4.392 -31.409  -7.675  1.00  0.00     0.115 A
HETATM   28  C6  UNL     1       5.453 -31.328  -8.602  1.00  0.00     0.078 A
HETATM   29  C7  UNL     1       6.743 -31.559  -8.186  1.00  0.00     0.093 A
HETATM   30  C8  UNL     1       7.017 -31.869  -6.871  1.00  0.00     0.040 A
HETATM   31  C9  UNL     1       5.995 -31.951  -5.959  1.00  0.00     0.029 A
HETATM   32  C10 UNL     1       4.672 -31.719  -6.369  1.00  0.00     0.092 A
BRANCH  29  33
HETATM   33  O7  UNL     1       7.813 -31.489  -9.070  1.00  0.00    -0.217 OA
BRANCH  33  34
HETATM   34  S2  UNL     1       8.013 -32.831 -10.121  1.00  0.00     0.360 S
HETATM   35  O8  UNL     1       7.355 -34.043  -9.508  1.00  0.00    -0.176 OA
HETATM   36  O9  UNL     1       9.465 -33.093 -10.412  1.00  0.00    -0.176 OA
BRANCH  34  37
HETATM   37  N6  UNL     1       7.154 -32.459 -11.591  1.00  0.00    -0.305 N
ATOM     38  H62 UNL     1       6.189 -32.134 -11.651  1.00  0.00     0.171 HD
ATOM     39  H61 UNL     1       7.798 -32.628 -12.363  1.00  0.00     0.171 HD
ENDBRANCH  34  37
ENDBRANCH  33  34
ENDBRANCH  29  33
BRANCH  32  40
HETATM   40  S3  UNL     1       3.393 -31.858  -5.217  1.00  0.00     0.133 S
HETATM   41  O10 UNL     1       2.236 -32.673  -5.620  1.00  0.00    -0.224 OA
BRANCH  40  42
HETATM   42  N7  UNL     1       2.850 -30.393  -4.927  1.00  0.00    -0.341 N
ATOM     43  H72 UNL     1       3.428 -29.562  -4.800  1.00  0.00     0.167 HD
ATOM     44  H71 UNL     1       1.832 -30.444  -4.894  1.00  0.00     0.167 HD
ENDBRANCH  40  42
BRANCH  40  45
HETATM   45  N8  UNL     1       4.003 -32.378  -3.660  1.00  0.00    -0.341 N
ATOM     46  H82 UNL     1       4.222 -33.348  -3.434  1.00  0.00     0.167 HD
ATOM     47  H81 UNL     1       4.105 -31.588  -3.023  1.00  0.00     0.167 HD
ENDBRANCH  40  45
ENDBRANCH  32  40
ENDBRANCH  26  27
ENDBRANCH   1  26
TORSDOF 15
ENDMDL