MODEL 5
REMARK VINA RESULT: -5.417124424      2.935      6.831
REMARK  13 active torsions:
REMARK  status: ('A' for Active; 'I' for Inactive)
REMARK    1  A    between atoms: N1_1  and  C1_5
REMARK    2  A    between atoms: C1_5  and  C2_6
REMARK       I    between atoms: C2_6  and  N2_8
REMARK    3  A    between atoms: N2_8  and  C3_10
REMARK    4  A    between atoms: C5_12  and  C6_13
REMARK    5  A    between atoms: C6_13  and  O2_14
REMARK    6  A    between atoms: C6_13  and  C7_16
REMARK    7  A    between atoms: C7_16  and  N3_17
REMARK    8  A    between atoms: N3_17  and  N4_18
REMARK    9  A    between atoms: C12_26  and  S1_27
REMARK   10  A    between atoms: S1_27  and  N6_28
REMARK   11  A    between atoms: C15_37  and  C16_38
REMARK   12  A    between atoms: C15_37  and  N9_43
REMARK   13  A    between atoms: C16_38  and  N8_39
REMARK       I    between atoms: N9_43  and  C17_45
ROOT
HETATM    1  C3  UNL     1       6.446 -33.073  -3.758  1.00  0.00     0.103 C
HETATM    2  C4  UNL     1       6.853 -34.552  -3.838  1.00  0.00     0.033 C
HETATM    3  C5  UNL     1       5.715 -35.246  -4.481  1.00  0.00     0.019 C
HETATM    4  C8  UNL     1       4.663 -34.221  -4.788  1.00  0.00     0.030 C
HETATM    5  C9  UNL     1       5.380 -32.897  -4.723  1.00  0.00     0.072 A
HETATM    6  C10 UNL     1       5.798 -32.520  -6.108  1.00  0.00     0.058 A
HETATM    7  C11 UNL     1       6.546 -32.804  -7.217  1.00  0.00     0.093 A
HETATM    8  N5  UNL     1       7.410 -33.944  -7.349  1.00  0.00    -0.099 NA
HETATM    9  C12 UNL     1       6.489 -31.956  -8.303  1.00  0.00     0.110 A
HETATM   10  C13 UNL     1       5.684 -30.842  -8.257  1.00  0.00     0.102 A
HETATM   11  C14 UNL     1       4.951 -30.609  -7.104  1.00  0.00     0.251 A
HETATM   12  O5  UNL     1       4.220 -29.581  -7.088  1.00  0.00    -0.268 OA
HETATM   13  N7  UNL     1       5.005 -31.450  -6.023  1.00  0.00    -0.285 N
HETATM   14  C15 UNL     1       4.488 -31.663  -4.699  1.00  0.00     0.156 A
ENDROOT
BRANCH   1  15
HETATM   15  N2  UNL     1       7.651 -32.282  -3.996  1.00  0.00    -0.354 N
HETATM   16  C2  UNL     1       8.125 -31.291  -3.132  1.00  0.00     0.243 C
HETATM   17  O1  UNL     1       7.506 -31.038  -2.078  1.00  0.00    -0.272 OA
ATOM     18  H2  UNL     1       8.181 -32.464  -4.848  1.00  0.00     0.162 HD
BRANCH  16  19
HETATM   19  C1  UNL     1       9.350 -30.535  -3.446  1.00  0.00     0.332 C
BRANCH  19  20
HETATM   20  N1  UNL     1       9.589 -29.509  -2.424  1.00  0.00    -0.071 N
ATOM     21  H13 UNL     1       9.102 -28.638  -2.638  1.00  0.00     0.274 HD
ATOM     22  H12 UNL     1       9.122 -29.729  -1.545  1.00  0.00     0.274 HD
ATOM     23  H11 UNL     1      10.591 -29.364  -2.297  1.00  0.00     0.274 HD
ENDBRANCH  19  20
ENDBRANCH  16  19
ENDBRANCH   1  15
BRANCH  14  24
HETATM   24  C16 UNL     1       3.057 -32.191  -4.627  1.00  0.00     0.285 C
BRANCH  24  25
HETATM   25  N8  UNL     1       2.065 -31.246  -4.263  1.00  0.00    -0.075 N
ATOM     26  H83 UNL     1       2.294 -30.334  -4.659  1.00  0.00     0.274 HD
ATOM     27  H82 UNL     1       1.196 -31.447  -4.758  1.00  0.00     0.274 HD
ATOM     28  H81 UNL     1       1.881 -31.155  -3.265  1.00  0.00     0.274 HD
ENDBRANCH  24  25
ENDBRANCH  14  24
BRANCH  14  29
HETATM   29  N9  UNL     1       4.829 -30.697  -3.720  1.00  0.00    -0.316 N
HETATM   30  C17 UNL     1       4.425 -29.398  -3.512  1.00  0.00     0.330 C
HETATM   31  N10 UNL     1       4.981 -28.670  -2.386  1.00  0.00    -0.040 NA
HETATM   32  O6  UNL     1       3.625 -28.737  -4.173  1.00  0.00    -0.251 OA
ATOM     33  H9  UNL     1       5.508 -31.030  -3.035  1.00  0.00     0.166 HD
ENDBRANCH  14  29
BRANCH   3  34
HETATM   34  C6  UNL     1       5.103 -36.245  -3.495  1.00  0.00     0.138 C
BRANCH  34  35
HETATM   35  O2  UNL     1       5.971 -36.555  -2.468  1.00  0.00    -0.394 OA
ATOM     36  H2  UNL     1       5.636 -37.254  -1.918  1.00  0.00     0.210 HD
ENDBRANCH  34  35
BRANCH  34  37
HETATM   37  C7  UNL     1       4.803 -37.511  -4.260  1.00  0.00     0.166 C
BRANCH  37  38
HETATM   38  N3  UNL     1       5.572 -38.610  -3.695  1.00  0.00    -0.146 NA
BRANCH  38  39
HETATM   39  N4  UNL     1       4.794 -39.419  -2.877  1.00  0.00    -0.348 N
ATOM     40  H42 UNL     1       3.824 -39.209  -2.643  1.00  0.00     0.172 HD
ATOM     41  H41 UNL     1       5.312 -40.234  -2.546  1.00  0.00     0.172 HD
ENDBRANCH  38  39
ENDBRANCH  37  38
ENDBRANCH  34  37
ENDBRANCH   3  34
BRANCH   9  42
HETATM   42  S1  UNL     1       7.417 -32.256  -9.754  1.00  0.00     0.258 S
HETATM   43  O3  UNL     1       8.881 -31.953  -9.458  1.00  0.00    -0.201 OA
HETATM   44  O4  UNL     1       6.953 -31.383 -10.883  1.00  0.00    -0.201 OA
BRANCH  42  45
HETATM   45  N6  UNL     1       7.305 -33.884 -10.252  1.00  0.00    -0.324 N
ATOM     46  H62 UNL     1       6.726 -34.191 -11.034  1.00  0.00     0.169 HD
ATOM     47  H61 UNL     1       7.883 -34.497  -9.678  1.00  0.00     0.169 HD
ENDBRANCH  42  45
ENDBRANCH   9  42
TORSDOF 13
ENDMDL