MODEL 3
REMARK VINA RESULT: -6.926547088      0.902      1.336
REMARK  13 active torsions:
REMARK  status: ('A' for Active; 'I' for Inactive)
REMARK    1  A    between atoms: N1_1  and  N2_4
REMARK       I    between atoms: N2_4  and  C1_6
REMARK    2  A    between atoms: C1_6  and  C2_8
REMARK    3  A    between atoms: C3_9  and  N3_10
REMARK       I    between atoms: N3_10  and  C4_12
REMARK    4  A    between atoms: C4_12  and  C5_14
REMARK    5  A    between atoms: C7_21  and  O4_22
REMARK    6  A    between atoms: C10_26  and  N6_27
REMARK       I    between atoms: N7_31  and  C11_32
REMARK    7  A    between atoms: C11_32  and  C12_34
REMARK    8  A    between atoms: C12_34  and  C13_35
REMARK    9  A    between atoms: C13_35  and  N8_36
REMARK   10  A    between atoms: N8_36  and  C14_38
REMARK   11  A    between atoms: C14_38  and  O6_39
REMARK   12  A    between atoms: N9_41  and  O7_43
REMARK   13  A    between atoms: C15_45  and  O8_46
ROOT
HETATM    1  C2  UNL     1       6.492 -32.136 -12.447  1.00  0.00     0.076 C
HETATM    2  C3  UNL     1       5.263 -31.314 -12.643  1.00  0.00     0.137 C
HETATM    3  C8  UNL     1       5.240 -30.621 -13.982  1.00  0.00     0.095 C
HETATM    4  C9  UNL     1       5.914 -29.311 -14.050  1.00  0.00     0.069 C
HETATM    5  C10 UNL     1       7.368 -29.248 -13.779  1.00  0.00     0.290 C
HETATM    6  N7  UNL     1       8.054 -30.477 -13.510  1.00  0.00    -0.280 N
HETATM    7  C11 UNL     1       9.476 -30.286 -13.404  1.00  0.00     0.226 C
HETATM    8  O5  UNL     1      10.187 -31.274 -13.129  1.00  0.00    -0.273 OA
HETATM    9  C15 UNL     1       7.618 -31.818 -13.399  1.00  0.00     0.241 C
HETATM   10  C16 UNL     1       7.050 -32.150 -14.792  1.00  0.00     0.255 C
HETATM   11  O9  UNL     1       7.693 -32.821 -15.605  1.00  0.00    -0.283 OA
HETATM   12  C17 UNL     1       5.719 -31.595 -15.003  1.00  0.00     0.206 C
HETATM   13  O10 UNL     1       5.043 -31.935 -15.989  1.00  0.00    -0.289 OA
ENDROOT
BRANCH   2  14
HETATM   14  N3  UNL     1       4.885 -30.474 -11.534  1.00  0.00    -0.346 N
HETATM   15  C4  UNL     1       3.643 -30.648 -10.878  1.00  0.00     0.273 C
HETATM   16  O2  UNL     1       2.827 -31.550 -11.258  1.00  0.00    -0.266 OA
ATOM     17  H3  UNL     1       5.522 -29.743 -11.218  1.00  0.00     0.163 HD
BRANCH  15  18
HETATM   18  C5  UNL     1       3.229 -29.833  -9.761  1.00  0.00     0.156 A
HETATM   19  N4  UNL     1       3.973 -29.560  -8.638  1.00  0.00    -0.300 N
HETATM   20  C6  UNL     1       3.261 -28.783  -7.830  1.00  0.00     0.327 A
ATOM     21  H4  UNL     1       4.917 -29.901  -8.455  1.00  0.00     0.171 HD
HETATM   22  O3  UNL     1       3.577 -28.305  -6.697  1.00  0.00    -0.247 OA
HETATM   23  N5  UNL     1       2.054 -28.518  -8.372  1.00  0.00    -0.287 N
HETATM   24  C7  UNL     1       2.046 -29.175  -9.570  1.00  0.00     0.177 A
ATOM     25  H5  UNL     1       1.308 -27.949  -7.972  1.00  0.00     0.172 HD
BRANCH  24  26
HETATM   26  O4  UNL     1       0.928 -29.108 -10.393  1.00  0.00    -0.344 OA
ATOM     27  H4  UNL     1       0.151 -28.566 -10.317  1.00  0.00     0.219 HD
ENDBRANCH  24  26
ENDBRANCH  15  18
ENDBRANCH   2  14
BRANCH   1  28
HETATM   28  C1  UNL     1       6.950 -32.341 -11.068  1.00  0.00     0.269 C
HETATM   29  N2  UNL     1       8.189 -31.924 -10.540  1.00  0.00    -0.273 N
ATOM     30  H2  UNL     1       8.858 -31.435 -11.134  1.00  0.00     0.189 HD
HETATM   31  O1  UNL     1       6.202 -32.953 -10.203  1.00  0.00    -0.266 OA
BRANCH  29  32
HETATM   32  N1  UNL     1       8.499 -32.181  -9.203  1.00  0.00    -0.342 N
ATOM     33  H12 UNL     1       8.284 -31.473  -8.500  1.00  0.00     0.176 HD
ATOM     34  H11 UNL     1       8.935 -33.065  -8.942  1.00  0.00     0.176 HD
ENDBRANCH  29  32
ENDBRANCH   1  28
BRANCH   9  35
HETATM   35  O8  UNL     1       8.604 -32.775 -13.207  1.00  0.00    -0.360 OA
ATOM     36  H8  UNL     1       9.138 -32.793 -13.993  1.00  0.00     0.213 HD
ENDBRANCH   9  35
BRANCH   5  37
HETATM   37  N6  UNL     1       7.586 -28.199 -12.797  1.00  0.00    -0.058 N
ATOM     38  H63 UNL     1       7.944 -27.337 -13.209  1.00  0.00     0.276 HD
ATOM     39  H62 UNL     1       6.716 -27.818 -12.423  1.00  0.00     0.276 HD
ATOM     40  H61 UNL     1       8.197 -28.577 -12.073  1.00  0.00     0.276 HD
ENDBRANCH   5  37
BRANCH   7  41
HETATM   41  C12 UNL     1      10.165 -28.995 -13.600  1.00  0.00     0.123 C
BRANCH  41  42
HETATM   42  C13 UNL     1      11.194 -28.863 -12.457  1.00  0.00     0.132 C
BRANCH  42  43
HETATM   43  N8  UNL     1      10.595 -28.193 -11.329  1.00  0.00    -0.354 N
ATOM     44  H8  UNL     1      10.366 -27.199 -11.372  1.00  0.00     0.163 HD
BRANCH  43  45
HETATM   45  C14 UNL     1      10.331 -28.947 -10.159  1.00  0.00     0.237 C
HETATM   46  N9  UNL     1       9.787 -28.365  -9.121  1.00  0.00    -0.233 N
ATOM     47  H9  UNL     1       9.604 -28.922  -8.287  1.00  0.00     0.198 HD
BRANCH  45  48
HETATM   48  O6  UNL     1      10.654 -30.293 -10.137  1.00  0.00    -0.331 OA
ATOM     49  H6  UNL     1      11.110 -30.648  -9.382  1.00  0.00     0.221 HD
ENDBRANCH  45  48
BRANCH  46  50
HETATM   50  O7  UNL     1       9.457 -27.051  -9.110  1.00  0.00    -0.287 OA
ATOM     51  H7  UNL     1       8.558 -26.748  -9.123  1.00  0.00     0.244 HD
ENDBRANCH  46  50
ENDBRANCH  43  45
ENDBRANCH  42  43
ENDBRANCH  41  42
ENDBRANCH   7  41
TORSDOF 13
ENDMDL