MODEL 2
REMARK VINA RESULT: -7.919604004      3.036      8.006
REMARK  11 active torsions:
REMARK  status: ('A' for Active; 'I' for Inactive)
REMARK    1  A    between atoms: C1_4  and  C2_6
REMARK    2  A    between atoms: C5_9  and  S1_10
REMARK    3  A    between atoms: S1_10  and  O3_13
REMARK    4  A    between atoms: O3_13  and  N3_14
REMARK    5  A    between atoms: N3_14  and  C6_15
REMARK    6  A    between atoms: C7_17  and  C8_18
REMARK    7  A    between atoms: C8_18  and  O5_19
REMARK    8  A    between atoms: C8_18  and  C9_21
REMARK    9  A    between atoms: C9_21  and  N4_22
REMARK   10  A    between atoms: C9_21  and  C10_26
REMARK       I    between atoms: C10_26  and  N5_28
REMARK   11  A    between atoms: N5_28  and  N6_30
REMARK       I    between atoms: N6_30  and  C11_32
ROOT
HETATM    1  C6  UNL     1       2.055 -30.477  -8.121  1.00  0.00     0.389 C
HETATM    2  O4  UNL     1       3.073 -31.105  -8.875  1.00  0.00    -0.325 OA
HETATM    3  C7  UNL     1       2.832 -30.756 -10.207  1.00  0.00     0.265 C
HETATM    4  N8  UNL     1       3.089 -29.313 -10.273  1.00  0.00    -0.286 N
ATOM      5  H8  UNL     1       3.659 -28.758 -10.912  1.00  0.00     0.175 HD
HETATM    6  S2  UNL     1       2.097 -28.850  -8.899  1.00  0.00     0.273 S
HETATM    7  O8  UNL     1       0.742 -28.448  -9.373  1.00  0.00    -0.202 OA
HETATM    8  O9  UNL     1       2.765 -27.843  -8.045  1.00  0.00    -0.202 OA
ENDROOT
BRANCH   1   9
HETATM    9  N3  UNL     1       2.487 -30.297  -6.750  1.00  0.00    -0.031 NA
BRANCH   9  10
HETATM   10  O3  UNL     1       3.771 -30.719  -6.671  1.00  0.00    -0.152 OA
BRANCH  10  11
HETATM   11  S1  UNL     1       3.988 -31.735  -5.341  1.00  0.00     0.317 S
HETATM   12  O1  UNL     1       2.629 -32.323  -5.036  1.00  0.00    -0.192 OA
HETATM   13  O2  UNL     1       4.925 -32.860  -5.647  1.00  0.00    -0.192 OA
BRANCH  11  14
HETATM   14  C5  UNL     1       4.570 -30.760  -4.014  1.00  0.00     0.112 A
HETATM   15  C4  UNL     1       4.332 -29.404  -3.943  1.00  0.00     0.029 A
HETATM   16  C3  UNL     1       4.793 -28.647  -2.897  1.00  0.00     0.016 A
HETATM   17  C2  UNL     1       5.519 -29.203  -1.861  1.00  0.00     0.006 A
HETATM   18  C13 UNL     1       5.753 -30.558  -1.938  1.00  0.00     0.043 A
HETATM   19  C12 UNL     1       5.282 -31.324  -3.004  1.00  0.00     0.071 A
HETATM   20  N9  UNL     1       5.575 -32.713  -2.991  1.00  0.00    -0.101 NA
BRANCH  17  21
HETATM   21  C1  UNL     1       5.996 -28.395  -0.768  1.00  0.00     0.120 C
HETATM   22  N1  UNL     1       7.201 -27.976  -0.610  1.00  0.00    -0.387 N
ATOM     23  H12 UNL     1       7.539 -27.404   0.163  1.00  0.00     0.157 HD
ATOM     24  H11 UNL     1       7.875 -28.245  -1.327  1.00  0.00     0.157 HD
HETATM   25  N2  UNL     1       5.042 -28.015   0.246  1.00  0.00    -0.082 NA
ENDBRANCH  17  21
ENDBRANCH  11  14
ENDBRANCH  10  11
ENDBRANCH   9  10
ENDBRANCH   1   9
BRANCH   3  26
HETATM   26  C8  UNL     1       3.744 -31.565 -11.059  1.00  0.00     0.207 C
BRANCH  26  27
HETATM   27  O5  UNL     1       3.218 -31.532 -12.369  1.00  0.00    -0.389 OA
ATOM     28  H5  UNL     1       2.459 -32.104 -12.376  1.00  0.00     0.210 HD
ENDBRANCH  26  27
BRANCH  26  29
HETATM   29  C9  UNL     1       5.151 -31.012 -11.141  1.00  0.00     0.309 C
BRANCH  29  30
HETATM   30  N4  UNL     1       5.792 -31.332 -12.387  1.00  0.00    -0.064 N
ATOM     31  H43 UNL     1       5.184 -31.897 -12.979  1.00  0.00     0.275 HD
ATOM     32  H42 UNL     1       5.875 -30.506 -12.980  1.00  0.00     0.275 HD
ATOM     33  H41 UNL     1       6.697 -31.783 -12.253  1.00  0.00     0.275 HD
ENDBRANCH  29  30
BRANCH  29  34
HETATM   34  C10 UNL     1       5.944 -31.538 -10.003  1.00  0.00     0.269 C
HETATM   35  O6  UNL     1       6.534 -32.633 -10.148  1.00  0.00    -0.269 OA
HETATM   36  N5  UNL     1       6.045 -30.831  -8.774  1.00  0.00    -0.265 N
ATOM     37  H5  UNL     1       5.564 -29.938  -8.657  1.00  0.00     0.190 HD
BRANCH  36  38
HETATM   38  N6  UNL     1       6.795 -31.355  -7.734  1.00  0.00    -0.251 N
HETATM   39  C11 UNL     1       7.177 -30.541  -6.640  1.00  0.00     0.347 C
HETATM   40  N7  UNL     1       7.939 -31.067  -5.581  1.00  0.00    -0.038 NA
HETATM   41  O7  UNL     1       6.831 -29.324  -6.610  1.00  0.00    -0.249 OA
ATOM     42  H6  UNL     1       7.073 -32.335  -7.756  1.00  0.00     0.191 HD
ENDBRANCH  36  38
ENDBRANCH  29  34
ENDBRANCH  26  29
ENDBRANCH   3  26
TORSDOF 11
ENDMDL