MODEL 2
REMARK VINA RESULT: -6.625404099      0.931      1.826
REMARK  18 active torsions:
REMARK  status: ('A' for Active; 'I' for Inactive)
REMARK    1  A    between atoms: N1_1  and  C1_4
REMARK    2  A    between atoms: C1_4  and  C2_5
REMARK    3  A    between atoms: C1_4  and  N8_45
REMARK    4  A    between atoms: C2_5  and  N2_6
REMARK    5  A    between atoms: C4_11  and  N4_12
REMARK    6  A    between atoms: N4_12  and  O2_14
REMARK    7  A    between atoms: C5_18  and  N6_19
REMARK    8  A    between atoms: N6_19  and  C6_20
REMARK    9  A    between atoms: C6_20  and  O3_21
REMARK   10  A    between atoms: C10_28  and  C11_29
REMARK   11  A    between atoms: C13_33  and  C14_34
REMARK   12  A    between atoms: C14_34  and  O8_35
REMARK   13  A    between atoms: C14_34  and  C15_37
REMARK   14  A    between atoms: C15_37  and  O9_38
REMARK   15  A    between atoms: C16_40  and  N7_41
REMARK   16  A    between atoms: N8_45  and  C17_47
REMARK   17  A    between atoms: C17_47  and  C18_48
REMARK   18  A    between atoms: C18_48  and  N9_49
ROOT
HETATM    1  N2  UNL     1       4.245 -30.813 -10.403  1.00  0.00    -0.251 N
HETATM    2  C3  UNL     1       3.177 -30.390 -11.130  1.00  0.00     0.344 A
HETATM    3  O1  UNL     1       3.178 -30.617 -12.384  1.00  0.00    -0.246 OA
HETATM    4  N3  UNL     1       2.144 -29.749 -10.557  1.00  0.00    -0.139 N
ATOM      5  H3  UNL     1       1.360 -29.447 -11.135  1.00  0.00     0.189 HD
HETATM    6  C4  UNL     1       2.124 -29.500  -9.236  1.00  0.00     0.709 A
HETATM    7  N5  UNL     1       3.157 -29.906  -8.512  1.00  0.00    -0.146 N
ATOM      8  H5  UNL     1       3.161 -29.725  -7.508  1.00  0.00     0.188 HD
HETATM    9  C5  UNL     1       4.239 -30.573  -9.082  1.00  0.00     0.282 A
ENDROOT
BRANCH   9  10
HETATM   10  N6  UNL     1       5.117 -30.944  -8.354  1.00  0.00    -0.344 NA
BRANCH  10  11
HETATM   11  C6  UNL     1       6.164 -30.959  -7.525  1.00  0.00     0.229 C
HETATM   12  C7  UNL     1       6.263 -31.025  -6.091  1.00  0.00     0.070 C
HETATM   13  C8  UNL     1       6.540 -31.070  -5.007  1.00  0.00     0.077 C
HETATM   14  C16 UNL     1       5.276 -29.640  -5.452  1.00  0.00     0.253 C
HETATM   15  O4  UNL     1       4.926 -31.198  -4.550  1.00  0.00    -0.281 OA
HETATM   16  C13 UNL     1       7.305 -31.083  -3.857  1.00  0.00     0.076 C
HETATM   17  C9  UNL     1       5.066 -31.096  -3.361  1.00  0.00     0.285 C
HETATM   18  O5  UNL     1       5.207 -30.993  -2.164  1.00  0.00    -0.263 OA
HETATM   19  C10 UNL     1       5.588 -29.430  -4.006  1.00  0.00     0.169 C
HETATM   20  C12 UNL     1       6.924 -29.540  -3.449  1.00  0.00     0.047 C
BRANCH  11  21
HETATM   21  O3  UNL     1       7.326 -30.898  -8.171  1.00  0.00    -0.335 OA
ATOM     22  H3  UNL     1       7.392 -30.131  -8.729  1.00  0.00     0.220 HD
ENDBRANCH  11  21
BRANCH  19  23
HETATM   23  C11 UNL     1       4.566 -28.691  -3.326  1.00  0.00     0.194 C
HETATM   24  O6  UNL     1       3.423 -28.530  -3.865  1.00  0.00    -0.647 OA
HETATM   25  O7  UNL     1       4.737 -28.116  -2.078  1.00  0.00    -0.647 OA
ENDBRANCH  19  23
BRANCH  16  26
HETATM   26  C14 UNL     1       8.816 -31.073  -4.041  1.00  0.00     0.152 C
BRANCH  26  27
HETATM   27  O8  UNL     1       9.237 -32.388  -3.871  1.00  0.00    -0.393 OA
ATOM     28  H8  UNL     1       9.740 -32.609  -4.645  1.00  0.00     0.210 HD
ENDBRANCH  26  27
BRANCH  26  29
HETATM   29  C15 UNL     1       9.416 -30.243  -2.956  1.00  0.00     0.196 C
BRANCH  29  30
HETATM   30  O9  UNL     1      10.445 -29.467  -3.505  1.00  0.00    -0.398 OA
ATOM     31  H9  UNL     1      11.178 -30.036  -3.707  1.00  0.00     0.209 HD
ENDBRANCH  29  30
ENDBRANCH  26  29
ENDBRANCH  16  26
BRANCH  14  32
HETATM   32  N7  UNL     1       5.778 -28.631  -6.307  1.00  0.00    -0.069 N
ATOM     33  H73 UNL     1       6.672 -28.214  -6.047  1.00  0.00     0.275 HD
ATOM     34  H72 UNL     1       6.109 -28.931  -7.224  1.00  0.00     0.275 HD
ATOM     35  H71 UNL     1       4.964 -28.016  -6.293  1.00  0.00     0.275 HD
ENDBRANCH  14  32
ENDBRANCH  10  11
ENDBRANCH   9  10
BRANCH   1  36
HETATM   36  C2  UNL     1       5.299 -31.507 -11.123  1.00  0.00     0.213 C
BRANCH  36  37
HETATM   37  C1  UNL     1       6.405 -30.604 -11.546  1.00  0.00     0.089 C
BRANCH  37  38
HETATM   38  N1  UNL     1       6.182 -29.703 -12.465  1.00  0.00    -0.388 N
ATOM     39  H12 UNL     1       6.801 -28.893 -12.483  1.00  0.00     0.157 HD
ATOM     40  H11 UNL     1       5.411 -29.836 -13.119  1.00  0.00     0.157 HD
ENDBRANCH  37  38
BRANCH  37  41
HETATM   41  N8  UNL     1       7.704 -30.663 -11.005  1.00  0.00    -0.377 N
ATOM     42  H8  UNL     1       7.828 -31.031 -10.062  1.00  0.00     0.160 HD
BRANCH  41  43
HETATM   43  C17 UNL     1       8.868 -30.220 -11.739  1.00  0.00     0.148 C
BRANCH  43  44
HETATM   44  C18 UNL     1      10.028 -29.914 -10.817  1.00  0.00     0.249 C
BRANCH  44  45
HETATM   45  N9  UNL     1       9.592 -29.462  -9.527  1.00  0.00    -0.078 N
ATOM     46  H93 UNL     1      10.037 -28.580  -9.276  1.00  0.00     0.274 HD
ATOM     47  H92 UNL     1       8.621 -29.153  -9.554  1.00  0.00     0.274 HD
ATOM     48  H91 UNL     1       9.735 -30.165  -8.802  1.00  0.00     0.274 HD
ENDBRANCH  44  45
ENDBRANCH  43  44
ENDBRANCH  41  43
ENDBRANCH  37  41
ENDBRANCH  36  37
ENDBRANCH   1  36
BRANCH   6  49
HETATM   49  N4  UNL     1       1.129 -28.882  -8.685  1.00  0.00    -0.098 N
ATOM     50  H4  UNL     1       1.182 -28.571  -7.715  1.00  0.00     0.213 HD
BRANCH  49  51
HETATM   51  O2  UNL     1      -0.012 -28.653  -9.444  1.00  0.00    -0.276 OA
ATOM     52  H2  UNL     1      -0.671 -29.337  -9.491  1.00  0.00     0.245 HD
ENDBRANCH  49  51
ENDBRANCH   6  49
TORSDOF 18
ENDMDL