MODEL 2
REMARK VINA RESULT: -7.604347721      4.327     10.235
REMARK  11 active torsions:
REMARK  status: ('A' for Active; 'I' for Inactive)
REMARK    1  A    between atoms: C4_4  and  C5_5
REMARK    2  A    between atoms: C6_16  and  N6_17
REMARK    3  A    between atoms: C7_23  and  C8_24
REMARK       I    between atoms: C8_24  and  N8_26
REMARK    4  A    between atoms: N8_26  and  C9_28
REMARK    5  A    between atoms: C9_28  and  C10_29
REMARK       I    between atoms: C10_29  and  N9_31
REMARK    6  A    between atoms: N9_31  and  C11_33
REMARK    7  A    between atoms: C14_36  and  N10_37
REMARK    8  A    between atoms: N11_42  and  C16_43
REMARK    9  A    between atoms: C16_43  and  C17_44
REMARK   10  A    between atoms: C17_44  and  N13_48
REMARK   11  A    between atoms: N13_48  and  N14_50
ROOT
HETATM    1  C8  UNL     1       7.016 -30.808  -4.626  1.00  0.00     0.241 C
HETATM    2  O1  UNL     1       7.959 -30.614  -5.458  1.00  0.00    -0.271 OA
HETATM    3  N8  UNL     1       7.261 -30.552  -3.279  1.00  0.00    -0.351 N
ATOM      4  H8  UNL     1       6.504 -30.711  -2.615  1.00  0.00     0.163 HD
ENDROOT
BRANCH   3   5
HETATM    5  C9  UNL     1       8.507 -30.084  -2.777  1.00  0.00     0.225 C
BRANCH   5   6
HETATM    6  C10 UNL     1       8.455 -28.674  -2.342  1.00  0.00     0.236 C
HETATM    7  O2  UNL     1       7.531 -27.934  -2.757  1.00  0.00    -0.272 OA
HETATM    8  N9  UNL     1       9.445 -28.146  -1.458  1.00  0.00    -0.338 N
ATOM      9  H9  UNL     1      10.204 -28.734  -1.112  1.00  0.00     0.164 HD
BRANCH   8  10
HETATM   10  C11 UNL     1       9.346 -26.767  -1.068  1.00  0.00     0.186 C
HETATM   11  C12 UNL     1      10.756 -26.182  -1.130  1.00  0.00     0.049 C
HETATM   12  C13 UNL     1      10.836 -24.902  -0.331  1.00  0.00     0.038 C
HETATM   13  C14 UNL     1       9.453 -24.306  -0.280  1.00  0.00     0.201 C
HETATM   14  C15 UNL     1       8.564 -25.197   0.551  1.00  0.00     0.157 C
HETATM   15  N11 UNL     1       8.849 -26.591   0.229  1.00  0.00    -0.363 N
BRANCH  13  16
HETATM   16  N10 UNL     1       9.467 -22.940   0.209  1.00  0.00    -0.073 N
ATOM     17 3H10 UNL     1       9.626 -22.910   1.216  1.00  0.00     0.274 HD
ATOM     18 2H10 UNL     1      10.302 -22.444  -0.101  1.00  0.00     0.274 HD
ATOM     19 1H10 UNL     1       8.620 -22.433  -0.047  1.00  0.00     0.274 HD
ENDBRANCH  13  16
BRANCH  15  20
HETATM   20  C16 UNL     1       9.219 -27.375   1.312  1.00  0.00     0.137 C
BRANCH  20  21
HETATM   21  C17 UNL     1       8.223 -28.123   2.064  1.00  0.00     0.129 C
HETATM   22  N12 UNL     1       8.509 -28.619   3.216  1.00  0.00    -0.383 N
ATOM     23 2H12 UNL     1       9.458 -28.493   3.569  1.00  0.00     0.157 HD
ATOM     24 1H12 UNL     1       7.811 -29.144   3.743  1.00  0.00     0.157 HD
BRANCH  21  25
HETATM   25  N13 UNL     1       6.900 -28.299   1.572  1.00  0.00    -0.283 N
ATOM     26  H13 UNL     1       6.173 -27.629   1.825  1.00  0.00     0.188 HD
BRANCH  25  27
HETATM   27  N14 UNL     1       6.589 -29.383   0.744  1.00  0.00    -0.274 N
HETATM   28  C18 UNL     1       5.662 -29.429  -0.120  1.00  0.00     0.215 C
HETATM   29  N15 UNL     1       5.534 -30.653  -0.852  1.00  0.00    -0.065 NA
HETATM   30  N16 UNL     1       4.744 -28.408  -0.439  1.00  0.00    -0.065 NA
ATOM     31  H14 UNL     1       7.164 -30.220   0.846  1.00  0.00     0.189 HD
ENDBRANCH  25  27
ENDBRANCH  21  25
ENDBRANCH  20  21
ENDBRANCH  15  20
ENDBRANCH   8  10
ENDBRANCH   5   6
ENDBRANCH   3   5
BRANCH   1  32
HETATM   32  C7  UNL     1       5.713 -31.298  -5.189  1.00  0.00     0.186 C
HETATM   33  C2  UNL     1       5.228 -30.552  -6.362  1.00  0.00     0.027 C
HETATM   34  C1  UNL     1       5.928 -29.174  -6.474  1.00  0.00     0.024 C
HETATM   35  C3  UNL     1       5.570 -31.295  -7.667  1.00  0.00     0.024 C
HETATM   36  C4  UNL     1       3.802 -30.222  -6.332  1.00  0.00     0.066 C
HETATM   37  N5  UNL     1       3.138 -30.208  -5.237  1.00  0.00    -0.347 N
HETATM   38  C6  UNL     1       3.798 -30.527  -3.970  1.00  0.00     0.383 C
ATOM     39  H5  UNL     1       2.145 -29.974  -5.248  1.00  0.00     0.163 HD
HETATM   40  N7  UNL     1       4.765 -31.539  -4.179  1.00  0.00    -0.366 N
ATOM     41  H7  UNL     1       4.774 -32.397  -3.626  1.00  0.00     0.157 HD
BRANCH  36  42
HETATM   42  C5  UNL     1       3.118 -29.879  -7.599  1.00  0.00     0.160 A
HETATM   43  N1  UNL     1       2.934 -28.637  -8.079  1.00  0.00    -0.267 N
HETATM   44  N2  UNL     1       2.291 -28.737  -9.250  1.00  0.00    -0.227 N
ATOM     45  H1  UNL     1       3.232 -27.771  -7.630  1.00  0.00     0.190 HD
HETATM   46  N3  UNL     1       2.070 -29.998  -9.515  1.00  0.00    -0.227 N
ATOM     47  H2  UNL     1       2.017 -27.953  -9.842  1.00  0.00     0.210 HD
HETATM   48  N4  UNL     1       2.578 -30.690  -8.503  1.00  0.00    -0.267 N
ATOM     49  H3  UNL     1       1.600 -30.376 -10.338  1.00  0.00     0.210 HD
ATOM     50  H4  UNL     1       2.556 -31.707  -8.428  1.00  0.00     0.190 HD
ENDBRANCH  36  42
BRANCH  38  51
HETATM   51  N6  UNL     1       4.300 -29.324  -3.343  1.00  0.00    -0.041 N
ATOM     52  H63 UNL     1       5.260 -29.122  -3.623  1.00  0.00     0.278 HD
ATOM     53  H62 UNL     1       3.854 -28.486  -3.717  1.00  0.00     0.278 HD
ATOM     54  H61 UNL     1       4.205 -29.383  -2.330  1.00  0.00     0.278 HD
ENDBRANCH  38  51
ENDBRANCH   1  32
TORSDOF 11
ENDMDL