MODEL 4
REMARK VINA RESULT: -8.254315086      3.330      4.962
REMARK  11 active torsions:
REMARK  status: ('A' for Active; 'I' for Inactive)
REMARK    1  A    between atoms: C2_2  and  O1_3
REMARK    2  A    between atoms: O1_3  and  C3_4
REMARK    3  A    between atoms: C6_11  and  C7_12
REMARK    4  A    between atoms: C7_12  and  N3_13
REMARK    5  A    between atoms: N3_13  and  N4_15
REMARK    6  A    between atoms: N4_15  and  C8_17
REMARK    7  A    between atoms: C9_19  and  C10_20
REMARK       I    between atoms: C10_20  and  N5_22
REMARK    8  A    between atoms: N5_22  and  C11_24
REMARK    9  A    between atoms: C13_34  and  C14_35
REMARK   10  A    between atoms: C14_35  and  N10_36
REMARK   11  A    between atoms: C14_35  and  N11_40
ROOT
HETATM    1  C8  UNL     1      40.411  22.544  19.036  1.00  0.00     0.114 A
HETATM    2  S1  UNL     1      39.346  22.008  17.784  1.00  0.00    -0.064 SA
HETATM    3  C9  UNL     1      37.974  22.986  17.555  1.00  0.00     0.076 A
HETATM    4  C12 UNL     1      37.909  24.064  18.400  1.00  0.00     0.037 A
HETATM    5  C13 UNL     1      38.823  24.375  19.350  1.00  0.00     0.027 A
HETATM    6  C15 UNL     1      39.974  23.693  19.657  1.00  0.00     0.091 A
HETATM    7  N12 UNL     1      40.831  24.179  20.715  1.00  0.00    -0.099 NA
ENDROOT
BRANCH   1   8
HETATM    8  N4  UNL     1      41.492  21.915  19.335  1.00  0.00    -0.293 N
ATOM      9  H4  UNL     1      41.376  21.086  19.917  1.00  0.00     0.187 HD
BRANCH   8  10
HETATM   10  N3  UNL     1      42.775  22.210  18.975  1.00  0.00    -0.310 N
ATOM     11  H3  UNL     1      43.512  21.614  19.351  1.00  0.00     0.186 HD
BRANCH  10  12
HETATM   12  C7  UNL     1      43.135  23.169  18.206  1.00  0.00     0.125 C
BRANCH  12  13
HETATM   13  C6  UNL     1      43.356  23.025  16.780  1.00  0.00     0.057 A
HETATM   14  C3  UNL     1      44.369  22.274  16.213  1.00  0.00     0.171 A
HETATM   15  N1  UNL     1      44.252  22.386  14.871  1.00  0.00    -0.279 N
HETATM   16  N2  UNL     1      43.220  23.167  14.595  1.00  0.00    -0.302 N
ATOM     17  H1  UNL     1      44.860  21.942  14.183  1.00  0.00     0.189 HD
HETATM   18  C4  UNL     1      42.635  23.585  15.759  1.00  0.00     0.038 A
ATOM     19  H2  UNL     1      42.908  23.419  13.657  1.00  0.00     0.186 HD
HETATM   20  C5  UNL     1      41.456  24.473  15.895  1.00  0.00     0.070 C
BRANCH  14  21
HETATM   21  O1  UNL     1      45.319  21.547  16.917  1.00  0.00    -0.334 OA
BRANCH  21  22
HETATM   22  C2  UNL     1      46.436  22.268  17.419  1.00  0.00     0.173 C
HETATM   23  C1  UNL     1      47.489  22.364  16.322  1.00  0.00     0.034 C
ENDBRANCH  21  22
ENDBRANCH  14  21
ENDBRANCH  12  13
ENDBRANCH  10  12
ENDBRANCH   8  10
ENDBRANCH   1   8
BRANCH   3  24
HETATM   24  C10 UNL     1      36.928  22.740  16.557  1.00  0.00     0.277 C
HETATM   25  O2  UNL     1      35.836  23.349  16.666  1.00  0.00    -0.266 OA
HETATM   26  N5  UNL     1      37.084  21.854  15.482  1.00  0.00    -0.152 N
ATOM     27  H5  UNL     1      37.967  21.908  14.974  1.00  0.00     0.187 HD
BRANCH  26  28
HETATM   28  C11 UNL     1      36.254  21.002  15.076  1.00  0.00     0.716 A
HETATM   29  N6  UNL     1      35.189  21.221  14.296  1.00  0.00    -0.115 N
HETATM   30  N7  UNL     1      34.552  20.076  14.080  1.00  0.00    -0.213 N
ATOM     31  H6  UNL     1      34.910  22.130  13.924  1.00  0.00     0.207 HD
HETATM   32  N8  UNL     1      35.198  19.124  14.715  1.00  0.00    -0.213 N
ATOM     33  H7  UNL     1      33.708  19.956  13.520  1.00  0.00     0.210 HD
HETATM   34  N9  UNL     1      36.250  19.688  15.332  1.00  0.00    -0.115 N
ATOM     35  H8  UNL     1      34.945  18.136  14.736  1.00  0.00     0.210 HD
ATOM     36  H9  UNL     1      36.936  19.194  15.903  1.00  0.00     0.207 HD
ENDBRANCH  26  28
ENDBRANCH   3  24
BRANCH   5  37
HETATM   37  C14 UNL     1      38.547  25.613  20.167  1.00  0.00     0.413 C
BRANCH  37  38
HETATM   38  N10 UNL     1      37.376  26.300  19.657  1.00  0.00    -0.046 N
ATOM     39 3H10 UNL     1      36.555  25.693  19.642  1.00  0.00     0.277 HD
ATOM     40 2H10 UNL     1      37.030  27.002  20.312  1.00  0.00     0.277 HD
ATOM     41 1H10 UNL     1      37.572  26.699  18.739  1.00  0.00     0.277 HD
ENDBRANCH  37  38
BRANCH  37  42
HETATM   42  N11 UNL     1      38.254  25.234  21.538  1.00  0.00    -0.046 N
ATOM     43 3H11 UNL     1      37.697  24.381  21.592  1.00  0.00     0.277 HD
ATOM     44 2H11 UNL     1      39.081  24.899  22.031  1.00  0.00     0.277 HD
ATOM     45 1H11 UNL     1      37.809  26.016  22.019  1.00  0.00     0.277 HD
ENDBRANCH  37  42
ENDBRANCH   5  37
TORSDOF 11
ENDMDL