MODEL 2
REMARK VINA RESULT: -9.769587683      2.169      3.750
REMARK  9 active torsions:
REMARK  status: ('A' for Active; 'I' for Inactive)
REMARK    1  A    between atoms: N3_11  and  C7_12
REMARK    2  A    between atoms: C8_15  and  N5_16
REMARK    3  A    between atoms: N5_16  and  C9_18
REMARK    4  A    between atoms: C9_18  and  C10_19
REMARK    5  A    between atoms: C10_19  and  O1_20
REMARK    6  A    between atoms: C10_19  and  C11_22
REMARK    7  A    between atoms: C11_22  and  N6_23
REMARK    8  A    between atoms: C13_25  and  C14_26
REMARK    9  A    between atoms: C15_41  and  N14_42
ROOT
HETATM    1  C7  UNL     1      39.077  22.997  17.232  1.00  0.00     0.719 A
HETATM    2  N4  UNL     1      40.384  22.838  17.481  1.00  0.00    -0.021 N
ATOM      3  H4  UNL     1      41.044  23.111  16.754  1.00  0.00     0.203 HD
HETATM    4  C8  UNL     1      40.883  22.338  18.639  1.00  0.00     0.707 A
HETATM    5  N13 UNL     1      39.982  21.996  19.561  1.00  0.00    -0.022 N
ATOM      6  H13 UNL     1      40.311  21.615  20.448  1.00  0.00     0.203 HD
HETATM    7  C15 UNL     1      38.631  22.133  19.368  1.00  0.00     0.705 A
HETATM    8  N15 UNL     1      38.222  22.632  18.203  1.00  0.00    -0.021 N
ATOM      9  H15 UNL     1      37.220  22.742  18.041  1.00  0.00     0.203 HD
ENDROOT
BRANCH   4  10
HETATM   10  N5  UNL     1      42.132  22.207  18.826  1.00  0.00    -0.223 N
ATOM     11  H5  UNL     1      42.389  21.450  19.458  1.00  0.00     0.177 HD
BRANCH  10  12
HETATM   12  C9  UNL     1      43.230  22.938  18.303  1.00  0.00     0.171 C
BRANCH  12  13
HETATM   13  C10 UNL     1      44.037  22.161  17.280  1.00  0.00     0.156 C
BRANCH  13  14
HETATM   14  O1  UNL     1      43.283  22.204  16.090  1.00  0.00    -0.392 OA
ATOM     15  H1  UNL     1      42.667  21.484  16.151  1.00  0.00     0.210 HD
ENDBRANCH  13  14
BRANCH  13  16
HETATM   16  C11 UNL     1      45.407  22.703  17.075  1.00  0.00     0.183 C
BRANCH  16  17
HETATM   17  N6  UNL     1      46.233  21.693  16.445  1.00  0.00    -0.284 N
HETATM   18  C12 UNL     1      47.277  21.051  17.038  1.00  0.00     0.146 A
HETATM   19  C13 UNL     1      47.831  20.160  16.148  1.00  0.00     0.113 A
HETATM   20  N11 UNL     1      47.108  20.279  15.023  1.00  0.00    -0.281 N
HETATM   21  N12 UNL     1      46.171  21.192  15.229  1.00  0.00    -0.240 N
ATOM     22  H11 UNL     1      47.256  19.756  14.159  1.00  0.00     0.188 HD
ATOM     23  H12 UNL     1      45.483  21.474  14.529  1.00  0.00     0.208 HD
BRANCH  19  24
HETATM   24  C14 UNL     1      48.959  19.253  16.322  1.00  0.00     0.167 A
HETATM   25  N7  UNL     1      50.085  19.175  15.596  1.00  0.00    -0.267 N
HETATM   26  N8  UNL     1      50.855  18.221  16.079  1.00  0.00    -0.227 N
ATOM     27  H7  UNL     1      50.311  19.763  14.793  1.00  0.00     0.190 HD
HETATM   28  N9  UNL     1      50.241  17.686  17.104  1.00  0.00    -0.227 N
ATOM     29  H8  UNL     1      51.770  17.948  15.719  1.00  0.00     0.210 HD
HETATM   30  N10 UNL     1      49.081  18.295  17.276  1.00  0.00    -0.267 N
ATOM     31  H9  UNL     1      50.600  16.921  17.676  1.00  0.00     0.210 HD
ATOM     32  H10 UNL     1      48.396  18.083  18.002  1.00  0.00     0.190 HD
ENDBRANCH  19  24
ENDBRANCH  16  17
ENDBRANCH  13  16
ENDBRANCH  12  13
ENDBRANCH  10  12
ENDBRANCH   4  10
BRANCH   1  33
HETATM   33  N3  UNL     1      38.606  23.532  15.986  1.00  0.00    -0.132 N
HETATM   34  C2  UNL     1      38.488  22.859  14.827  1.00  0.00     0.103 A
HETATM   35  C1  UNL     1      38.805  21.432  14.549  1.00  0.00     0.090 C
HETATM   36  N1  UNL     1      38.011  23.693  13.867  1.00  0.00    -0.330 N
HETATM   37  C3  UNL     1      37.820  24.913  14.409  1.00  0.00     0.135 A
ATOM     38  H1  UNL     1      37.827  23.439  12.896  1.00  0.00     0.168 HD
HETATM   39  N2  UNL     1      37.410  26.170  14.153  1.00  0.00    -0.350 N
HETATM   40  C6  UNL     1      38.199  24.789  15.735  1.00  0.00     0.103 A
HETATM   41  C4  UNL     1      37.517  26.872  15.296  1.00  0.00     0.092 A
ATOM     42  H2  UNL     1      37.080  26.525  13.255  1.00  0.00     0.166 HD
HETATM   43  C5  UNL     1      38.006  26.034  16.294  1.00  0.00     0.051 A
ENDBRANCH   1  33
BRANCH   7  44
HETATM   44  N14 UNL     1      37.833  21.776  20.313  1.00  0.00    -0.234 N
ATOM     45 2H14 UNL     1      38.074  21.091  21.030  1.00  0.00     0.174 HD
ATOM     46 1H14 UNL     1      36.904  22.197  20.354  1.00  0.00     0.174 HD
ENDBRANCH   7  44
TORSDOF 9
ENDMDL