MODEL 4
REMARK VINA RESULT: -8.995766801      5.500      9.660
REMARK  11 active torsions:
REMARK  status: ('A' for Active; 'I' for Inactive)
REMARK    1  A    between atoms: C1_2  and  O2_4
REMARK    2  A    between atoms: O2_4  and  N2_5
REMARK    3  A    between atoms: C2_7  and  C3_8
REMARK    4  A    between atoms: C5_10  and  C6_11
REMARK    5  A    between atoms: C6_11  and  O3_12
REMARK    6  A    between atoms: C6_11  and  N3_14
REMARK    7  A    between atoms: N3_14  and  C7_16
REMARK    8  A    between atoms: C11_21  and  S1_22
REMARK    9  A    between atoms: C12_24  and  N4_25
REMARK   10  A    between atoms: N6_31  and  O5_32
REMARK   11  A    between atoms: C14_35  and  O7_36
ROOT
HETATM    1  N3  UNL     1      42.038  22.846  18.175  1.00  0.00    -0.342 N
ATOM      2  H3  UNL     1      42.191  22.027  18.762  1.00  0.00     0.164 HD
ENDROOT
BRANCH   1   3
HETATM    3  C6  UNL     1      43.033  23.243  17.174  1.00  0.00     0.278 C
BRANCH   3   4
HETATM    4  C5  UNL     1      44.348  22.621  17.476  1.00  0.00     0.105 A
HETATM    5  C4  UNL     1      45.261  22.085  16.591  1.00  0.00     0.055 A
HETATM    6  C3  UNL     1      46.342  21.621  17.332  1.00  0.00     0.042 A
HETATM    7  C14 UNL     1      46.014  21.909  18.639  1.00  0.00     0.195 A
HETATM    8  O6  UNL     1      44.841  22.494  18.687  1.00  0.00    -0.287 OA
BRANCH   6   9
HETATM    9  C2  UNL     1      47.558  20.972  16.833  1.00  0.00     0.131 C
HETATM   10  N2  UNL     1      47.444  19.867  16.201  1.00  0.00    -0.267 N
ATOM     11  H2  UNL     1      46.522  19.457  16.054  1.00  0.00     0.194 HD
BRANCH  10  12
HETATM   12  O2  UNL     1      48.559  19.234  15.720  1.00  0.00    -0.184 OA
BRANCH  12  13
HETATM   13  C1  UNL     1      49.584  18.763  16.511  1.00  0.00     0.394 C
HETATM   14  N1  UNL     1      50.852  19.376  16.439  1.00  0.00    -0.031 NA
HETATM   15  O1  UNL     1      49.372  17.808  17.273  1.00  0.00    -0.240 OA
ENDBRANCH  12  13
ENDBRANCH  10  12
ENDBRANCH   6   9
BRANCH   7  16
HETATM   16  O7  UNL     1      46.792  21.631  19.735  1.00  0.00    -0.340 OA
ATOM     17  H7  UNL     1      46.513  21.700  20.641  1.00  0.00     0.220 HD
ENDBRANCH   7  16
ENDBRANCH   3   4
BRANCH   3  18
HETATM   18  O3  UNL     1      42.548  22.732  15.948  1.00  0.00    -0.370 OA
ATOM     19  H3  UNL     1      41.685  23.090  15.781  1.00  0.00     0.212 HD
ENDBRANCH   3  18
ENDBRANCH   1   3
BRANCH   1  20
HETATM   20  C7  UNL     1      40.857  23.625  18.313  1.00  0.00     0.151 A
HETATM   21  C8  UNL     1      40.228  24.201  19.337  1.00  0.00     0.106 A
HETATM   22  C9  UNL     1      40.386  24.334  20.699  1.00  0.00     0.191 A
HETATM   23  C13 UNL     1      39.239  24.694  18.526  1.00  0.00     0.154 A
HETATM   24  O4  UNL     1      41.353  23.761  21.259  1.00  0.00    -0.287 OA
HETATM   25  C10 UNL     1      39.589  25.046  21.598  1.00  0.00     0.079 A
HETATM   26  C11 UNL     1      38.445  25.742  21.299  1.00  0.00     0.059 A
HETATM   27  C12 UNL     1      37.826  25.961  20.091  1.00  0.00     0.118 A
HETATM   28  N5  UNL     1      38.171  25.442  18.907  1.00  0.00    -0.325 N
ATOM     29  H5  UNL     1      37.512  25.644  18.155  1.00  0.00     0.169 HD
HETATM   30  N6  UNL     1      39.819  24.151  17.511  1.00  0.00    -0.189 N
BRANCH  26  31
HETATM   31  S1  UNL     1      37.630  26.478  22.701  1.00  0.00    -0.042 SA
HETATM   32  S2  UNL     1      39.064  27.397  23.986  1.00  0.00    -0.007 SA
ENDBRANCH  26  31
BRANCH  27  33
HETATM   33  N4  UNL     1      36.818  26.748  20.145  1.00  0.00    -0.384 N
ATOM     34  H42 UNL     1      36.864  27.635  19.642  1.00  0.00     0.157 HD
ATOM     35  H41 UNL     1      36.040  26.402  20.706  1.00  0.00     0.157 HD
ENDBRANCH  27  33
BRANCH  30  36
HETATM   36  O5  UNL     1      39.536  24.103  16.170  1.00  0.00    -0.279 OA
ATOM     37  H5  UNL     1      39.258  23.413  15.579  1.00  0.00     0.245 HD
ENDBRANCH  30  36
ENDBRANCH   1  20
TORSDOF 11
ENDMDL