MODEL 4
REMARK VINA RESULT: -8.210106321      2.618      4.679
REMARK  11 active torsions:
REMARK  status: ('A' for Active; 'I' for Inactive)
REMARK    1  A    between atoms: N1_1  and  N2_4
REMARK       I    between atoms: N2_4  and  C1_6
REMARK    2  A    between atoms: C1_6  and  O2_8
REMARK    3  A    between atoms: O2_8  and  C2_9
REMARK    4  A    between atoms: C2_9  and  C3_11
REMARK    5  A    between atoms: C3_11  and  C4_12
REMARK    6  A    between atoms: C4_12  and  S1_13
REMARK    7  A    between atoms: S1_13  and  C5_14
REMARK    8  A    between atoms: C5_14  and  C6_15
REMARK    9  A    between atoms: C7_16  and  C8_17
REMARK   10  A    between atoms: C9_18  and  O4_19
REMARK   11  A    between atoms: N5_32  and  N6_33
ROOT
HETATM    1  C6  UNL     1      41.272  23.606  18.573  1.00  0.00     0.063 A
HETATM    2  C7  UNL     1      40.737  24.206  17.477  1.00  0.00     0.053 A
HETATM    3  S2  UNL     1      39.375  25.054  18.201  1.00  0.00    -0.056 SA
HETATM    4  C12 UNL     1      39.601  24.583  19.798  1.00  0.00     0.164 A
HETATM    5  S3  UNL     1      38.701  24.979  21.148  1.00  0.00    -0.050 SA
HETATM    6  N5  UNL     1      40.682  23.810  19.742  1.00  0.00    -0.247 N
ENDROOT
BRANCH   1   7
HETATM    7  C5  UNL     1      42.517  22.726  18.476  1.00  0.00     0.134 C
BRANCH   7   8
HETATM    8  S1  UNL     1      43.980  23.673  17.934  1.00  0.00    -0.163 SA
BRANCH   8   9
HETATM    9  C4  UNL     1      44.931  22.651  16.784  1.00  0.00     0.084 C
BRANCH   9  10
HETATM   10  C3  UNL     1      46.373  22.509  17.226  1.00  0.00     0.121 C
BRANCH  10  11
HETATM   11  C2  UNL     1      46.480  21.389  18.195  1.00  0.00     0.268 C
HETATM   12  O3  UNL     1      46.551  21.627  19.448  1.00  0.00    -0.265 OA
BRANCH  11  13
HETATM   13  O2  UNL     1      46.509  20.075  17.802  1.00  0.00    -0.226 OA
BRANCH  13  14
HETATM   14  C1  UNL     1      47.440  19.502  16.966  1.00  0.00     0.386 C
HETATM   15  N2  UNL     1      47.561  19.861  15.598  1.00  0.00    -0.252 N
ATOM     16  H2  UNL     1      46.933  20.570  15.222  1.00  0.00     0.191 HD
HETATM   17  O1  UNL     1      48.211  18.625  17.455  1.00  0.00    -0.236 OA
BRANCH  15  18
HETATM   18  N1  UNL     1      48.504  19.284  14.750  1.00  0.00    -0.341 N
ATOM     19  H12 UNL     1      49.488  19.375  15.005  1.00  0.00     0.177 HD
ATOM     20  H11 UNL     1      48.246  18.784  13.898  1.00  0.00     0.177 HD
ENDBRANCH  15  18
ENDBRANCH  13  14
ENDBRANCH  11  13
ENDBRANCH  10  11
ENDBRANCH   9  10
ENDBRANCH   8   9
ENDBRANCH   7   8
ENDBRANCH   1   7
BRANCH   2  21
HETATM   21  C8  UNL     1      40.953  24.183  16.016  1.00  0.00     0.102 A
HETATM   22  C9  UNL     1      40.258  23.131  15.342  1.00  0.00     0.161 A
HETATM   23  N3  UNL     1      40.348  23.079  14.018  1.00  0.00    -0.288 N
HETATM   24  C10 UNL     1      41.058  23.969  13.307  1.00  0.00     0.329 A
ATOM     25  H3  UNL     1      39.859  22.335  13.522  1.00  0.00     0.172 HD
HETATM   26  O5  UNL     1      41.094  23.849  12.042  1.00  0.00    -0.247 OA
HETATM   27  N4  UNL     1      41.717  24.963  13.898  1.00  0.00    -0.275 N
HETATM   28  C11 UNL     1      41.659  25.069  15.274  1.00  0.00     0.265 A
ATOM     29  H4  UNL     1      42.254  25.633  13.347  1.00  0.00     0.173 HD
HETATM   30  O6  UNL     1      42.298  26.037  15.755  1.00  0.00    -0.267 OA
BRANCH  22  31
HETATM   31  O4  UNL     1      39.531  22.220  16.079  1.00  0.00    -0.345 OA
ATOM     32  H4  UNL     1      39.109  21.494  15.636  1.00  0.00     0.219 HD
ENDBRANCH  22  31
ENDBRANCH   2  21
BRANCH   6  33
HETATM   33  N6  UNL     1      41.117  23.259  21.009  1.00  0.00    -0.337 N
ATOM     34  H62 UNL     1      41.616  22.370  20.951  1.00  0.00     0.177 HD
ATOM     35  H61 UNL     1      40.960  23.684  21.922  1.00  0.00     0.177 HD
ENDBRANCH   6  33
TORSDOF 11
ENDMDL