MODEL 5
REMARK VINA RESULT: -9.876725786      2.587      3.535
REMARK  5 active torsions:
REMARK  status: ('A' for Active; 'I' for Inactive)
REMARK       I    between atoms: C2_2  and  N1_4
REMARK    1  A    between atoms: N1_4  and  C3_5
REMARK    2  A    between atoms: C3_5  and  C4_6
REMARK    3  A    between atoms: C4_6  and  C5_7
REMARK    4  A    between atoms: C6_10  and  C7_11
REMARK    5  A    between atoms: N5_16  and  C8_17
REMARK       I    between atoms: N11_35  and  C13_37
ROOT
HETATM    1  C5  UNL     1      39.323  23.911  14.654  1.00  0.00     0.031 A
HETATM    2  N2  UNL     1      40.546  23.526  15.133  1.00  0.00    -0.355 N
ATOM      3  H2  UNL     1      40.867  22.590  14.884  1.00  0.00     0.166 HD
HETATM    4  C6  UNL     1      41.349  24.257  15.888  1.00  0.00     0.081 A
HETATM    5  C10 UNL     1      40.902  25.510  16.212  1.00  0.00     0.054 A
HETATM    6  C11 UNL     1      39.650  25.955  15.748  1.00  0.00     0.040 A
HETATM    7  S1  UNL     1      38.747  27.387  15.934  1.00  0.00    -0.012 SA
HETATM    8  N10 UNL     1      37.391  26.974  15.040  1.00  0.00    -0.311 N
ATOM      9  H10 UNL     1      36.560  27.538  14.866  1.00  0.00     0.176 HD
HETATM   10  C12 UNL     1      37.649  25.741  14.609  1.00  0.00     0.127 A
HETATM   11  N11 UNL     1      36.746  25.121  13.873  1.00  0.00    -0.316 N
ATOM     12  H11 UNL     1      36.946  24.177  13.544  1.00  0.00     0.170 HD
HETATM   13  C13 UNL     1      35.517  25.714  13.525  1.00  0.00     0.187 C
HETATM   14  N12 UNL     1      34.424  25.256  13.997  1.00  0.00    -0.373 N
ATOM     15 1H12 UNL     1      33.534  25.685  13.745  1.00  0.00     0.158 HD
ATOM     16 2H12 UNL     1      34.431  24.458  14.633  1.00  0.00     0.158 HD
HETATM   17  N13 UNL     1      35.507  26.843  12.626  1.00  0.00    -0.064 NA
HETATM   18  C14 UNL     1      38.826  25.172  14.959  1.00  0.00     0.050 A
ENDROOT
BRANCH   4  19
HETATM   19  C7  UNL     1      42.641  23.758  16.344  1.00  0.00     0.165 A
HETATM   20  N3  UNL     1      43.271  24.121  17.507  1.00  0.00    -0.266 N
HETATM   21  N4  UNL     1      44.403  23.452  17.559  1.00  0.00    -0.218 N
ATOM     22  H3  UNL     1      42.926  24.784  18.201  1.00  0.00     0.190 HD
HETATM   23  N5  UNL     1      44.554  22.672  16.498  1.00  0.00    -0.158 N
ATOM     24  H4  UNL     1      45.079  23.525  18.320  1.00  0.00     0.210 HD
HETATM   25  N9  UNL     1      43.467  22.879  15.778  1.00  0.00    -0.258 N
ATOM     26  H9  UNL     1      43.281  22.417  14.888  1.00  0.00     0.191 HD
BRANCH  23  27
HETATM   27  C8  UNL     1      45.658  21.818  16.240  1.00  0.00     0.214 A
HETATM   28  N6  UNL     1      46.542  21.298  17.108  1.00  0.00    -0.219 N
HETATM   29  O2  UNL     1      47.399  20.562  16.459  1.00  0.00    -0.153 OA
ATOM     30  H6  UNL     1      46.542  21.455  18.115  1.00  0.00     0.198 HD
HETATM   31  N7  UNL     1      47.145  20.550  15.185  1.00  0.00    -0.222 N
HETATM   32  C9  UNL     1      46.050  21.333  15.007  1.00  0.00     0.171 A
ATOM     33  H7  UNL     1      47.665  20.052  14.463  1.00  0.00     0.198 HD
HETATM   34  N8  UNL     1      45.465  21.596  13.890  1.00  0.00    -0.381 N
ATOM     35  H82 UNL     1      44.642  22.184  13.756  1.00  0.00     0.157 HD
ATOM     36  H81 UNL     1      45.756  21.239  12.980  1.00  0.00     0.157 HD
ENDBRANCH  23  27
ENDBRANCH   4  19
BRANCH   1  37
HETATM   37  C4  UNL     1      38.685  22.913  13.791  1.00  0.00     0.117 C
BRANCH  37  38
HETATM   38  C3  UNL     1      38.265  21.631  14.495  1.00  0.00     0.165 C
BRANCH  38  39
HETATM   39  N1  UNL     1      38.396  21.693  15.849  1.00  0.00    -0.388 NA
HETATM   40  C2  UNL     1      38.527  21.753  17.188  1.00  0.00     0.286 C
HETATM   41  C1  UNL     1      37.682  22.802  17.925  1.00  0.00     0.135 C
HETATM   42  O1  UNL     1      39.254  21.073  17.983  1.00  0.00    -0.258 OA
ENDBRANCH  38  39
ENDBRANCH  37  38
ENDBRANCH   1  37
TORSDOF 5
ENDMDL