MODEL 1
REMARK VINA RESULT: -10.082620899      0.000      0.000
REMARK  7 active torsions:
REMARK  status: ('A' for Active; 'I' for Inactive)
REMARK       I    between atoms: N1_2  and  C2_4
REMARK    1  A    between atoms: C2_4  and  C3_6
REMARK    2  A    between atoms: C4_7  and  C5_8
REMARK    3  A    between atoms: C6_11  and  N3_12
REMARK       I    between atoms: N3_12  and  C7_14
REMARK    4  A    between atoms: C9_23  and  O3_24
REMARK    5  A    between atoms: N9_30  and  C10_31
REMARK    6  A    between atoms: C10_31  and  C11_32
REMARK    7  A    between atoms: C12_37  and  S1_38
ROOT
HETATM    1  C3  UNL     1      42.446  23.187  16.152  1.00  0.00     0.150 A
HETATM    2  C4  UNL     1      43.708  22.794  15.882  1.00  0.00     0.113 A
HETATM    3  N7  UNL     1      43.830  23.095  14.520  1.00  0.00    -0.281 N
ATOM      4  H7  UNL     1      44.666  22.936  13.958  1.00  0.00     0.188 HD
HETATM    5  N8  UNL     1      42.732  23.602  14.084  1.00  0.00    -0.239 N
ATOM      6  H8  UNL     1      42.584  23.898  13.119  1.00  0.00     0.208 HD
HETATM    7  N9  UNL     1      41.831  23.692  15.017  1.00  0.00    -0.263 N
ENDROOT
BRANCH   2   8
HETATM    8  C5  UNL     1      44.823  22.237  16.614  1.00  0.00     0.118 A
HETATM    9  N2  UNL     1      45.655  21.380  15.912  1.00  0.00    -0.186 N
HETATM   10  C6  UNL     1      46.677  20.746  16.490  1.00  0.00     0.688 A
ATOM     11  H2  UNL     1      45.480  21.229  14.918  1.00  0.00     0.184 HD
HETATM   12  N6  UNL     1      46.986  20.878  17.786  1.00  0.00    -0.153 N
HETATM   13  C8  UNL     1      46.235  21.680  18.523  1.00  0.00     0.295 A
ATOM     14  H6  UNL     1      47.776  20.377  18.192  1.00  0.00     0.187 HD
HETATM   15  O2  UNL     1      46.475  21.845  19.746  1.00  0.00    -0.265 OA
HETATM   16  C9  UNL     1      45.155  22.349  17.914  1.00  0.00     0.165 A
BRANCH  10  17
HETATM   17  N3  UNL     1      47.431  19.950  15.769  1.00  0.00    -0.164 N
HETATM   18  C7  UNL     1      48.592  19.396  16.349  1.00  0.00     0.200 C
HETATM   19  N4  UNL     1      49.705  20.024  16.185  1.00  0.00    -0.373 N
HETATM   20  N5  UNL     1      48.615  18.196  17.100  1.00  0.00    -0.063 NA
ATOM     21  H42 UNL     1      49.688  20.889  15.644  1.00  0.00     0.158 HD
ATOM     22  H41 UNL     1      50.544  19.624  16.604  1.00  0.00     0.158 HD
ATOM     23  H3  UNL     1      47.181  19.735  14.804  1.00  0.00     0.187 HD
ENDBRANCH  10  17
BRANCH  16  24
HETATM   24  O3  UNL     1      44.440  23.139  18.766  1.00  0.00    -0.354 OA
ATOM     25  H3  UNL     1      44.086  22.798  19.578  1.00  0.00     0.218 HD
ENDBRANCH  16  24
ENDBRANCH   2   8
BRANCH   1  26
HETATM   26  C2  UNL     1      41.747  23.276  17.405  1.00  0.00     0.271 C
HETATM   27  N1  UNL     1      41.832  24.459  18.209  1.00  0.00    -0.360 N
HETATM   28  C1  UNL     1      41.135  24.537  19.456  1.00  0.00     0.149 C
ATOM     29  H1  UNL     1      42.392  25.249  17.890  1.00  0.00     0.162 HD
HETATM   30  O1  UNL     1      41.040  22.338  17.856  1.00  0.00    -0.266 OA
ENDBRANCH   1  26
BRANCH   7  31
HETATM   31  C10 UNL     1      40.508  24.216  14.885  1.00  0.00     0.229 C
BRANCH  31  32
HETATM   32  C11 UNL     1      39.460  23.169  14.695  1.00  0.00     0.120 A
HETATM   33  N10 UNL     1      39.719  21.876  14.330  1.00  0.00    -0.285 N
HETATM   34  N11 UNL     1      38.569  21.243  14.291  1.00  0.00    -0.278 N
ATOM     35  H10 UNL     1      40.635  21.477  14.126  1.00  0.00     0.188 HD
HETATM   36  C12 UNL     1      37.594  22.090  14.619  1.00  0.00     0.162 A
ATOM     37  H11 UNL     1      38.442  20.261  14.048  1.00  0.00     0.189 HD
HETATM   38  N12 UNL     1      38.167  23.281  14.867  1.00  0.00    -0.318 N
HETATM   39  C14 UNL     1      37.403  24.474  15.286  1.00  0.00     0.160 C
BRANCH  36  40
HETATM   40  S1  UNL     1      35.832  21.757  14.726  1.00  0.00    -0.097 SA
HETATM   41  C13 UNL     1      35.650  19.983  15.054  1.00  0.00     0.099 C
ENDBRANCH  36  40
ENDBRANCH  31  32
ENDBRANCH   7  31
TORSDOF 7
ENDMDL