MODEL 4
REMARK VINA RESULT: -8.922359184      2.474      4.595
REMARK  8 active torsions:
REMARK  status: ('A' for Active; 'I' for Inactive)
REMARK    1  A    between atoms: C2_3  and  O1_4
REMARK    2  A    between atoms: O1_4  and  N2_5
REMARK    3  A    between atoms: C3_7  and  C4_8
REMARK    4  A    between atoms: C3_7  and  N5_18
REMARK    5  A    between atoms: C4_8  and  C5_9
REMARK    6  A    between atoms: C7_12  and  N3_13
REMARK    7  A    between atoms: N5_18  and  O2_20
REMARK    8  A    between atoms: O2_20  and  C8_21
ROOT
HETATM    1  N1  UNL     1      46.444  21.832  19.505  1.00  0.00    -0.195 NA
HETATM    2  C1  UNL     1      45.661  22.107  18.682  1.00  0.00     0.087 C
HETATM    3  C2  UNL     1      44.676  22.470  17.663  1.00  0.00     0.324 C
ENDROOT
BRANCH   3   4
HETATM    4  O1  UNL     1      43.614  23.187  18.265  1.00  0.00    -0.265 OA
BRANCH   4   5
HETATM    5  N2  UNL     1      42.483  22.611  18.741  1.00  0.00    -0.252 N
HETATM    6  C3  UNL     1      41.334  22.691  18.159  1.00  0.00     0.127 C
ATOM      7  H2  UNL     1      42.544  22.082  19.611  1.00  0.00     0.196 HD
BRANCH   6   8
HETATM    8  C4  UNL     1      40.163  22.016  18.777  1.00  0.00     0.137 C
BRANCH   8   9
HETATM    9  C5  UNL     1      39.086  23.074  18.969  1.00  0.00     0.025 A
HETATM   10  C6  UNL     1      39.253  24.044  19.917  1.00  0.00     0.078 A
HETATM   11  S1  UNL     1      37.822  24.957  19.747  1.00  0.00    -0.064 SA
HETATM   12  C7  UNL     1      37.101  24.058  18.491  1.00  0.00     0.142 A
HETATM   13  N4  UNL     1      37.991  23.095  18.257  1.00  0.00    -0.340 N
ATOM     14  H4  UNL     1      37.823  22.391  17.538  1.00  0.00     0.168 HD
BRANCH  12  15
HETATM   15  N3  UNL     1      35.947  24.243  17.880  1.00  0.00    -0.380 N
ATOM     16  H32 UNL     1      35.783  24.751  17.011  1.00  0.00     0.158 HD
ATOM     17  H31 UNL     1      35.013  23.928  18.145  1.00  0.00     0.158 HD
ENDBRANCH  12  15
ENDBRANCH   8   9
ENDBRANCH   6   8
BRANCH   6  18
HETATM   18  N5  UNL     1      41.123  23.398  16.941  1.00  0.00    -0.249 N
ATOM     19  H5  UNL     1      40.754  24.348  16.992  1.00  0.00     0.196 HD
BRANCH  18  20
HETATM   20  O2  UNL     1      41.383  22.878  15.724  1.00  0.00    -0.244 OA
BRANCH  20  21
HETATM   21  C8  UNL     1      40.218  22.796  15.011  1.00  0.00     0.315 C
HETATM   22  C9  UNL     1      39.535  24.146  15.084  1.00  0.00     0.198 C
HETATM   23  N6  UNL     1      38.124  24.020  14.796  1.00  0.00    -0.280 N
HETATM   24  C10 UNL     1      37.436  25.208  14.427  1.00  0.00     0.390 A
HETATM   25  C14 UNL     1      37.384  22.812  14.852  1.00  0.00     0.138 A
HETATM   26  O3  UNL     1      37.999  26.329  14.348  1.00  0.00    -0.236 OA
HETATM   27  O4  UNL     1      36.069  25.108  14.143  1.00  0.00    -0.179 OA
HETATM   28  N7  UNL     1      35.404  23.910  14.214  1.00  0.00    -0.237 N
HETATM   29  C11 UNL     1      35.937  22.792  14.536  1.00  0.00     0.172 A
ATOM     30  H7  UNL     1      34.408  23.911  13.992  1.00  0.00     0.197 HD
HETATM   31  N8  UNL     1      35.219  21.572  14.599  1.00  0.00    -0.173 N
HETATM   32  C12 UNL     1      35.883  20.377  14.963  1.00  0.00     0.679 A
ATOM     33  H8  UNL     1      34.223  21.554  14.382  1.00  0.00     0.186 HD
HETATM   34  N9  UNL     1      35.294  19.225  15.043  1.00  0.00    -0.234 N
HETATM   35  N10 UNL     1      37.275  20.471  15.254  1.00  0.00    -0.168 N
ATOM     36  H92 UNL     1      34.298  19.158  14.834  1.00  0.00     0.174 HD
ATOM     37  H91 UNL     1      35.773  18.364  15.305  1.00  0.00     0.174 HD
HETATM   38  C13 UNL     1      38.007  21.701  15.192  1.00  0.00     0.191 A
ATOM     39  H10 UNL     1      37.774  19.622  15.520  1.00  0.00     0.186 HD
HETATM   40  O5  UNL     1      39.358  21.764  15.479  1.00  0.00    -0.298 OA
ENDBRANCH  20  21
ENDBRANCH  18  20
ENDBRANCH   6  18
ENDBRANCH   4   5
ENDBRANCH   3   4
TORSDOF 8
ENDMDL