MODEL 4
REMARK VINA RESULT: -9.540550277      1.987     12.350
REMARK  9 active torsions:
REMARK  status: ('A' for Active; 'I' for Inactive)
REMARK       I    between atoms: C1_2  and  N1_3
REMARK    1  A    between atoms: C1_2  and  C9_17
REMARK    2  A    between atoms: N1_3  and  N2_5
REMARK    3  A    between atoms: C2_7  and  C3_8
REMARK    4  A    between atoms: C6_11  and  N3_12
REMARK       I    between atoms: C9_17  and  N4_19
REMARK    5  A    between atoms: N4_19  and  N5_21
REMARK    6  A    between atoms: C10_23  and  C11_24
REMARK    7  A    between atoms: C12_25  and  C13_26
REMARK    8  A    between atoms: C15_32  and  O9_33
REMARK    9  A    between atoms: C16_35  and  O10_36
ROOT
HETATM    1  C9  UNL     1      39.668  25.045  14.616  1.00  0.00     0.329 C
HETATM    2  O4  UNL     1      39.644  26.242  14.964  1.00  0.00    -0.261 OA
HETATM    3  N4  UNL     1      38.543  24.348  14.117  1.00  0.00    -0.262 N
ATOM      4  H4  UNL     1      38.719  23.374  13.873  1.00  0.00     0.190 HD
ENDROOT
BRANCH   3   5
HETATM    5  N5  UNL     1      37.261  24.766  13.910  1.00  0.00    -0.308 N
HETATM    6  C10 UNL     1      36.362  25.256  14.574  1.00  0.00     0.124 C
ATOM      7  H5  UNL     1      36.978  24.633  12.939  1.00  0.00     0.186 HD
BRANCH   6   8
HETATM    8  C11 UNL     1      35.001  25.701  14.314  1.00  0.00     0.058 A
HETATM    9  C12 UNL     1      34.734  26.741  13.452  1.00  0.00     0.170 A
HETATM   10  O7  UNL     1      33.461  27.070  13.198  1.00  0.00    -0.265 OA
HETATM   11  C14 UNL     1      32.451  26.459  13.724  1.00  0.00     0.325 A
HETATM   12  O8  UNL     1      31.252  26.793  13.463  1.00  0.00    -0.257 OA
HETATM   13  C15 UNL     1      32.616  25.414  14.596  1.00  0.00     0.176 A
HETATM   14  C16 UNL     1      33.937  25.043  14.883  1.00  0.00     0.119 A
BRANCH   9  15
HETATM   15  C13 UNL     1      35.668  27.572  12.757  1.00  0.00     0.235 C
HETATM   16  O5  UNL     1      36.728  27.936  13.402  1.00  0.00    -0.642 OA
HETATM   17  O6  UNL     1      35.635  28.053  11.506  1.00  0.00    -0.642 OA
ENDBRANCH   9  15
BRANCH  13  18
HETATM   18  O9  UNL     1      31.595  24.726  15.187  1.00  0.00    -0.353 OA
ATOM     19  H9  UNL     1      31.690  23.889  15.626  1.00  0.00     0.218 HD
ENDBRANCH  13  18
BRANCH  14  20
HETATM   20  O10 UNL     1      34.092  24.002  15.747  1.00  0.00    -0.357 OA
ATOM     21  H10 UNL     1      34.531  23.194  15.505  1.00  0.00     0.218 HD
ENDBRANCH  14  20
ENDBRANCH   6   8
ENDBRANCH   3   5
BRANCH   1  22
HETATM   22  C1  UNL     1      40.905  24.290  14.716  1.00  0.00     0.329 C
HETATM   23  O1  UNL     1      41.644  24.155  13.671  1.00  0.00    -0.261 OA
HETATM   24  N1  UNL     1      41.357  23.682  15.908  1.00  0.00    -0.262 N
ATOM     25  H1  UNL     1      40.807  23.775  16.762  1.00  0.00     0.190 HD
BRANCH  24  26
HETATM   26  N2  UNL     1      42.555  22.949  15.929  1.00  0.00    -0.308 N
HETATM   27  C2  UNL     1      43.538  23.233  16.691  1.00  0.00     0.118 C
ATOM     28  H2  UNL     1      42.644  22.148  15.304  1.00  0.00     0.186 HD
BRANCH  27  29
HETATM   29  C3  UNL     1      44.713  22.395  16.605  1.00  0.00    -0.019 A
HETATM   30  C4  UNL     1      45.434  22.069  17.721  1.00  0.00     0.015 A
HETATM   31  C5  UNL     1      46.525  21.238  17.606  1.00  0.00     0.037 A
HETATM   32  C6  UNL     1      46.930  20.718  16.412  1.00  0.00     0.102 A
HETATM   33  C7  UNL     1      46.203  21.047  15.277  1.00  0.00     0.037 A
HETATM   34  C8  UNL     1      45.108  21.878  15.382  1.00  0.00     0.015 A
BRANCH  32  35
HETATM   35  N3  UNL     1      48.054  19.843  16.309  1.00  0.00    -0.116 N
HETATM   36  O2  UNL     1      48.719  19.553  17.302  1.00  0.00    -0.532 OA
HETATM   37  O3  UNL     1      48.356  19.340  15.070  1.00  0.00    -0.532 OA
ENDBRANCH  32  35
ENDBRANCH  27  29
ENDBRANCH  24  26
ENDBRANCH   1  22
TORSDOF 9
ENDMDL