MODEL 4
REMARK VINA RESULT: -9.686209875      2.959      4.779
REMARK  7 active torsions:
REMARK  status: ('A' for Active; 'I' for Inactive)
REMARK    1  A    between atoms: N1_1  and  C1_4
REMARK    2  A    between atoms: C2_10  and  C3_11
REMARK       I    between atoms: C3_11  and  N4_13
REMARK    3  A    between atoms: N4_13  and  C4_15
REMARK    4  A    between atoms: C6_20  and  C7_21
REMARK    5  A    between atoms: C8_22  and  N7_23
REMARK    6  A    between atoms: N7_23  and  C9_25
REMARK    7  A    between atoms: C13_37  and  N10_38
ROOT
HETATM    1  C4  UNL     1      42.308  23.651  15.960  1.00  0.00     0.090 A
HETATM    2  C5  UNL     1      41.778  24.133  14.806  1.00  0.00     0.151 A
HETATM    3  N5  UNL     1      40.410  24.177  14.860  1.00  0.00    -0.239 N
HETATM    4  N6  UNL     1      39.310  24.488  14.204  1.00  0.00    -0.270 N
ATOM      5  H6  UNL     1      39.261  24.866  13.258  1.00  0.00     0.190 HD
HETATM    6  C6  UNL     1      38.236  24.214  15.024  1.00  0.00     0.184 A
HETATM    7  O6  UNL     1      38.772  23.762  16.103  1.00  0.00    -0.270 OA
HETATM    8  C12 UNL     1      40.083  23.713  16.071  1.00  0.00     0.206 A
HETATM    9  C13 UNL     1      41.226  23.375  16.787  1.00  0.00     0.184 A
ENDROOT
BRANCH   1  10
HETATM   10  N4  UNL     1      43.640  23.416  16.397  1.00  0.00    -0.318 N
HETATM   11  C3  UNL     1      44.422  22.326  16.001  1.00  0.00     0.278 C
HETATM   12  O2  UNL     1      43.891  21.493  15.191  1.00  0.00    -0.265 OA
ATOM     13  H4  UNL     1      44.053  24.088  17.044  1.00  0.00     0.169 HD
BRANCH  11  14
HETATM   14  C2  UNL     1      45.780  22.033  16.412  1.00  0.00     0.169 A
HETATM   15  C1  UNL     1      46.768  21.353  15.772  1.00  0.00     0.155 A
HETATM   16  N2  UNL     1      47.872  21.340  16.559  1.00  0.00    -0.224 N
HETATM   17  O1  UNL     1      47.570  21.986  17.635  1.00  0.00    -0.155 OA
ATOM     18  H2  UNL     1      48.768  20.904  16.342  1.00  0.00     0.198 HD
HETATM   19  N3  UNL     1      46.356  22.413  17.598  1.00  0.00    -0.233 N
ATOM     20  H3  UNL     1      45.895  22.949  18.334  1.00  0.00     0.197 HD
BRANCH  15  21
HETATM   21  N1  UNL     1      46.743  20.795  14.632  1.00  0.00    -0.382 N
ATOM     22  H12 UNL     1      47.523  20.486  14.052  1.00  0.00     0.157 HD
ATOM     23  H11 UNL     1      45.869  20.586  14.147  1.00  0.00     0.157 HD
ENDBRANCH  15  21
ENDBRANCH  11  14
ENDBRANCH   1  10
BRANCH   9  24
HETATM   24  N10 UNL     1      41.207  22.853  18.106  1.00  0.00    -0.109 N
HETATM   25  O7  UNL     1      40.479  23.294  18.992  1.00  0.00    -0.532 OA
HETATM   26  O8  UNL     1      42.044  21.806  18.391  1.00  0.00    -0.532 OA
ENDBRANCH   9  24
BRANCH   6  27
HETATM   27  C7  UNL     1      36.843  24.427  14.653  1.00  0.00     0.129 A
HETATM   28  C8  UNL     1      35.842  23.502  14.805  1.00  0.00     0.131 A
HETATM   29  N8  UNL     1      34.575  23.850  14.411  1.00  0.00    -0.293 N
HETATM   30  C10 UNL     1      34.247  25.037  13.885  1.00  0.00     0.328 A
ATOM     31  H8  UNL     1      33.833  23.158  14.527  1.00  0.00     0.172 HD
HETATM   32  O4  UNL     1      33.071  25.326  13.532  1.00  0.00    -0.247 OA
HETATM   33  N9  UNL     1      35.214  25.951  13.731  1.00  0.00    -0.275 N
HETATM   34  C11 UNL     1      36.470  25.664  14.100  1.00  0.00     0.267 A
ATOM     35  H9  UNL     1      34.994  26.864  13.333  1.00  0.00     0.173 HD
HETATM   36  O5  UNL     1      37.387  26.516  13.960  1.00  0.00    -0.267 OA
BRANCH  28  37
HETATM   37  N7  UNL     1      36.110  22.239  15.345  1.00  0.00    -0.319 N
ATOM     38  H7  UNL     1      36.656  22.173  16.204  1.00  0.00     0.169 HD
BRANCH  37  39
HETATM   39  C9  UNL     1      35.646  21.054  14.731  1.00  0.00     0.354 C
HETATM   40  O3  UNL     1      35.206  21.080  13.536  1.00  0.00    -0.283 OA
ENDBRANCH  37  39
ENDBRANCH  28  37
ENDBRANCH   6  27
TORSDOF 7
ENDMDL