MODEL 4
REMARK VINA RESULT: -8.909483537      3.895      6.888
REMARK  8 active torsions:
REMARK  status: ('A' for Active; 'I' for Inactive)
REMARK    1  A    between atoms: N2_9  and  C6_10
REMARK    2  A    between atoms: C7_16  and  C8_17
REMARK       I    between atoms: C8_17  and  N5_19
REMARK    3  A    between atoms: N5_19  and  C9_21
REMARK    4  A    between atoms: C10_22  and  C11_23
REMARK       I    between atoms: C11_23  and  N6_25
REMARK       I    between atoms: N6_25  and  C12_27
REMARK    5  A    between atoms: C14_30  and  O5_31
REMARK    6  A    between atoms: N7_33  and  N8_34
REMARK    7  A    between atoms: N8_34  and  C15_35
REMARK    8  A    between atoms: C16_37  and  O7_38
ROOT
HETATM    1  C8  UNL     1      41.657  23.069  19.406  1.00  0.00     0.278 C
HETATM    2  O2  UNL     1      41.204  21.947  19.166  1.00  0.00    -0.265 OA
HETATM    3  N5  UNL     1      42.809  23.565  18.758  1.00  0.00    -0.317 N
ATOM      4  H5  UNL     1      43.078  24.506  19.049  1.00  0.00     0.169 HD
ENDROOT
BRANCH   3   5
HETATM    5  C9  UNL     1      43.645  23.009  17.795  1.00  0.00     0.109 A
HETATM    6  C10 UNL     1      43.389  23.017  16.415  1.00  0.00     0.117 A
HETATM    7  C14 UNL     1      44.382  22.322  15.823  1.00  0.00     0.194 A
HETATM    8  N7  UNL     1      45.301  21.848  16.781  1.00  0.00    -0.139 N
HETATM    9  C16 UNL     1      44.813  22.286  17.930  1.00  0.00     0.204 A
BRANCH   6  10
HETATM   10  C11 UNL     1      42.252  23.672  15.721  1.00  0.00     0.265 C
HETATM   11  O3  UNL     1      41.600  24.552  16.288  1.00  0.00    -0.267 OA
HETATM   12  N6  UNL     1      41.869  23.332  14.411  1.00  0.00    -0.294 N
HETATM   13  C12 UNL     1      40.825  23.984  13.744  1.00  0.00     0.220 C
ATOM     14  H6  UNL     1      42.369  22.584  13.930  1.00  0.00     0.172 HD
HETATM   15  C13 UNL     1      40.043  25.080  14.325  1.00  0.00     0.117 C
HETATM   16  O4  UNL     1      40.549  23.588  12.549  1.00  0.00    -0.274 OA
ENDBRANCH   6  10
BRANCH   7  17
HETATM   17  O5  UNL     1      44.589  22.041  14.484  1.00  0.00    -0.343 OA
ATOM     18  H5  UNL     1      45.400  21.985  13.993  1.00  0.00     0.219 HD
ENDBRANCH   7  17
BRANCH   8  19
HETATM   19  N8  UNL     1      46.373  21.103  16.338  1.00  0.00    -0.286 NA
BRANCH  19  20
HETATM   20  C15 UNL     1      47.378  20.406  15.923  1.00  0.00     0.467 C
HETATM   21  O6  UNL     1      47.848  19.275  16.274  1.00  0.00    -0.266 OA
ENDBRANCH  19  20
ENDBRANCH   8  19
BRANCH   9  22
HETATM   22  O7  UNL     1      45.418  22.040  19.183  1.00  0.00    -0.342 OA
ATOM     23  H7  UNL     1      46.247  21.584  19.271  1.00  0.00     0.219 HD
ENDBRANCH   9  22
ENDBRANCH   3   5
BRANCH   1  24
HETATM   24  C7  UNL     1      40.961  23.915  20.400  1.00  0.00     0.170 A
HETATM   25  C6  UNL     1      39.707  24.408  20.318  1.00  0.00     0.164 A
HETATM   26  N3  UNL     1      39.513  25.077  21.526  1.00  0.00    -0.223 N
HETATM   27  O1  UNL     1      40.602  24.953  22.215  1.00  0.00    -0.155 OA
ATOM     28  H3  UNL     1      38.669  25.573  21.814  1.00  0.00     0.198 HD
HETATM   29  N4  UNL     1      41.501  24.276  21.608  1.00  0.00    -0.232 N
ATOM     30  H4  UNL     1      42.434  24.049  21.953  1.00  0.00     0.197 HD
BRANCH  25  31
HETATM   31  N2  UNL     1      38.728  24.359  19.299  1.00  0.00    -0.331 N
HETATM   32  C2  UNL     1      37.671  23.357  19.348  1.00  0.00     0.029 C
HETATM   33  C1  UNL     1      37.811  22.293  20.067  1.00  0.00     0.040 C
HETATM   34  C3  UNL     1      36.429  23.613  18.566  1.00  0.00     0.288 C
HETATM   35  N1  UNL     1      36.708  24.073  17.217  1.00  0.00    -0.068 N
HETATM   36  C4  UNL     1      38.110  24.399  17.020  1.00  0.00     0.253 C
ATOM     37  H12 UNL     1      36.387  23.396  16.525  1.00  0.00     0.277 HD
ATOM     38  H11 UNL     1      36.109  24.860  16.967  1.00  0.00     0.277 HD
HETATM   39  C5  UNL     1      38.592  25.267  18.188  1.00  0.00     0.158 C
ENDBRANCH  25  31
ENDBRANCH   1  24
TORSDOF 8
ENDMDL