MODEL 4
REMARK VINA RESULT: -6.386496598      2.486      4.889
REMARK  4 active torsions:
REMARK  status: ('A' for Active; 'I' for Inactive)
REMARK    1  A    between atoms: C1_4  and  C2_5
REMARK    2  A    between atoms: C2_5  and  C3_6
REMARK       I    between atoms: C3_6  and  N2_8
REMARK       I    between atoms: C4_10  and  N3_11
REMARK       I    between atoms: C4_10  and  N6_18
REMARK    3  A    between atoms: N3_11  and  N4_13
REMARK    4  A    between atoms: N4_13  and  C5_15
ROOT
HETATM    1  C3  UNL     1     -13.616   5.649  37.552  1.00  0.00     0.240 C
HETATM    2  O1  UNL     1     -13.904   6.850  37.680  1.00  0.00    -0.272 OA
HETATM    3  N2  UNL     1     -14.494   4.594  37.868  1.00  0.00    -0.156 N
ATOM      4  H2  UNL     1     -14.270   4.015  38.677  1.00  0.00     0.187 HD
HETATM    5  C4  UNL     1     -15.564   4.311  37.203  1.00  0.00     0.721 C
HETATM    6  N3  UNL     1     -15.910   5.090  36.074  1.00  0.00    -0.128 N
ATOM      7  H3  UNL     1     -15.542   4.818  35.162  1.00  0.00     0.205 HD
HETATM    8  N6  UNL     1     -16.341   3.207  37.663  1.00  0.00    -0.080 N
HETATM    9  C6  UNL     1     -16.286   1.937  37.277  1.00  0.00     0.226 A
HETATM   10  N7  UNL     1     -17.202   1.259  37.982  1.00  0.00    -0.345 N
ATOM     11  H7  UNL     1     -17.397   0.261  37.907  1.00  0.00     0.167 HD
HETATM   12  C7  UNL     1     -17.817   2.120  38.801  1.00  0.00     0.199 A
HETATM   13  N8  UNL     1     -17.270   3.330  38.592  1.00  0.00    -0.274 N
ATOM     14  H8  UNL     1     -17.528   4.193  39.069  1.00  0.00     0.189 HD
ENDROOT
BRANCH   6  15
HETATM   15  N4  UNL     1     -16.733   6.215  36.153  1.00  0.00    -0.264 N
ATOM     16  H4  UNL     1     -17.441   6.270  36.884  1.00  0.00     0.189 HD
BRANCH  15  17
HETATM   17  C5  UNL     1     -16.596   7.285  35.226  1.00  0.00     0.200 C
HETATM   18  N5  UNL     1     -15.331   7.606  34.697  1.00  0.00    -0.068 NA
HETATM   19  S1  UNL     1     -17.868   8.182  34.737  1.00  0.00    -0.043 SA
ENDBRANCH  15  17
ENDBRANCH   6  15
BRANCH   1  20
HETATM   20  C2  UNL     1     -12.259   5.297  37.035  1.00  0.00     0.147 C
BRANCH  20  21
HETATM   21  C1  UNL     1     -12.115   5.697  35.605  1.00  0.00     0.062 C
HETATM   22  N1  UNL     1     -12.411   6.887  35.268  1.00  0.00    -0.411 N
ATOM     23  H12 UNL     1     -12.740   7.545  35.975  1.00  0.00     0.155 HD
ATOM     24  H11 UNL     1     -12.312   7.161  34.291  1.00  0.00     0.155 HD
ENDBRANCH  20  21
ENDBRANCH   1  20
TORSDOF 4
ENDMDL