MODEL 1
REMARK VINA RESULT: -8.080285237      0.000      0.000
REMARK  4 active torsions:
REMARK  status: ('A' for Active; 'I' for Inactive)
REMARK    1  A    between atoms: C3_4  and  N2_5
REMARK    2  A    between atoms: C9_13  and  C10_14
REMARK       I    between atoms: C10_14  and  N4_16
REMARK    3  A    between atoms: N4_16  and  N5_18
REMARK    4  A    between atoms: C11_23  and  N7_24
ROOT
HETATM    1  N1  UNL     1     -12.207   5.558  36.006  1.00  0.00    -0.191 NA
HETATM    2  C1  UNL     1     -13.096   5.054  36.565  1.00  0.00     0.107 C
HETATM    3  C2  UNL     1     -14.207   4.410  37.241  1.00  0.00     0.132 A
HETATM    4  C3  UNL     1     -15.504   4.798  36.969  1.00  0.00     0.130 A
HETATM    5  N3  UNL     1     -16.476   4.142  37.647  1.00  0.00    -0.323 N
ATOM      6  H3  UNL     1     -17.446   4.403  37.469  1.00  0.00     0.169 HD
HETATM    7  C9  UNL     1     -16.238   3.167  38.542  1.00  0.00     0.179 A
HETATM    8  N6  UNL     1     -14.947   2.821  38.775  1.00  0.00    -0.323 N
ATOM      9  H6  UNL     1     -14.749   2.082  39.451  1.00  0.00     0.169 HD
HETATM   10  C11 UNL     1     -13.920   3.418  38.146  1.00  0.00     0.125 A
ENDROOT
BRANCH   4  11
HETATM   11  N2  UNL     1     -15.799   5.832  36.044  1.00  0.00    -0.366 N
HETATM   12  C4  UNL     1     -15.562   5.621  34.645  1.00  0.00     0.124 C
HETATM   13  C5  UNL     1     -15.402   6.849  33.838  1.00  0.00     0.020 C
HETATM   14  C6  UNL     1     -15.249   8.138  34.538  1.00  0.00     0.003 C
HETATM   15  C7  UNL     1     -15.333   8.145  36.020  1.00  0.00     0.020 C
HETATM   16  C8  UNL     1     -16.342   7.104  36.453  1.00  0.00     0.124 C
ENDBRANCH   4  11
BRANCH  10  17
HETATM   17  N7  UNL     1     -12.685   3.081  38.376  1.00  0.00    -0.384 N
ATOM     18  H72 UNL     1     -12.324   2.972  39.324  1.00  0.00     0.157 HD
ATOM     19  H71 UNL     1     -12.045   2.918  37.598  1.00  0.00     0.157 HD
ENDBRANCH  10  17
BRANCH   7  20
HETATM   20  C10 UNL     1     -17.333   2.513  39.234  1.00  0.00     0.303 C
HETATM   21  O1  UNL     1     -17.212   2.242  40.445  1.00  0.00    -0.263 OA
HETATM   22  N4  UNL     1     -18.530   2.178  38.564  1.00  0.00    -0.270 N
ATOM     23  H4  UNL     1     -18.619   2.405  37.574  1.00  0.00     0.189 HD
BRANCH  22  24
HETATM   24  N5  UNL     1     -19.597   1.547  39.208  1.00  0.00    -0.342 N
ATOM     25  H52 UNL     1     -19.382   0.778  39.842  1.00  0.00     0.176 HD
ATOM     26  H51 UNL     1     -20.567   1.829  39.063  1.00  0.00     0.176 HD
ENDBRANCH  22  24
ENDBRANCH   7  20
TORSDOF 4
ENDMDL