MODEL 5
REMARK VINA RESULT: -6.370422569      0.986      1.133
REMARK  4 active torsions:
REMARK  status: ('A' for Active; 'I' for Inactive)
REMARK    1  A    between atoms: N1_1  and  C1_4
REMARK    2  A    between atoms: C2_7  and  C3_8
REMARK    3  A    between atoms: C5_12  and  S1_13
REMARK    4  A    between atoms: S1_13  and  N3_14
ROOT
HETATM    1  C1  UNL     1     -13.160   4.448  38.147  1.00  0.00     0.124 C
HETATM    2  N2  UNL     1     -13.900   5.146  37.242  1.00  0.00    -0.336 N
ATOM      3  H2  UNL     1     -13.379   5.834  36.697  1.00  0.00     0.168 HD
HETATM    4  C2  UNL     1     -15.209   5.072  36.955  1.00  0.00     0.112 C
HETATM    5  C4  UNL     1     -16.132   4.249  37.593  1.00  0.00     0.062 C
HETATM    6  C5  UNL     1     -15.917   3.125  38.372  1.00  0.00     0.083 C
HETATM    7  C6  UNL     1     -14.718   2.695  38.913  1.00  0.00     0.055 C
HETATM    8  C7  UNL     1     -13.445   3.225  38.719  1.00  0.00     0.091 C
HETATM    9  N4  UNL     1     -12.333   2.451  39.140  1.00  0.00    -0.098 NA
ENDROOT
BRANCH   6  10
HETATM   10  S1  UNL     1     -17.318   2.151  38.699  1.00  0.00     0.256 S
HETATM   11  O3  UNL     1     -18.558   2.823  38.152  1.00  0.00    -0.201 OA
HETATM   12  O4  UNL     1     -17.487   2.047  40.171  1.00  0.00    -0.201 OA
BRANCH  10  13
HETATM   13  N3  UNL     1     -17.223   0.597  37.965  1.00  0.00    -0.324 N
ATOM     14  H32 UNL     1     -17.280   0.456  36.957  1.00  0.00     0.169 HD
ATOM     15  H31 UNL     1     -17.107  -0.151  38.650  1.00  0.00     0.169 HD
ENDBRANCH  10  13
ENDBRANCH   6  10
BRANCH   4  16
HETATM   16  C3  UNL     1     -15.732   5.920  35.880  1.00  0.00     0.226 C
HETATM   17  O1  UNL     1     -15.238   5.902  34.721  1.00  0.00    -0.643 OA
HETATM   18  O2  UNL     1     -16.800   6.743  36.209  1.00  0.00    -0.643 OA
ENDBRANCH   4  16
BRANCH   1  19
HETATM   19  N1  UNL     1     -12.058   4.982  38.527  1.00  0.00    -0.384 N
ATOM     20  H12 UNL     1     -12.078   5.998  38.616  1.00  0.00     0.157 HD
ATOM     21  H11 UNL     1     -11.276   4.349  38.700  1.00  0.00     0.157 HD
ENDBRANCH   1  19
TORSDOF 4
ENDMDL