MODEL 5
REMARK VINA RESULT: -7.972514842      2.598      6.410
REMARK  2 active torsions:
REMARK  status: ('A' for Active; 'I' for Inactive)
REMARK    1  A    between atoms: C1_2  and  C2_4
REMARK    2  A    between atoms: N5_12  and  C5_14
ROOT
HETATM    1  C2  UNL     1     -15.255   5.730  35.872  1.00  0.00     0.189 A
HETATM    2  N2  UNL     1     -13.997   5.957  35.455  1.00  0.00    -0.311 N
ATOM      3  H2  UNL     1     -13.797   6.751  34.846  1.00  0.00     0.170 HD
HETATM    4  C3  UNL     1     -12.991   5.131  35.842  1.00  0.00     0.208 A
HETATM    5  N3  UNL     1     -11.684   5.398  35.387  1.00  0.00    -0.063 NA
HETATM    6  N4  UNL     1     -13.288   4.084  36.651  1.00  0.00    -0.163 N
ATOM      7  H4  UNL     1     -12.535   3.462  36.944  1.00  0.00     0.187 HD
HETATM    8  C4  UNL     1     -14.538   3.838  37.080  1.00  0.00     0.686 A
HETATM    9  N5  UNL     1     -14.749   2.829  37.843  1.00  0.00    -0.190 N
ATOM     10  H5  UNL     1     -13.940   2.258  38.086  1.00  0.00     0.184 HD
HETATM   11  N7  UNL     1     -15.502   4.691  36.665  1.00  0.00    -0.171 N
ATOM     12  H7  UNL     1     -16.461   4.530  36.973  1.00  0.00     0.186 HD
ENDROOT
BRANCH   9  13
HETATM   13  C5  UNL     1     -15.977   2.439  38.371  1.00  0.00     0.064 A
HETATM   14  C6  UNL     1     -16.507   3.095  39.451  1.00  0.00     0.037 A
HETATM   15  C7  UNL     1     -17.737   2.713  39.990  1.00  0.00     0.076 A
HETATM   16  C8  UNL     1     -18.379   1.656  39.384  1.00  0.00     0.245 A
HETATM   17  O2  UNL     1     -19.498   1.292  39.858  1.00  0.00    -0.268 OA
HETATM   18  N6  UNL     1     -17.845   1.014  38.316  1.00  0.00    -0.332 N
HETATM   19  C9  UNL     1     -16.649   1.392  37.798  1.00  0.00     0.121 A
ATOM     20  H6  UNL     1     -18.349   0.235  37.895  1.00  0.00     0.168 HD
ENDBRANCH   9  13
BRANCH   1  21
HETATM   21  C1  UNL     1     -16.306   6.655  35.424  1.00  0.00     0.299 C
HETATM   22  N1  UNL     1     -17.105   7.383  36.332  1.00  0.00    -0.054 NA
HETATM   23  O1  UNL     1     -16.506   6.810  34.198  1.00  0.00    -0.268 OA
ENDBRANCH   1  21
TORSDOF 2
ENDMDL