MODEL 1
REMARK VINA RESULT: -7.131976020      0.000      0.000
REMARK  4 active torsions:
REMARK  status: ('A' for Active; 'I' for Inactive)
REMARK    1  A    between atoms: N1_1  and  C1_4
REMARK    2  A    between atoms: C4_7  and  C5_8
REMARK    3  A    between atoms: C5_8  and  N2_9
REMARK    4  A    between atoms: C10_22  and  N6_23
ROOT
HETATM    1  C1  UNL     1     -16.946   7.388  35.255  1.00  0.00     0.070 C
HETATM    2  C2  UNL     1     -16.356   7.513  36.488  1.00  0.00     0.033 C
HETATM    3  C3  UNL     1     -15.066   7.129  36.831  1.00  0.00     0.012 C
HETATM    4  C4  UNL     1     -14.172   6.374  36.108  1.00  0.00    -0.023 C
HETATM    5  C9  UNL     1     -14.142   6.241  34.732  1.00  0.00     0.098 C
HETATM    6  N5  UNL     1     -15.095   6.545  33.821  1.00  0.00    -0.350 N
ATOM      7  H5  UNL     1     -14.841   6.435  32.840  1.00  0.00     0.166 HD
HETATM    8  C10 UNL     1     -16.352   6.981  34.080  1.00  0.00     0.125 C
ENDROOT
BRANCH   4   9
HETATM    9  C5  UNL     1     -13.134   5.625  36.856  1.00  0.00     0.194 C
BRANCH   9  10
HETATM   10  N2  UNL     1     -13.642   4.409  37.461  1.00  0.00    -0.238 N
HETATM   11  N3  UNL     1     -14.585   3.695  36.828  1.00  0.00    -0.300 N
HETATM   12  C6  UNL     1     -15.091   2.562  37.344  1.00  0.00     0.181 A
ATOM     13  H3  UNL     1     -14.930   4.023  35.926  1.00  0.00     0.186 HD
HETATM   14  C7  UNL     1     -14.652   2.084  38.562  1.00  0.00     0.266 A
HETATM   15  O1  UNL     1     -15.112   1.021  39.069  1.00  0.00    -0.267 OA
HETATM   16  N4  UNL     1     -13.706   2.802  39.194  1.00  0.00    -0.273 N
HETATM   17  C8  UNL     1     -13.215   3.943  38.646  1.00  0.00     0.344 A
ATOM     18  H4  UNL     1     -13.353   2.484  40.097  1.00  0.00     0.173 HD
HETATM   19  O2  UNL     1     -12.326   4.614  39.245  1.00  0.00    -0.245 OA
ENDBRANCH   9  10
ENDBRANCH   4   9
BRANCH   1  20
HETATM   20  N1  UNL     1     -18.207   7.690  35.204  1.00  0.00    -0.396 N
ATOM     21  H12 UNL     1     -18.443   8.679  35.116  1.00  0.00     0.156 HD
ATOM     22  H11 UNL     1     -18.851   6.902  35.258  1.00  0.00     0.156 HD
ENDBRANCH   1  20
BRANCH   8  23
HETATM   23  N6  UNL     1     -17.177   7.042  33.069  1.00  0.00    -0.384 N
ATOM     24  H62 UNL     1     -16.792   7.351  32.176  1.00  0.00     0.157 HD
ATOM     25  H61 UNL     1     -18.122   6.760  33.331  1.00  0.00     0.157 HD
ENDBRANCH   8  23
TORSDOF 4
ENDMDL