MODEL 2
REMARK VINA RESULT: -7.743793621      2.983      6.926
REMARK  3 active torsions:
REMARK  status: ('A' for Active; 'I' for Inactive)
REMARK       I    between atoms: C1_4  and  N3_6
REMARK       I    between atoms: N3_6  and  C2_8
REMARK    1  A    between atoms: C2_8  and  C3_10
REMARK    2  A    between atoms: C7_14  and  N4_15
REMARK    3  A    between atoms: C10_18  and  N5_19
ROOT
HETATM    1  C3  UNL     1     -13.766   5.467  37.226  1.00  0.00     0.102 A
HETATM    2  C4  UNL     1     -12.676   5.277  38.048  1.00  0.00     0.035 A
HETATM    3  C5  UNL     1     -12.698   4.349  39.074  1.00  0.00     0.006 A
HETATM    4  C6  UNL     1     -13.843   3.605  39.262  1.00  0.00     0.049 A
HETATM    5  C7  UNL     1     -14.935   3.794  38.440  1.00  0.00     0.112 A
HETATM    6  N7  UNL     1     -14.870   4.699  37.465  1.00  0.00    -0.338 N
ATOM      7  H7  UNL     1     -15.687   4.826  36.867  1.00  0.00     0.167 HD
ENDROOT
BRANCH   5   8
HETATM    8  N4  UNL     1     -16.109   2.996  38.672  1.00  0.00    -0.304 N
HETATM    9  C8  UNL     1     -16.898   3.195  39.754  1.00  0.00     0.103 A
HETATM   10  C9  UNL     1     -18.024   2.442  39.990  1.00  0.00     0.066 A
HETATM   11  C10 UNL     1     -18.358   1.449  39.093  1.00  0.00     0.100 A
HETATM   12  N6  UNL     1     -17.574   1.269  38.041  1.00  0.00    -0.339 N
HETATM   13  C11 UNL     1     -16.482   2.015  37.831  1.00  0.00     0.191 A
ATOM     14  H6  UNL     1     -17.810   0.539  37.369  1.00  0.00     0.168 HD
BRANCH  11  15
HETATM   15  N5  UNL     1     -19.411   0.734  39.303  1.00  0.00    -0.385 N
ATOM     16  H52 UNL     1     -20.188   1.059  39.879  1.00  0.00     0.157 HD
ATOM     17  H51 UNL     1     -19.479  -0.192  38.881  1.00  0.00     0.157 HD
ENDBRANCH  11  15
ENDBRANCH   5   8
BRANCH   1  18
HETATM   18  C2  UNL     1     -13.781   6.440  36.130  1.00  0.00     0.274 C
HETATM   19  N3  UNL     1     -12.646   7.149  35.724  1.00  0.00    -0.296 N
HETATM   20  C1  UNL     1     -12.718   8.082  34.654  1.00  0.00     0.188 C
ATOM     21  H3  UNL     1     -11.758   6.994  36.201  1.00  0.00     0.171 HD
HETATM   22  N1  UNL     1     -11.696   8.756  34.246  1.00  0.00    -0.373 N
HETATM   23  N2  UNL     1     -13.942   8.294  34.000  1.00  0.00    -0.064 NA
ATOM     24  H12 UNL     1     -11.747   9.426  33.479  1.00  0.00     0.158 HD
ATOM     25  H11 UNL     1     -10.807   8.602  34.721  1.00  0.00     0.158 HD
HETATM   26  O1  UNL     1     -14.873   6.629  35.548  1.00  0.00    -0.266 OA
ENDBRANCH   1  18
TORSDOF 3
ENDMDL