MODEL 2
REMARK VINA RESULT: -7.300286445      3.305      7.633
REMARK  4 active torsions:
REMARK  status: ('A' for Active; 'I' for Inactive)
REMARK    1  A    between atoms: N1_1  and  C1_4
REMARK    2  A    between atoms: C2_7  and  C3_8
REMARK    3  A    between atoms: C5_14  and  C6_15
REMARK       I    between atoms: C6_15  and  N4_17
REMARK    4  A    between atoms: N4_17  and  C7_19
ROOT
HETATM    1  C1  UNL     1     -15.274   5.232  36.351  1.00  0.00     0.117 A
HETATM    2  N2  UNL     1     -15.009   4.262  37.240  1.00  0.00    -0.323 N
ATOM      3  H2  UNL     1     -15.770   3.937  37.836  1.00  0.00     0.169 HD
HETATM    4  C2  UNL     1     -13.799   3.694  37.393  1.00  0.00     0.185 A
HETATM    5  N3  UNL     1     -12.819   4.146  36.592  1.00  0.00    -0.346 N
ATOM      6  H3  UNL     1     -11.889   3.737  36.681  1.00  0.00     0.167 HD
HETATM    7  C4  UNL     1     -13.010   5.109  35.683  1.00  0.00     0.111 A
HETATM    8  C5  UNL     1     -14.254   5.683  35.537  1.00  0.00     0.091 A
ENDROOT
BRANCH   8   9
HETATM    9  C6  UNL     1     -14.523   6.734  34.567  1.00  0.00     0.275 C
HETATM   10  O3  UNL     1     -15.141   6.521  33.493  1.00  0.00    -0.267 OA
HETATM   11  N4  UNL     1     -14.084   8.064  34.808  1.00  0.00    -0.154 N
ATOM     12  H4  UNL     1     -14.413   8.569  35.631  1.00  0.00     0.187 HD
BRANCH  11  13
HETATM   13  C7  UNL     1     -13.263   8.636  33.979  1.00  0.00     0.700 A
HETATM   14  N5  UNL     1     -13.526   9.116  32.752  1.00  0.00    -0.185 N
HETATM   15  C8  UNL     1     -12.401   9.616  32.254  1.00  0.00     0.215 A
ATOM     16  H5  UNL     1     -14.432   9.100  32.285  1.00  0.00     0.185 HD
HETATM   17  N6  UNL     1     -11.409   9.458  33.158  1.00  0.00    -0.281 N
HETATM   18  N7  UNL     1     -11.959   8.860  34.197  1.00  0.00    -0.131 N
ATOM     19  H6  UNL     1     -10.434   9.743  33.058  1.00  0.00     0.188 HD
ATOM     20  H7  UNL     1     -11.461   8.603  35.049  1.00  0.00     0.205 HD
ENDBRANCH  11  13
ENDBRANCH   8   9
BRANCH   1  21
HETATM   21  N1  UNL     1     -16.460   5.767  36.225  1.00  0.00    -0.385 N
ATOM     22  H12 UNL     1     -16.883   5.807  35.298  1.00  0.00     0.157 HD
ATOM     23  H11 UNL     1     -16.979   6.144  37.018  1.00  0.00     0.157 HD
ENDBRANCH   1  21
BRANCH   4  24
HETATM   24  C3  UNL     1     -13.571   2.645  38.376  1.00  0.00     0.245 C
HETATM   25  O1  UNL     1     -12.620   2.775  39.182  1.00  0.00    -0.642 OA
HETATM   26  O2  UNL     1     -14.371   1.520  38.437  1.00  0.00    -0.642 OA
ENDBRANCH   4  24
TORSDOF 4
ENDMDL