MODEL 5
REMARK VINA RESULT: -7.499324395      2.947      6.357
REMARK  2 active torsions:
REMARK  status: ('A' for Active; 'I' for Inactive)
REMARK    1  A    between atoms: C3_8  and  C4_9
REMARK    2  A    between atoms: C4_9  and  C5_10
ROOT
HETATM    1  C5  UNL     1     -15.278   5.006  36.905  1.00  0.00     0.088 A
HETATM    2  N3  UNL     1     -14.109   4.343  37.016  1.00  0.00    -0.353 N
ATOM      3  H3  UNL     1     -13.248   4.880  36.914  1.00  0.00     0.166 HD
HETATM    4  C6  UNL     1     -14.001   3.042  37.249  1.00  0.00     0.123 A
HETATM    5  C7  UNL     1     -15.151   2.305  37.389  1.00  0.00     0.106 A
HETATM    6  N4  UNL     1     -15.390   1.011  37.624  1.00  0.00    -0.279 N
ATOM      7  H4  UNL     1     -14.690   0.279  37.751  1.00  0.00     0.184 HD
HETATM    8  N5  UNL     1     -16.707   0.855  37.661  1.00  0.00    -0.021 NA
HETATM    9  N6  UNL     1     -17.297   2.025  37.455  1.00  0.00    -0.267 N
ATOM     10  H6  UNL     1     -18.305   2.180  37.434  1.00  0.00     0.186 HD
HETATM   11  C8  UNL     1     -16.355   2.986  37.276  1.00  0.00     0.149 A
HETATM   12  N7  UNL     1     -16.402   4.313  37.038  1.00  0.00    -0.329 N
ATOM     13  H7  UNL     1     -17.303   4.784  36.959  1.00  0.00     0.168 HD
ENDROOT
BRANCH   1  14
HETATM   14  C4  UNL     1     -15.183   6.451  36.645  1.00  0.00     0.135 C
BRANCH  14  15
HETATM   15  C3  UNL     1     -15.210   6.788  35.201  1.00  0.00     0.035 A
HETATM   16  C2  UNL     1     -14.490   7.858  34.700  1.00  0.00     0.115 A
HETATM   17  N2  UNL     1     -14.500   8.183  33.395  1.00  0.00    -0.346 N
HETATM   18  C1  UNL     1     -15.227   7.460  32.520  1.00  0.00     0.168 A
ATOM     19  H2  UNL     1     -13.954   8.979  33.066  1.00  0.00     0.167 HD
HETATM   20  N1  UNL     1     -15.283   7.712  31.263  1.00  0.00    -0.381 N
HETATM   21  C9  UNL     1     -15.964   6.376  32.992  1.00  0.00     0.289 A
ATOM     22  H12 UNL     1     -14.743   8.505  30.918  1.00  0.00     0.157 HD
ATOM     23  H11 UNL     1     -15.833   7.165  30.601  1.00  0.00     0.157 HD
HETATM   24  N8  UNL     1     -15.929   6.082  34.306  1.00  0.00    -0.322 N
HETATM   25  O1  UNL     1     -16.645   5.700  32.167  1.00  0.00    -0.264 OA
ATOM     26  H8  UNL     1     -16.473   5.286  34.640  1.00  0.00     0.169 HD
ENDBRANCH  14  15
ENDBRANCH   1  14
TORSDOF 2
ENDMDL