MODEL 3
REMARK VINA RESULT: -6.742174909      1.947      4.589
REMARK  2 active torsions:
REMARK  status: ('A' for Active; 'I' for Inactive)
REMARK    1  A    between atoms: C1_2  and  C2_4
REMARK    2  A    between atoms: N4_13  and  C6_14
ROOT
HETATM    1  C2  UNL     1     -14.930   5.455  36.285  1.00  0.00     0.134 A
HETATM    2  C3  UNL     1     -13.730   5.965  35.729  1.00  0.00     0.146 A
HETATM    3  N2  UNL     1     -13.673   7.213  35.050  1.00  0.00    -0.094 NA
HETATM    4  C4  UNL     1     -12.572   5.248  35.835  1.00  0.00     0.276 A
HETATM    5  O2  UNL     1     -11.469   5.663  35.353  1.00  0.00    -0.266 OA
HETATM    6  N3  UNL     1     -12.637   4.077  36.474  1.00  0.00    -0.274 N
ATOM      7  H3  UNL     1     -11.782   3.528  36.564  1.00  0.00     0.173 HD
HETATM    8  C5  UNL     1     -13.755   3.589  36.999  1.00  0.00     0.330 A
HETATM    9  O3  UNL     1     -13.689   2.449  37.590  1.00  0.00    -0.246 OA
HETATM   10  N4  UNL     1     -14.925   4.281  36.907  1.00  0.00    -0.287 N
ENDROOT
BRANCH  10  11
HETATM   11  C6  UNL     1     -16.075   3.695  37.482  1.00  0.00     0.120 C
HETATM   12  C7  UNL     1     -16.420   2.329  36.913  1.00  0.00     0.029 C
HETATM   13  C8  UNL     1     -16.770   1.341  37.962  1.00  0.00     0.029 C
HETATM   14  C9  UNL     1     -17.604   1.902  39.085  1.00  0.00     0.232 C
HETATM   15  N5  UNL     1     -17.206   3.224  39.500  1.00  0.00    -0.073 N
HETATM   16  C10 UNL     1     -15.883   3.572  39.001  1.00  0.00     0.257 C
ATOM     17  H52 UNL     1     -17.899   3.921  39.232  1.00  0.00     0.277 HD
ATOM     18  H51 UNL     1     -17.259   3.326  40.514  1.00  0.00     0.277 HD
ENDBRANCH  10  11
BRANCH   1  19
HETATM   19  C1  UNL     1     -16.050   6.334  36.084  1.00  0.00     0.283 C
HETATM   20  N1  UNL     1     -16.715   7.106  37.028  1.00  0.00    -0.056 NA
HETATM   21  O1  UNL     1     -16.551   6.473  34.895  1.00  0.00    -0.269 OA
ENDBRANCH   1  19
TORSDOF 2
ENDMDL