MODEL 2
REMARK VINA RESULT: -7.376027346      2.040      2.926
REMARK  4 active torsions:
REMARK  status: ('A' for Active; 'I' for Inactive)
REMARK    1  A    between atoms: N1_1  and  C1_4
REMARK    2  A    between atoms: C2_9  and  C3_10
REMARK    3  A    between atoms: C4_11  and  C5_12
REMARK    4  A    between atoms: N4_16  and  N5_17
ROOT
HETATM    1  C1  UNL     1     -17.774   1.876  38.704  1.00  0.00     0.693 A
HETATM    2  N2  UNL     1     -18.088   2.821  37.803  1.00  0.00    -0.132 N
ATOM      3  H2  UNL     1     -19.058   2.915  37.504  1.00  0.00     0.205 HD
HETATM    4  N3  UNL     1     -17.187   3.628  37.295  1.00  0.00    -0.281 N
ATOM      5  H3  UNL     1     -17.465   4.333  36.613  1.00  0.00     0.187 HD
HETATM    6  C2  UNL     1     -15.879   3.530  37.672  1.00  0.00     0.117 A
HETATM    7  C10 UNL     1     -15.528   2.590  38.578  1.00  0.00     0.287 A
HETATM    8  O2  UNL     1     -14.396   2.385  39.011  1.00  0.00    -0.265 OA
HETATM    9  N6  UNL     1     -16.499   1.763  39.088  1.00  0.00    -0.153 N
ATOM     10  H6  UNL     1     -16.242   1.050  39.772  1.00  0.00     0.187 HD
ENDROOT
BRANCH   6  11
HETATM   11  C3  UNL     1     -14.955   4.469  37.054  1.00  0.00     0.038 C
HETATM   12  C4  UNL     1     -15.254   5.502  36.323  1.00  0.00     0.019 C
BRANCH  12  13
HETATM   13  C5  UNL     1     -14.334   6.436  35.709  1.00  0.00     0.034 A
HETATM   14  C6  UNL     1     -12.987   6.352  36.120  1.00  0.00     0.018 A
HETATM   15  C7  UNL     1     -12.091   7.222  35.556  1.00  0.00     0.020 A
HETATM   16  C8  UNL     1     -12.502   8.142  34.621  1.00  0.00     0.119 A
HETATM   17  N4  UNL     1     -13.770   8.246  34.211  1.00  0.00    -0.238 N
HETATM   18  C9  UNL     1     -14.673   7.373  34.775  1.00  0.00     0.275 A
HETATM   19  O1  UNL     1     -15.853   7.531  34.338  1.00  0.00    -0.265 OA
BRANCH  17  20
HETATM   20  N5  UNL     1     -14.169   9.190  33.257  1.00  0.00    -0.336 N
ATOM     21  H52 UNL     1     -13.697  10.091  33.170  1.00  0.00     0.177 HD
ATOM     22  H51 UNL     1     -14.942   9.018  32.614  1.00  0.00     0.177 HD
ENDBRANCH  17  20
ENDBRANCH  12  13
ENDBRANCH   6  11
BRANCH   1  23
HETATM   23  N1  UNL     1     -18.673   1.075  39.209  1.00  0.00    -0.233 N
ATOM     24  H12 UNL     1     -19.424   0.724  38.615  1.00  0.00     0.174 HD
ATOM     25  H11 UNL     1     -18.651   0.783  40.186  1.00  0.00     0.174 HD
ENDBRANCH   1  23
TORSDOF 4
ENDMDL