MODEL 1
REMARK VINA RESULT: -6.947588218      0.000      0.000
REMARK  8 active torsions:
REMARK  status: ('A' for Active; 'I' for Inactive)
REMARK    1  A    between atoms: C2_2  and  N1_3
REMARK    2  A    between atoms: C2_2  and  C12_24
REMARK       I    between atoms: N1_3  and  C3_5
REMARK       I    between atoms: C3_5  and  N2_7
REMARK    3  A    between atoms: N2_7  and  C4_9
REMARK    4  A    between atoms: C4_9  and  C5_10
REMARK    5  A    between atoms: C4_9  and  C7_14
REMARK    6  A    between atoms: C5_10  and  C6_11
REMARK       I    between atoms: C7_14  and  N4_16
REMARK    7  A    between atoms: N4_16  and  C8_18
REMARK    8  A    between atoms: C8_18  and  C9_19
ROOT
HETATM    1  C4  UNL     1     -15.941   7.877  32.940  1.00  0.00     0.186 C
ENDROOT
BRANCH   1   2
HETATM    2  N2  UNL     1     -15.817   6.655  33.700  1.00  0.00    -0.329 N
HETATM    3  C3  UNL     1     -15.559   6.579  35.071  1.00  0.00     0.317 C
HETATM    4  N1  UNL     1     -15.442   5.400  35.821  1.00  0.00    -0.335 N
HETATM    5  O1  UNL     1     -15.413   7.672  35.713  1.00  0.00    -0.247 OA
ATOM      6  H1  UNL     1     -15.555   4.516  35.324  1.00  0.00     0.164 HD
ATOM      7  H2  UNL     1     -15.928   5.777  33.195  1.00  0.00     0.165 HD
BRANCH   4   8
HETATM    8  C2  UNL     1     -15.176   5.334  37.232  1.00  0.00     0.136 C
HETATM    9  C1  UNL     1     -16.167   4.501  37.994  1.00  0.00     0.036 C
BRANCH   8  10
HETATM   10  C12 UNL     1     -13.744   4.890  37.502  1.00  0.00     0.208 C
HETATM   11 CL1  UNL     1     -12.706   5.149  36.089  1.00  0.00    -0.082 Cl
HETATM   12 CL2  UNL     1     -13.737   3.164  37.881  1.00  0.00    -0.082 Cl
HETATM   13 CL3  UNL     1     -13.094   5.823  38.858  1.00  0.00    -0.082 Cl
ENDBRANCH   8  10
ENDBRANCH   4   8
ENDBRANCH   1   2
BRANCH   1  14
HETATM   14  C5  UNL     1     -16.607   7.656  31.603  1.00  0.00     0.134 C
BRANCH  14  15
HETATM   15  C6  UNL     1     -16.835   6.257  31.251  1.00  0.00     0.233 C
HETATM   16  N3  UNL     1     -15.815   5.499  30.645  1.00  0.00    -0.062 NA
HETATM   17  O2  UNL     1     -17.934   5.714  31.482  1.00  0.00    -0.277 OA
ENDBRANCH  14  15
ENDBRANCH   1  14
BRANCH   1  18
HETATM   18  C7  UNL     1     -14.639   8.511  32.675  1.00  0.00     0.242 C
HETATM   19  O3  UNL     1     -14.126   8.404  31.555  1.00  0.00    -0.271 OA
HETATM   20  N4  UNL     1     -13.988   9.228  33.679  1.00  0.00    -0.342 N
ATOM     21  H4  UNL     1     -14.444   9.291  34.589  1.00  0.00     0.163 HD
BRANCH  20  22
HETATM   22  C8  UNL     1     -12.705   9.888  33.519  1.00  0.00     0.111 A
HETATM   23  C10 UNL     1     -11.731   9.606  34.682  1.00  0.00     0.043 A
HETATM   24  C11 UNL     1     -11.533   8.993  33.351  1.00  0.00     0.043 A
BRANCH  22  25
HETATM   25  C9  UNL     1     -12.739  11.244  32.971  1.00  0.00     0.259 C
HETATM   26  N5  UNL     1     -13.293  12.369  33.607  1.00  0.00    -0.060 NA
HETATM   27  O4  UNL     1     -12.229  11.428  31.830  1.00  0.00    -0.274 OA
ENDBRANCH  22  25
ENDBRANCH  20  22
ENDBRANCH   1  18
TORSDOF 8
ENDMDL