MODEL 3
REMARK VINA RESULT: -7.202824049      1.238      1.608
REMARK  9 active torsions:
REMARK  status: ('A' for Active; 'I' for Inactive)
REMARK    1  A    between atoms: C2_2  and  O1_3
REMARK    2  A    between atoms: C2_2  and  C3_5
REMARK    3  A    between atoms: C3_5  and  N1_6
REMARK       I    between atoms: N1_6  and  C4_8
REMARK    4  A    between atoms: C4_8  and  C5_10
REMARK    5  A    between atoms: C5_10  and  N2_11
REMARK    6  A    between atoms: C5_10  and  C10_24
REMARK       I    between atoms: N2_11  and  C6_13
REMARK    7  A    between atoms: C6_13  and  C7_15
REMARK    8  A    between atoms: C7_15  and  N3_16
REMARK    9  A    between atoms: C7_15  and  C9_21
REMARK       I    between atoms: N3_16  and  C8_18
ROOT
HETATM    1  C5  UNL     1     -15.187   5.927  37.021  1.00  0.00     0.231 C
ENDROOT
BRANCH   1   2
HETATM    2  C4  UNL     1     -15.676   4.596  37.380  1.00  0.00     0.244 C
HETATM    3  N1  UNL     1     -17.041   4.259  37.500  1.00  0.00    -0.357 N
ATOM      4  H1  UNL     1     -17.753   4.968  37.328  1.00  0.00     0.162 HD
HETATM    5  O2  UNL     1     -14.816   3.653  37.604  1.00  0.00    -0.271 OA
BRANCH   3   6
HETATM    6  C3  UNL     1     -17.449   2.888  37.874  1.00  0.00     0.153 C
BRANCH   6   7
HETATM    7  C2  UNL     1     -17.569   2.841  39.361  1.00  0.00     0.132 C
HETATM    8  C1  UNL     1     -18.777   2.102  39.841  1.00  0.00     0.041 C
BRANCH   7   9
HETATM    9  O1  UNL     1     -16.449   2.109  39.824  1.00  0.00    -0.394 OA
ATOM     10  H1  UNL     1     -15.704   2.423  39.326  1.00  0.00     0.210 HD
ENDBRANCH   7   9
ENDBRANCH   6   7
ENDBRANCH   3   6
ENDBRANCH   1   2
BRANCH   1  11
HETATM   11  N2  UNL     1     -15.636   6.300  35.670  1.00  0.00    -0.342 N
HETATM   12  C6  UNL     1     -16.530   7.337  35.421  1.00  0.00     0.252 C
HETATM   13  O3  UNL     1     -16.983   7.994  36.397  1.00  0.00    -0.271 OA
ATOM     14  H2  UNL     1     -15.273   5.772  34.876  1.00  0.00     0.163 HD
BRANCH  12  15
HETATM   15  C7  UNL     1     -16.981   7.714  34.059  1.00  0.00     0.279 C
BRANCH  15  16
HETATM   16  N3  UNL     1     -18.440   7.598  33.946  1.00  0.00    -0.323 N
HETATM   17  C8  UNL     1     -19.297   8.714  34.068  1.00  0.00     0.329 C
HETATM   18  N4  UNL     1     -20.693   8.553  33.953  1.00  0.00    -0.040 NA
HETATM   19  O4  UNL     1     -18.844   9.870  34.281  1.00  0.00    -0.251 OA
ATOM     20  H3  UNL     1     -18.849   6.680  33.773  1.00  0.00     0.165 HD
ENDBRANCH  15  16
BRANCH  15  21
HETATM   21  C9  UNL     1     -16.347   6.864  33.033  1.00  0.00     0.206 C
HETATM   22  O5  UNL     1     -17.059   6.173  32.285  1.00  0.00    -0.646 OA
HETATM   23  O6  UNL     1     -14.980   6.841  32.910  1.00  0.00    -0.646 OA
ENDBRANCH  15  21
ENDBRANCH  12  15
ENDBRANCH   1  11
BRANCH   1  24
HETATM   24  C10 UNL     1     -13.671   6.054  37.072  1.00  0.00     0.217 C
HETATM   25 CL1  UNL     1     -12.896   4.873  35.979  1.00  0.00    -0.081 Cl
HETATM   26 CL2  UNL     1     -13.051   5.986  38.700  1.00  0.00    -0.081 Cl
HETATM   27 CL3  UNL     1     -13.331   7.699  36.432  1.00  0.00    -0.081 Cl
ENDBRANCH   1  24
TORSDOF 9
ENDMDL