MODEL 2
REMARK VINA RESULT: -7.787136962      3.984      8.043
REMARK  9 active torsions:
REMARK  status: ('A' for Active; 'I' for Inactive)
REMARK    1  A    between atoms: N1_1  and  N2_4
REMARK    2  A    between atoms: C1_6  and  N3_7
REMARK    3  A    between atoms: C1_6  and  C4_13
REMARK    4  A    between atoms: N3_7  and  C2_9
REMARK    5  A    between atoms: C2_9  and  C3_10
REMARK    6  A    between atoms: C4_13  and  C5_14
REMARK    7  A    between atoms: C4_13  and  N5_21
REMARK    8  A    between atoms: C5_14  and  C6_15
REMARK    9  A    between atoms: C6_15  and  C7_16
REMARK       I    between atoms: N5_21  and  C9_23
REMARK       I    between atoms: C9_23  and  N6_25
ROOT
HETATM    1  C4  UNL     1     -14.868   5.832  36.263  1.00  0.00     0.155 C
ENDROOT
BRANCH   1   2
HETATM    2  C1  UNL     1     -15.923   5.070  36.968  1.00  0.00     0.115 C
HETATM    3  N2  UNL     1     -16.909   5.715  37.482  1.00  0.00    -0.294 N
ATOM      4  H2  UNL     1     -17.650   5.214  37.971  1.00  0.00     0.187 HD
BRANCH   3   5
HETATM    5  N1  UNL     1     -16.959   7.092  37.366  1.00  0.00    -0.344 N
ATOM      6  H12 UNL     1     -16.653   7.668  38.150  1.00  0.00     0.176 HD
ATOM      7  H11 UNL     1     -17.299   7.513  36.502  1.00  0.00     0.176 HD
ENDBRANCH   3   5
BRANCH   2   8
HETATM    8  N3  UNL     1     -15.907   3.673  37.104  1.00  0.00    -0.369 N
ATOM      9  H3  UNL     1     -15.089   3.154  36.788  1.00  0.00     0.161 HD
BRANCH   8  10
HETATM   10  C2  UNL     1     -17.018   2.953  37.680  1.00  0.00     0.220 C
BRANCH  10  11
HETATM   11  C3  UNL     1     -16.616   2.273  38.946  1.00  0.00     0.248 C
HETATM   12  N4  UNL     1     -15.523   1.378  38.996  1.00  0.00    -0.061 NA
HETATM   13  O1  UNL     1     -17.237   2.467  40.027  1.00  0.00    -0.275 OA
ENDBRANCH  10  11
ENDBRANCH   8  10
ENDBRANCH   2   8
ENDBRANCH   1   2
BRANCH   1  14
HETATM   14  C5  UNL     1     -13.513   5.130  36.355  1.00  0.00     0.040 C
BRANCH  14  15
HETATM   15  C6  UNL     1     -12.653   5.901  37.311  1.00  0.00     0.078 C
BRANCH  15  16
HETATM   16  C7  UNL     1     -12.808   5.502  38.709  1.00  0.00     0.161 C
HETATM   17  F1  UNL     1     -12.792   6.583  39.607  1.00  0.00    -0.205 F
HETATM   18  C8  UNL     1     -12.953   4.332  39.223  1.00  0.00     0.301 C
HETATM   19  F2  UNL     1     -12.990   3.205  38.508  1.00  0.00    -0.170 F
HETATM   20  F3  UNL     1     -13.084   4.188  40.587  1.00  0.00    -0.170 F
ENDBRANCH  15  16
ENDBRANCH  14  15
ENDBRANCH   1  14
BRANCH   1  21
HETATM   21  N5  UNL     1     -15.292   6.027  34.901  1.00  0.00    -0.331 N
HETATM   22  C9  UNL     1     -15.496   7.332  34.359  1.00  0.00     0.319 C
HETATM   23  O2  UNL     1     -15.305   8.369  35.073  1.00  0.00    -0.247 OA
HETATM   24  N6  UNL     1     -15.916   7.538  33.022  1.00  0.00    -0.332 N
HETATM   25  C10 UNL     1     -16.137   6.349  32.212  1.00  0.00     0.147 C
HETATM   26  C14 UNL     1     -16.064   8.932  32.654  1.00  0.00     0.136 C
HETATM   27  C11 UNL     1     -17.015   6.664  31.013  1.00  0.00     0.142 C
HETATM   28  N7  UNL     1     -16.372   7.570  30.106  1.00  0.00    -0.359 N
HETATM   29  C12 UNL     1     -15.420   8.585  30.351  1.00  0.00     0.219 C
ATOM     30  H7  UNL     1     -16.646   7.465  29.129  1.00  0.00     0.162 HD
HETATM   31  O3  UNL     1     -14.853   9.035  29.325  1.00  0.00    -0.274 OA
HETATM   32  C13 UNL     1     -14.978   9.209  31.627  1.00  0.00     0.122 C
ATOM     33  H5  UNL     1     -15.450   5.211  34.308  1.00  0.00     0.165 HD
ENDBRANCH   1  21
TORSDOF 9
ENDMDL