MODEL 5
REMARK VINA RESULT: -5.931388308      2.415      2.890
REMARK  7 active torsions:
REMARK  status: ('A' for Active; 'I' for Inactive)
REMARK       I    between atoms: C1_2  and  N1_3
REMARK    1  A    between atoms: C1_2  and  C10_22
REMARK    2  A    between atoms: N1_3  and  C2_5
REMARK    3  A    between atoms: C2_5  and  C3_6
REMARK    4  A    between atoms: C2_5  and  C4_8
REMARK    5  A    between atoms: C4_8  and  N2_9
REMARK    6  A    between atoms: C4_8  and  C9_19
REMARK       I    between atoms: N2_9  and  C5_11
REMARK    7  A    between atoms: C5_11  and  C6_13
ROOT
HETATM    1  C4  UNL     1     -14.650   6.685  36.709  1.00  0.00     0.209 C
ENDROOT
BRANCH   1   2
HETATM    2  C2  UNL     1     -15.783   7.023  35.805  1.00  0.00     0.127 C
BRANCH   2   3
HETATM    3  N1  UNL     1     -15.389   7.736  34.614  1.00  0.00    -0.351 N
HETATM    4  C1  UNL     1     -15.551   7.238  33.303  1.00  0.00     0.251 C
HETATM    5  O1  UNL     1     -16.065   6.112  33.140  1.00  0.00    -0.271 OA
ATOM      6  H1  UNL     1     -14.967   8.658  34.727  1.00  0.00     0.163 HD
BRANCH   4   7
HETATM    7  C10 UNL     1     -15.140   7.984  32.102  1.00  0.00     0.269 C
HETATM    8 CL1  UNL     1     -15.194   6.982  30.635  1.00  0.00    -0.098 Cl
HETATM    9 CL2  UNL     1     -13.495   8.638  32.241  1.00  0.00    -0.098 Cl
ENDBRANCH   4   7
ENDBRANCH   2   3
BRANCH   2  10
HETATM   10  C3  UNL     1     -16.904   7.762  36.546  1.00  0.00     0.113 C
HETATM   11 BR1  UNL     1     -17.082   9.563  35.861  1.00  0.00    -0.094 Br
ENDBRANCH   2  10
ENDBRANCH   1   2
BRANCH   1  12
HETATM   12  N2  UNL     1     -14.701   5.338  37.228  1.00  0.00    -0.343 N
HETATM   13  C5  UNL     1     -13.942   5.035  38.390  1.00  0.00     0.249 C
HETATM   14  O2  UNL     1     -13.234   5.900  38.969  1.00  0.00    -0.271 OA
ATOM     15  H2  UNL     1     -15.268   4.623  36.773  1.00  0.00     0.163 HD
BRANCH  13  16
HETATM   16  C6  UNL     1     -13.973   3.660  38.949  1.00  0.00     0.278 A
HETATM   17  C7  UNL     1     -15.249   2.918  38.617  1.00  0.00     0.070 A
HETATM   18  C8  UNL     1     -14.435   1.929  37.823  1.00  0.00     0.236 A
HETATM   19  N3  UNL     1     -13.245   2.681  38.168  1.00  0.00    -0.062 N
ATOM     20  H32 UNL     1     -12.645   3.012  37.413  1.00  0.00     0.278 HD
ATOM     21  H31 UNL     1     -12.470   2.186  38.612  1.00  0.00     0.278 HD
ENDBRANCH  13  16
ENDBRANCH   1  12
BRANCH   1  22
HETATM   22  C9  UNL     1     -13.389   6.795  35.921  1.00  0.00     0.198 C
HETATM   23  O3  UNL     1     -12.903   5.834  35.268  1.00  0.00    -0.646 OA
HETATM   24  O4  UNL     1     -12.748   8.026  35.929  1.00  0.00    -0.646 OA
ENDBRANCH   1  22
TORSDOF 7
ENDMDL