MODEL 4
REMARK VINA RESULT: -7.643484559      3.619      4.059
REMARK  7 active torsions:
REMARK  status: ('A' for Active; 'I' for Inactive)
REMARK       I    between atoms: C2_2  and  N1_4
REMARK    1  A    between atoms: N1_4  and  C3_6
REMARK    2  A    between atoms: C3_6  and  C5_8
REMARK       I    between atoms: C5_8  and  N2_10
REMARK    3  A    between atoms: N2_10  and  C6_12
REMARK    4  A    between atoms: C6_12  and  C7_13
REMARK    5  A    between atoms: C6_12  and  C13_26
REMARK    6  A    between atoms: C7_13  and  N3_14
REMARK       I    between atoms: N3_14  and  C8_16
REMARK    7  A    between atoms: C8_16  and  C9_18
ROOT
HETATM    1  C6  UNL     1     -14.486   5.121  37.939  1.00  0.00     0.116 C
ENDROOT
BRANCH   1   2
HETATM    2  N2  UNL     1     -14.904   3.743  38.263  1.00  0.00    -0.320 N
HETATM    3  C5  UNL     1     -16.240   3.349  38.466  1.00  0.00     0.244 C
HETATM    4  O2  UNL     1     -17.206   4.166  38.384  1.00  0.00    -0.271 OA
ATOM      5  H2  UNL     1     -14.178   3.031  38.345  1.00  0.00     0.169 HD
BRANCH   3   6
HETATM    6  C3  UNL     1     -16.558   1.935  38.790  1.00  0.00     0.172 C
HETATM    7  C4  UNL     1     -15.895   1.000  37.801  1.00  0.00     0.042 C
BRANCH   6   8
HETATM    8  N1  UNL     1     -17.989   1.725  38.877  1.00  0.00    -0.348 N
HETATM    9  C2  UNL     1     -18.738   1.972  40.041  1.00  0.00     0.214 C
HETATM   10  C1  UNL     1     -20.197   1.732  40.050  1.00  0.00     0.117 C
HETATM   11  O1  UNL     1     -18.157   2.394  41.064  1.00  0.00    -0.274 OA
ATOM     12  H1  UNL     1     -18.478   1.379  38.052  1.00  0.00     0.163 HD
ENDBRANCH   6   8
ENDBRANCH   3   6
ENDBRANCH   1   2
BRANCH   1  13
HETATM   13  C7  UNL     1     -14.765   5.432  36.532  1.00  0.00     0.126 C
BRANCH  13  14
HETATM   14  N3  UNL     1     -14.141   6.560  35.974  1.00  0.00    -0.329 N
HETATM   15  C8  UNL     1     -14.600   7.869  35.844  1.00  0.00     0.272 C
HETATM   16  O3  UNL     1     -15.707   8.251  36.269  1.00  0.00    -0.266 OA
ATOM     17  H3  UNL     1     -13.203   6.395  35.606  1.00  0.00     0.168 HD
BRANCH  15  18
HETATM   18  C9  UNL     1     -13.787   8.915  35.180  1.00  0.00     0.103 A
HETATM   19  C10 UNL     1     -12.410   8.909  35.138  1.00  0.00     0.062 A
HETATM   20  C11 UNL     1     -12.000  10.027  34.442  1.00  0.00     0.074 A
HETATM   21 CL1  UNL     1     -10.328  10.503  34.095  1.00  0.00    -0.081 Cl
HETATM   22  C12 UNL     1     -13.142  10.697  34.073  1.00  0.00     0.126 A
HETATM   23 CL2  UNL     1     -13.140  12.200  33.157  1.00  0.00    -0.063 Cl
HETATM   24  N4  UNL     1     -14.194  10.011  34.527  1.00  0.00    -0.341 N
ATOM     25  H4  UNL     1     -15.169  10.283  34.395  1.00  0.00     0.167 HD
ENDBRANCH  15  18
ENDBRANCH  13  14
ENDBRANCH   1  13
BRANCH   1  26
HETATM   26  C13 UNL     1     -13.241   5.477  38.551  1.00  0.00     0.282 C
HETATM   27  N5  UNL     1     -12.919   5.341  39.939  1.00  0.00    -0.056 NA
HETATM   28  O4  UNL     1     -12.308   5.956  37.816  1.00  0.00    -0.269 OA
ENDBRANCH   1  26
TORSDOF 7
ENDMDL