MODEL 4
REMARK VINA RESULT: -8.463100033      2.192      2.514
REMARK  8 active torsions:
REMARK  status: ('A' for Active; 'I' for Inactive)
REMARK    1  A    between atoms: C2_2  and  C4_4
REMARK       I    between atoms: C4_4  and  N1_6
REMARK    2  A    between atoms: N1_6  and  C5_8
REMARK    3  A    between atoms: C5_8  and  C6_9
REMARK    4  A    between atoms: C5_8  and  C12_21
REMARK    5  A    between atoms: C6_9  and  C7_10
REMARK       I    between atoms: C12_21  and  N3_23
REMARK    6  A    between atoms: N3_23  and  C13_25
REMARK    7  A    between atoms: C13_25  and  C15_27
REMARK       I    between atoms: C15_27  and  N4_29
REMARK    8  A    between atoms: N4_29  and  N5_31
ROOT
HETATM    1  C5  UNL     1     -15.860   7.292  35.461  1.00  0.00     0.181 C
ENDROOT
BRANCH   1   2
HETATM    2  N1  UNL     1     -17.202   7.380  34.985  1.00  0.00    -0.347 N
HETATM    3  C4  UNL     1     -17.815   8.319  34.157  1.00  0.00     0.221 C
HETATM    4  O1  UNL     1     -17.213   9.285  33.668  1.00  0.00    -0.273 OA
ATOM      5  H1  UNL     1     -17.816   6.631  35.304  1.00  0.00     0.163 HD
BRANCH   3   6
HETATM    6  C2  UNL     1     -19.274   8.157  33.842  1.00  0.00     0.070 C
HETATM    7  C1  UNL     1     -19.437   7.805  32.364  1.00  0.00     0.019 C
HETATM    8  C3  UNL     1     -19.903   9.533  34.015  1.00  0.00     0.019 C
ENDBRANCH   3   6
ENDBRANCH   1   2
BRANCH   1   9
HETATM    9  C6  UNL     1     -14.805   6.836  34.543  1.00  0.00     0.080 C
BRANCH   9  10
HETATM   10  C7  UNL     1     -13.882   7.775  33.930  1.00  0.00     0.032 A
HETATM   11  C8  UNL     1     -12.831   8.218  34.765  1.00  0.00     0.181 A
HETATM   12  F1  UNL     1     -12.701   7.775  36.037  1.00  0.00    -0.201 F
HETATM   13  C9  UNL     1     -11.904   9.121  34.307  1.00  0.00     0.230 A
HETATM   14  F2  UNL     1     -10.904   9.542  35.109  1.00  0.00    -0.183 F
HETATM   15  N2  UNL     1     -11.962   9.613  33.054  1.00  0.00    -0.295 N
HETATM   16  C10 UNL     1     -12.947   9.202  32.259  1.00  0.00     0.286 A
ATOM     17  H2  UNL     1     -11.268  10.283  32.722  1.00  0.00     0.171 HD
HETATM   18  O2  UNL     1     -13.057   9.632  31.062  1.00  0.00    -0.265 OA
HETATM   19  C11 UNL     1     -13.922   8.284  32.668  1.00  0.00     0.193 A
HETATM   20  F3  UNL     1     -14.854   7.974  31.747  1.00  0.00    -0.200 F
ENDBRANCH   9  10
ENDBRANCH   1   9
BRANCH   1  21
HETATM   21  C12 UNL     1     -15.864   6.575  36.761  1.00  0.00     0.241 C
HETATM   22  O3  UNL     1     -16.649   7.022  37.642  1.00  0.00    -0.271 OA
HETATM   23  N3  UNL     1     -15.051   5.455  37.033  1.00  0.00    -0.346 N
ATOM     24  H3  UNL     1     -14.415   5.102  36.318  1.00  0.00     0.163 HD
BRANCH  23  25
HETATM   25  C13 UNL     1     -15.116   4.807  38.321  1.00  0.00     0.174 C
HETATM   26  C14 UNL     1     -13.822   4.040  38.620  1.00  0.00     0.042 C
BRANCH  25  27
HETATM   27  C15 UNL     1     -16.210   3.830  38.409  1.00  0.00     0.258 C
HETATM   28  O4  UNL     1     -16.190   2.938  39.289  1.00  0.00    -0.270 OA
HETATM   29  N4  UNL     1     -17.294   3.871  37.515  1.00  0.00    -0.275 N
ATOM     30  H4  UNL     1     -17.304   4.601  36.802  1.00  0.00     0.189 HD
BRANCH  29  31
HETATM   31  N5  UNL     1     -18.360   2.964  37.549  1.00  0.00    -0.343 N
ATOM     32  H52 UNL     1     -18.332   2.240  38.266  1.00  0.00     0.176 HD
ATOM     33  H51 UNL     1     -19.147   2.995  36.902  1.00  0.00     0.176 HD
ENDBRANCH  29  31
ENDBRANCH  25  27
ENDBRANCH  23  25
ENDBRANCH   1  21
TORSDOF 8
ENDMDL