MODEL 4
REMARK VINA RESULT: -7.180586179      1.914      2.457
REMARK  9 active torsions:
REMARK  status: ('A' for Active; 'I' for Inactive)
REMARK    1  A    between atoms: N3_4  and  C2_6
REMARK    2  A    between atoms: C2_6  and  N4_7
REMARK    3  A    between atoms: C2_6  and  C12_28
REMARK    4  A    between atoms: N4_7  and  C3_10
REMARK    5  A    between atoms: C3_10  and  N5_11
REMARK    6  A    between atoms: C3_10  and  C4_15
REMARK    7  A    between atoms: C4_15  and  C5_16
REMARK    8  A    between atoms: C5_16  and  C6_17
REMARK       I    between atoms: C6_17  and  N6_19
REMARK    9  A    between atoms: N6_19  and  N7_21
ROOT
HETATM    1  C3  UNL     1     -13.283   9.113  34.756  1.00  0.00     0.383 C
ENDROOT
BRANCH   1   2
HETATM    2  N4  UNL     1     -13.523   8.479  33.490  1.00  0.00    -0.021 N
ATOM      3  H42 UNL     1     -13.761   7.492  33.586  1.00  0.00     0.282 HD
ATOM      4  H41 UNL     1     -12.671   8.365  32.941  1.00  0.00     0.282 HD
BRANCH   2   5
HETATM    5  C2  UNL     1     -14.543   9.229  32.783  1.00  0.00     0.343 C
BRANCH   5   6
HETATM    6  N3  UNL     1     -14.189   9.619  31.459  1.00  0.00    -0.336 N
HETATM    7  C1  UNL     1     -13.256  10.410  31.099  1.00  0.00     0.198 C
HETATM    8  N1  UNL     1     -13.138  10.612  29.673  1.00  0.00    -0.067 NA
HETATM    9  N2  UNL     1     -12.364  11.078  31.965  1.00  0.00    -0.067 NA
ATOM     10  H3  UNL     1     -14.749   9.216  30.708  1.00  0.00     0.164 HD
ENDBRANCH   5   6
BRANCH   5  11
HETATM   11  C12 UNL     1     -15.732   8.261  32.655  1.00  0.00     0.233 C
HETATM   12 CL1  UNL     1     -16.957   8.789  33.831  1.00  0.00    -0.080 Cl
HETATM   13 CL2  UNL     1     -15.208   6.591  32.975  1.00  0.00    -0.080 Cl
HETATM   14 CL3  UNL     1     -16.457   8.399  31.035  1.00  0.00    -0.080 Cl
ENDBRANCH   5  11
ENDBRANCH   2   5
ENDBRANCH   1   2
BRANCH   1  15
HETATM   15  N5  UNL     1     -11.885   9.498  34.804  1.00  0.00    -0.050 N
ATOM     16  H53 UNL     1     -11.328   9.052  34.075  1.00  0.00     0.276 HD
ATOM     17  H52 UNL     1     -11.732  10.465  34.520  1.00  0.00     0.276 HD
ATOM     18  H51 UNL     1     -11.537   9.302  35.743  1.00  0.00     0.276 HD
ENDBRANCH   1  15
BRANCH   1  19
HETATM   19  C4  UNL     1     -13.504   8.156  35.916  1.00  0.00     0.071 C
BRANCH  19  20
HETATM   20  C5  UNL     1     -12.716   6.899  35.779  1.00  0.00     0.108 C
BRANCH  20  21
HETATM   21  C6  UNL     1     -13.202   5.902  36.753  1.00  0.00     0.236 C
HETATM   22  O1  UNL     1     -12.673   5.831  37.883  1.00  0.00    -0.272 OA
HETATM   23  N6  UNL     1     -14.259   5.029  36.419  1.00  0.00    -0.265 N
ATOM     24  H6  UNL     1     -14.659   5.126  35.485  1.00  0.00     0.190 HD
BRANCH  23  25
HETATM   25  N7  UNL     1     -14.808   4.055  37.234  1.00  0.00    -0.259 N
HETATM   26  C7  UNL     1     -14.246   2.734  37.427  1.00  0.00     0.152 C
HETATM   27  C8  UNL     1     -15.430   1.767  37.304  1.00  0.00     0.022 C
HETATM   28  C9  UNL     1     -16.337   1.911  38.504  1.00  0.00     0.011 C
HETATM   29  C10 UNL     1     -16.284   3.324  39.082  1.00  0.00     0.105 C
HETATM   30  C11 UNL     1     -16.023   4.303  37.974  1.00  0.00     0.238 C
HETATM   31  O2  UNL     1     -16.760   5.254  37.689  1.00  0.00    -0.272 OA
ENDBRANCH  23  25
ENDBRANCH  20  21
ENDBRANCH  19  20
ENDBRANCH   1  19
TORSDOF 9
ENDMDL