MODEL 4
REMARK VINA RESULT: -7.340710038      2.325      6.028
REMARK  10 active torsions:
REMARK  status: ('A' for Active; 'I' for Inactive)
REMARK    1  A    between atoms: C2_2  and  C3_3
REMARK    2  A    between atoms: C2_2  and  N3_9
REMARK    3  A    between atoms: C3_3  and  C4_4
REMARK    4  A    between atoms: N3_9  and  C5_11
REMARK    5  A    between atoms: C5_11  and  C10_28
REMARK       I    between atoms: N4_12  and  C6_14
REMARK    6  A    between atoms: C6_14  and  C7_16
REMARK    7  A    between atoms: C7_16  and  N5_17
REMARK    8  A    between atoms: C7_16  and  C8_21
REMARK    9  A    between atoms: C8_21  and  N6_22
REMARK   10  A    between atoms: C8_21  and  C9_26
REMARK       I    between atoms: C10_28  and  N7_30
ROOT
HETATM    1  C5  UNL     1     -14.250   8.688  34.563  1.00  0.00     0.173 C
HETATM    2  N4  UNL     1     -14.423   8.449  33.332  1.00  0.00    -0.307 N
ATOM      3  H4  UNL     1     -13.788   8.967  32.725  1.00  0.00     0.170 HD
HETATM    4  C6  UNL     1     -15.302   7.626  32.641  1.00  0.00     0.256 C
HETATM    5  O1  UNL     1     -15.118   6.367  32.710  1.00  0.00    -0.271 OA
ENDROOT
BRANCH   1   6
HETATM    6  N3  UNL     1     -13.194   9.638  34.853  1.00  0.00    -0.367 N
ATOM      7  H3  UNL     1     -13.164  10.086  35.768  1.00  0.00     0.161 HD
BRANCH   6   8
HETATM    8  C2  UNL     1     -12.181   9.962  33.873  1.00  0.00     0.085 C
HETATM    9  C1  UNL     1     -10.834   9.748  34.470  1.00  0.00     0.032 C
BRANCH   8  10
HETATM   10  C3  UNL     1     -12.401  11.324  33.311  1.00  0.00     0.097 C
BRANCH  10  11
HETATM   11  C4  UNL     1     -12.640  11.342  31.860  1.00  0.00     0.088 C
HETATM   12  N1  UNL     1     -12.433  12.428  31.198  1.00  0.00    -0.391 N
ATOM     13  H12 UNL     1     -12.106  13.245  31.713  1.00  0.00     0.157 HD
ATOM     14  H11 UNL     1     -12.599  12.440  30.191  1.00  0.00     0.157 HD
HETATM   15  N2  UNL     1     -13.092  10.214  31.148  1.00  0.00    -0.088 NA
ENDBRANCH  10  11
ENDBRANCH   8  10
ENDBRANCH   6   8
ENDBRANCH   1   6
BRANCH   1  16
HETATM   16  C10 UNL     1     -14.998   8.088  35.619  1.00  0.00     0.287 C
HETATM   17  O2  UNL     1     -16.236   8.447  35.690  1.00  0.00    -0.264 OA
HETATM   18  N7  UNL     1     -14.532   7.164  36.570  1.00  0.00    -0.345 N
HETATM   19  C11 UNL     1     -13.218   6.612  36.698  1.00  0.00     0.132 C
HETATM   20  C15 UNL     1     -15.512   6.688  37.569  1.00  0.00     0.132 C
HETATM   21  C12 UNL     1     -13.134   5.842  38.025  1.00  0.00     0.099 C
HETATM   22  C13 UNL     1     -14.090   4.667  37.915  1.00  0.00     0.246 C
HETATM   23  F2  UNL     1     -13.693   3.922  36.822  1.00  0.00    -0.206 F
HETATM   24  F3  UNL     1     -13.993   3.924  39.054  1.00  0.00    -0.206 F
HETATM   25  C14 UNL     1     -15.500   5.171  37.658  1.00  0.00     0.099 C
ENDBRANCH   1  16
BRANCH   4  26
HETATM   26  C7  UNL     1     -16.429   8.175  31.837  1.00  0.00     0.307 C
BRANCH  26  27
HETATM   27  N5  UNL     1     -16.250   9.560  31.552  1.00  0.00    -0.064 N
ATOM     28  H53 UNL     1     -17.067  10.105  31.830  1.00  0.00     0.275 HD
ATOM     29  H52 UNL     1     -15.558   9.980  32.172  1.00  0.00     0.275 HD
ATOM     30  H51 UNL     1     -16.015   9.717  30.572  1.00  0.00     0.275 HD
ENDBRANCH  26  27
BRANCH  26  31
HETATM   31  C8  UNL     1     -17.778   7.914  32.410  1.00  0.00     0.251 C
BRANCH  31  32
HETATM   32  N6  UNL     1     -17.719   7.164  33.659  1.00  0.00    -0.070 N
ATOM     33  H63 UNL     1     -17.399   6.209  33.498  1.00  0.00     0.274 HD
ATOM     34  H62 UNL     1     -16.958   7.495  34.250  1.00  0.00     0.274 HD
ATOM     35  H61 UNL     1     -18.605   7.174  34.163  1.00  0.00     0.274 HD
ENDBRANCH  31  32
BRANCH  31  36
HETATM   36  C9  UNL     1     -18.575   7.062  31.452  1.00  0.00     0.257 C
HETATM   37  F1  UNL     1     -18.012   5.828  31.329  1.00  0.00    -0.253 F
ENDBRANCH  31  36
ENDBRANCH  26  31
ENDBRANCH   4  26
TORSDOF 10
ENDMDL