MODEL 1
REMARK VINA RESULT: -7.968706094      0.000      0.000
REMARK  7 active torsions:
REMARK  status: ('A' for Active; 'I' for Inactive)
REMARK    1  A    between atoms: C1_2  and  C2_4
REMARK    2  A    between atoms: C2_4  and  N2_5
REMARK    3  A    between atoms: C2_4  and  C9_19
REMARK       I    between atoms: N2_5  and  C3_7
REMARK    4  A    between atoms: C3_7  and  C4_9
REMARK    5  A    between atoms: C5_12  and  C6_13
REMARK       I    between atoms: C9_19  and  N5_21
REMARK    6  A    between atoms: N5_21  and  C10_23
REMARK    7  A    between atoms: C10_23  and  C11_24
ROOT
HETATM    1  N2  UNL     1     -13.889   5.253  37.199  1.00  0.00    -0.335 N
ATOM      2  H2  UNL     1     -13.197   4.698  36.693  1.00  0.00     0.164 HD
HETATM    3  C3  UNL     1     -14.235   6.515  36.755  1.00  0.00     0.270 C
HETATM    4  O2  UNL     1     -15.120   7.135  37.464  1.00  0.00    -0.266 OA
ENDROOT
BRANCH   1   5
HETATM    5  C2  UNL     1     -14.535   4.717  38.418  1.00  0.00     0.266 C
BRANCH   5   6
HETATM    6  C1  UNL     1     -13.548   4.155  39.320  1.00  0.00     0.263 C
HETATM    7  N1  UNL     1     -13.112   2.805  39.272  1.00  0.00    -0.060 NA
HETATM    8  O1  UNL     1     -13.035   4.887  40.211  1.00  0.00    -0.274 OA
ENDBRANCH   5   6
BRANCH   5   9
HETATM    9  C9  UNL     1     -15.641   3.802  37.985  1.00  0.00     0.249 C
HETATM   10  O4  UNL     1     -15.382   3.118  36.934  1.00  0.00    -0.271 OA
HETATM   11  N5  UNL     1     -16.859   3.672  38.642  1.00  0.00    -0.354 N
ATOM     12  H5  UNL     1     -16.957   4.242  39.482  1.00  0.00     0.162 HD
BRANCH  11  13
HETATM   13  C10 UNL     1     -17.994   2.865  38.324  1.00  0.00     0.193 C
BRANCH  13  14
HETATM   14  C11 UNL     1     -18.563   2.132  39.472  1.00  0.00     0.370 C
HETATM   15  F1  UNL     1     -18.057   2.714  40.628  1.00  0.00    -0.213 F
HETATM   16  F2  UNL     1     -19.912   2.154  39.512  1.00  0.00    -0.213 F
ENDBRANCH  13  14
ENDBRANCH  11  13
ENDBRANCH   5   9
ENDBRANCH   1   5
BRANCH   3  17
HETATM   17  C4  UNL     1     -13.732   7.234  35.593  1.00  0.00     0.120 A
HETATM   18  N3  UNL     1     -12.572   7.967  35.580  1.00  0.00    -0.347 N
HETATM   19  C5  UNL     1     -12.369   8.502  34.375  1.00  0.00     0.096 A
ATOM     20  H3  UNL     1     -11.951   8.086  36.381  1.00  0.00     0.166 HD
HETATM   21  C7  UNL     1     -13.393   8.145  33.533  1.00  0.00     0.096 A
HETATM   22  N4  UNL     1     -13.581   8.493  32.155  1.00  0.00    -0.098 NA
HETATM   23  C8  UNL     1     -14.225   7.356  34.318  1.00  0.00     0.069 A
HETATM   24 BR1  UNL     1     -15.823   6.568  33.643  1.00  0.00    -0.046 Br
BRANCH  19  25
HETATM   25  C6  UNL     1     -11.228   9.353  34.000  1.00  0.00     0.290 C
HETATM   26  O3  UNL     1     -10.271   8.893  33.327  1.00  0.00    -0.300 OA
ENDBRANCH  19  25
ENDBRANCH   3  17
TORSDOF 7
ENDMDL