MODEL 1
REMARK VINA RESULT: -7.582839254      0.000      0.000
REMARK  8 active torsions:
REMARK  status: ('A' for Active; 'I' for Inactive)
REMARK    1  A    between atoms: C1_2  and  C2_4
REMARK    2  A    between atoms: C2_4  and  N2_5
REMARK    3  A    between atoms: C2_4  and  C13_28
REMARK       I    between atoms: N2_5  and  C3_7
REMARK    4  A    between atoms: C3_7  and  C4_9
REMARK    5  A    between atoms: C6_11  and  N3_12
REMARK       I    between atoms: N3_12  and  C7_14
REMARK    6  A    between atoms: C7_14  and  C8_16
REMARK    7  A    between atoms: C8_16  and  C9_17
REMARK       I    between atoms: C9_17  and  N4_19
REMARK    8  A    between atoms: N4_19  and  C10_21
ROOT
HETATM    1  C4  UNL     1     -12.895   6.778  36.625  1.00  0.00     0.081 C
HETATM    2  C5  UNL     1     -13.514   6.171  37.851  1.00  0.00     0.039 C
HETATM    3  C6  UNL     1     -13.090   4.810  37.349  1.00  0.00     0.086 C
HETATM    4  C12 UNL     1     -13.025   5.410  35.954  1.00  0.00     0.039 C
ENDROOT
BRANCH   3   5
HETATM    5  N3  UNL     1     -14.068   3.774  37.475  1.00  0.00    -0.356 N
HETATM    6  C7  UNL     1     -13.859   2.739  38.432  1.00  0.00     0.226 C
HETATM    7  O3  UNL     1     -12.831   2.752  39.143  1.00  0.00    -0.273 OA
ATOM      8  H3  UNL     1     -14.903   3.777  36.888  1.00  0.00     0.162 HD
BRANCH   6   9
HETATM    9  C8  UNL     1     -14.904   1.696  38.517  1.00  0.00     0.205 C
BRANCH   9  10
HETATM   10  C9  UNL     1     -16.214   2.259  38.903  1.00  0.00     0.230 C
HETATM   11  O4  UNL     1     -16.270   3.398  39.415  1.00  0.00    -0.273 OA
HETATM   12  N4  UNL     1     -17.402   1.526  38.700  1.00  0.00    -0.300 N
ATOM     13  H4  UNL     1     -17.356   0.598  38.282  1.00  0.00     0.167 HD
BRANCH  12  14
HETATM   14  C10 UNL     1     -18.667   2.070  39.073  1.00  0.00     0.366 A
HETATM   15  F1  UNL     1     -19.264   2.999  38.211  1.00  0.00    -0.184 F
HETATM   16  C11 UNL     1     -19.590   1.337  39.957  1.00  0.00     0.336 A
HETATM   17  N5  UNL     1     -18.774   2.390  40.498  1.00  0.00    -0.011 N
ATOM     18  H52 UNL     1     -18.107   2.452  41.268  1.00  0.00     0.283 HD
ATOM     19  H51 UNL     1     -18.964   3.241  41.027  1.00  0.00     0.283 HD
ENDBRANCH  12  14
ENDBRANCH   9  10
ENDBRANCH   6   9
ENDBRANCH   3   5
BRANCH   1  20
HETATM   20  C3  UNL     1     -13.724   7.782  35.928  1.00  0.00     0.222 C
HETATM   21  N2  UNL     1     -15.087   7.472  35.673  1.00  0.00    -0.345 N
ATOM     22  H2  UNL     1     -15.448   6.568  35.979  1.00  0.00     0.163 HD
HETATM   23  O2  UNL     1     -13.195   8.868  35.589  1.00  0.00    -0.273 OA
BRANCH  21  24
HETATM   24  C2  UNL     1     -15.981   8.382  35.001  1.00  0.00     0.206 C
BRANCH  24  25
HETATM   25  C1  UNL     1     -17.305   8.295  35.596  1.00  0.00     0.256 C
HETATM   26  N1  UNL     1     -18.457   8.759  34.914  1.00  0.00    -0.060 NA
HETATM   27  O1  UNL     1     -17.457   7.803  36.735  1.00  0.00    -0.274 OA
ENDBRANCH  24  25
BRANCH  24  28
HETATM   28  C13 UNL     1     -15.961   8.078  33.521  1.00  0.00     0.209 C
HETATM   29 CL1  UNL     1     -14.821   9.059  32.621  1.00  0.00    -0.105 Cl
HETATM   30 CL2  UNL     1     -15.682   6.374  33.180  1.00  0.00    -0.105 Cl
ENDBRANCH  24  28
ENDBRANCH  21  24
ENDBRANCH   1  20
TORSDOF 8
ENDMDL