MODEL 3
REMARK VINA RESULT: -7.242755690      0.704      1.380
REMARK  15 active torsions:
REMARK  status: ('A' for Active; 'I' for Inactive)
REMARK    1  A    between atoms: C2_2  and  C3_3
REMARK    2  A    between atoms: C3_3  and  N1_4
REMARK    3  A    between atoms: N1_4  and  C4_6
REMARK    4  A    between atoms: C5_9  and  N3_10
REMARK    5  A    between atoms: N3_10  and  C6_12
REMARK    6  A    between atoms: C6_12  and  C7_13
REMARK    7  A    between atoms: C7_13  and  C8_14
REMARK    8  A    between atoms: C8_14  and  C9_15
REMARK    9  A    between atoms: C9_15  and  C10_16
REMARK   10  A    between atoms: C10_16  and  C11_17
REMARK   11  A    between atoms: C11_17  and  C12_18
REMARK   12  A    between atoms: C16_26  and  N6_27
REMARK   13  A    between atoms: N7_30  and  C17_31
REMARK   14  A    between atoms: C19_36  and  C20_37
REMARK   15  A    between atoms: C20_37  and  O1_38
ROOT
HETATM    1  C4  UNL     1      59.972  42.053   8.737  1.00  0.00     0.152 A
HETATM    2  N2  UNL     1      59.483  42.415   7.506  1.00  0.00    -0.174 N
ATOM      3  H2  UNL     1      59.765  43.321   7.133  1.00  0.00     0.186 HD
HETATM    4  C5  UNL     1      58.669  41.673   6.766  1.00  0.00     0.681 A
HETATM    5  N4  UNL     1      58.291  40.478   7.244  1.00  0.00    -0.173 N
ATOM      6  H4  UNL     1      57.666  39.898   6.684  1.00  0.00     0.186 HD
HETATM    7  C14 UNL     1      58.709  40.020   8.437  1.00  0.00     0.172 A
HETATM    8  C15 UNL     1      59.567  40.821   9.201  1.00  0.00     0.139 A
HETATM    9  N5  UNL     1      59.814  40.122  10.321  1.00  0.00    -0.184 N
ATOM     10  H5  UNL     1      60.411  40.434  11.088  1.00  0.00     0.184 HD
HETATM   11  C16 UNL     1      59.150  38.937  10.277  1.00  0.00     0.682 A
HETATM   12  N7  UNL     1      58.485  38.881   9.139  1.00  0.00    -0.137 N
ENDROOT
BRANCH   4  13
HETATM   13  N3  UNL     1      58.239  42.089   5.592  1.00  0.00    -0.226 N
ATOM     14  H3  UNL     1      58.883  42.585   4.976  1.00  0.00     0.177 HD
BRANCH  13  15
HETATM   15  C6  UNL     1      56.895  41.866   5.158  1.00  0.00     0.138 C
BRANCH  15  16
HETATM   16  C7  UNL     1      56.983  41.329   3.723  1.00  0.00     0.020 C
BRANCH  16  17
HETATM   17  C8  UNL     1      55.643  40.648   3.467  1.00  0.00     0.002 C
BRANCH  17  18
HETATM   18  C9  UNL     1      55.493  40.371   1.994  1.00  0.00     0.000 C
BRANCH  18  19
HETATM   19  C10 UNL     1      56.626  40.913   1.182  1.00  0.00     0.000 C
BRANCH  19  20
HETATM   20  C11 UNL     1      56.128  41.828   0.095  1.00  0.00    -0.000 C
BRANCH  20  21
HETATM   21  C12 UNL     1      55.212  42.903   0.641  1.00  0.00    -0.005 C
HETATM   22  C13 UNL     1      56.049  43.958   1.367  1.00  0.00     0.005 C
ENDBRANCH  20  21
ENDBRANCH  19  20
ENDBRANCH  18  19
ENDBRANCH  17  18
ENDBRANCH  16  17
ENDBRANCH  15  16
ENDBRANCH  13  15
ENDBRANCH   4  13
BRANCH   1  23
HETATM   23  N1  UNL     1      60.725  42.806   9.356  1.00  0.00    -0.350 N
ATOM     24  H1  UNL     1      61.609  42.830   8.848  1.00  0.00     0.166 HD
BRANCH  23  25
HETATM   25  C3  UNL     1      60.864  43.623  10.443  1.00  0.00     0.089 C
BRANCH  25  26
HETATM   26  C2  UNL     1      59.684  43.662  11.376  1.00  0.00     0.007 C
HETATM   27  C1  UNL     1      59.654  44.594  12.301  1.00  0.00     0.012 C
ENDBRANCH  25  26
ENDBRANCH  23  25
ENDBRANCH   1  23
BRANCH  12  28
HETATM   28  C17 UNL     1      57.638  37.838   8.630  1.00  0.00     0.276 C
HETATM   29  C18 UNL     1      58.292  36.653   8.083  1.00  0.00     0.290 C
HETATM   30  N8  UNL     1      58.159  35.650   9.089  1.00  0.00    -0.043 N
HETATM   31  C19 UNL     1      56.969  36.051   9.791  1.00  0.00     0.346 C
ATOM     32  H82 UNL     1      58.143  34.694   8.736  1.00  0.00     0.280 HD
ATOM     33  H81 UNL     1      58.981  35.528   9.680  1.00  0.00     0.280 HD
HETATM   34  O2  UNL     1      56.832  37.405   9.667  1.00  0.00    -0.329 OA
BRANCH  31  35
HETATM   35  C20 UNL     1      55.757  35.273   9.294  1.00  0.00     0.225 C
BRANCH  35  36
HETATM   36  O1  UNL     1      54.605  36.024   9.291  1.00  0.00    -0.397 OA
ATOM     37  H1  UNL     1      53.848  35.537   8.986  1.00  0.00     0.209 HD
ENDBRANCH  35  36
ENDBRANCH  31  35
ENDBRANCH  12  28
BRANCH  11  38
HETATM   38  N6  UNL     1      59.180  38.054  11.186  1.00  0.00    -0.234 N
ATOM     39  H62 UNL     1      58.381  37.660  11.682  1.00  0.00     0.174 HD
ATOM     40  H61 UNL     1      60.026  37.614  11.546  1.00  0.00     0.174 HD
ENDBRANCH  11  38
TORSDOF 15
ENDMDL