MODEL 5
REMARK VINA RESULT: -6.321786234      2.481      3.900
REMARK  16 active torsions:
REMARK  status: ('A' for Active; 'I' for Inactive)
REMARK    1  A    between atoms: C2_2  and  C3_3
REMARK    2  A    between atoms: C3_3  and  C4_4
REMARK    3  A    between atoms: C4_4  and  C5_5
REMARK    4  A    between atoms: C5_5  and  C6_6
REMARK    5  A    between atoms: C6_6  and  C7_7
REMARK    6  A    between atoms: C7_7  and  C8_8
REMARK    7  A    between atoms: C8_8  and  C9_9
REMARK    8  A    between atoms: C9_9  and  C10_10
REMARK    9  A    between atoms: C10_10  and  C11_11
REMARK   10  A    between atoms: C11_11  and  C12_12
REMARK   11  A    between atoms: C13_13  and  O1_14
REMARK   12  A    between atoms: C14_16  and  O2_17
REMARK   13  A    between atoms: C15_19  and  O3_20
REMARK   14  A    between atoms: S1_22  and  C16_23
REMARK   15  A    between atoms: C19_27  and  O5_28
REMARK   16  A    between atoms: C20_30  and  O6_31
ROOT
HETATM    1  C12 UNL     1      59.570  42.376  11.292  1.00  0.00     0.074 C
HETATM    2  C13 UNL     1      59.778  43.804  11.039  1.00  0.00     0.163 C
HETATM    3  C14 UNL     1      59.526  44.522  12.367  1.00  0.00     0.186 C
HETATM    4  C15 UNL     1      60.400  43.871  13.381  1.00  0.00     0.204 C
HETATM    5  S1  UNL     1      60.354  42.166  12.893  1.00  0.00    -0.150 SA
ENDROOT
BRANCH   1   6
HETATM    6  C11 UNL     1      59.984  41.350  10.344  1.00  0.00     0.017 C
BRANCH   6   7
HETATM    7  C10 UNL     1      59.247  41.231   9.074  1.00  0.00     0.001 C
BRANCH   7   8
HETATM    8  C9  UNL     1      59.630  42.028   7.898  1.00  0.00     0.000 C
BRANCH   8   9
HETATM    9  C8  UNL     1      58.628  41.867   6.754  1.00  0.00     0.000 C
BRANCH   9  10
HETATM   10  C7  UNL     1      58.008  40.476   6.740  1.00  0.00     0.000 C
BRANCH  10  11
HETATM   11  C6  UNL     1      57.044  40.383   5.592  1.00  0.00     0.000 C
BRANCH  11  12
HETATM   12  C5  UNL     1      57.002  41.677   4.826  1.00  0.00     0.000 C
BRANCH  12  13
HETATM   13  C4  UNL     1      55.685  41.806   4.134  1.00  0.00     0.000 C
BRANCH  13  14
HETATM   14  C3  UNL     1      55.846  42.480   2.760  1.00  0.00    -0.000 C
BRANCH  14  15
HETATM   15  C2  UNL     1      56.619  41.506   1.903  1.00  0.00    -0.005 C
HETATM   16  C1  UNL     1      56.295  41.722   0.433  1.00  0.00     0.005 C
ENDBRANCH  14  15
ENDBRANCH  13  14
ENDBRANCH  12  13
ENDBRANCH  11  12
ENDBRANCH  10  11
ENDBRANCH   9  10
ENDBRANCH   8   9
ENDBRANCH   7   8
ENDBRANCH   6   7
ENDBRANCH   1   6
BRANCH   2  17
HETATM   17  O1  UNL     1      61.023  44.151  10.537  1.00  0.00    -0.392 OA
ATOM     18  H1  UNL     1      61.086  45.019  10.155  1.00  0.00     0.210 HD
ENDBRANCH   2  17
BRANCH   5  19
HETATM   19  C16 UNL     1      61.993  41.571  12.781  1.00  0.00     0.208 C
HETATM   20  O4  UNL     1      62.240  40.395  13.434  1.00  0.00    -0.366 OA
HETATM   21  C17 UNL     1      63.437  40.471  14.090  1.00  0.00     0.150 C
HETATM   22  C18 UNL     1      64.565  40.123  13.168  1.00  0.00     0.042 C
HETATM   23  C19 UNL     1      63.574  41.923  14.489  1.00  0.00     0.178 C
HETATM   24  C20 UNL     1      62.921  42.618  13.313  1.00  0.00     0.187 C
BRANCH  23  25
HETATM   25  O5  UNL     1      64.935  42.238  14.575  1.00  0.00    -0.390 OA
ATOM     26  H5  UNL     1      65.060  43.130  14.273  1.00  0.00     0.210 HD
ENDBRANCH  23  25
BRANCH  24  27
HETATM   27  O6  UNL     1      63.897  42.993  12.402  1.00  0.00    -0.390 OA
ATOM     28  H6  UNL     1      64.492  43.651  12.742  1.00  0.00     0.210 HD
ENDBRANCH  24  27
ENDBRANCH   5  19
BRANCH   3  29
HETATM   29  O2  UNL     1      59.925  45.857  12.240  1.00  0.00    -0.390 OA
ATOM     30  H2  UNL     1      60.375  46.118  13.035  1.00  0.00     0.210 HD
ENDBRANCH   3  29
BRANCH   4  31
HETATM   31  O3  UNL     1      59.854  44.035  14.673  1.00  0.00    -0.383 OA
ATOM     32  H3  UNL     1      59.126  44.645  14.646  1.00  0.00     0.211 HD
ENDBRANCH   4  31
TORSDOF 16
ENDMDL