MODEL 3
REMARK VINA RESULT: -7.429353442      1.393      2.019
REMARK  17 active torsions:
REMARK  status: ('A' for Active; 'I' for Inactive)
REMARK    1  A    between atoms: C2_2  and  C3_3
REMARK    2  A    between atoms: C3_3  and  C4_4
REMARK    3  A    between atoms: C4_4  and  C5_5
REMARK    4  A    between atoms: C6_6  and  C7_7
REMARK    5  A    between atoms: C7_7  and  C8_8
REMARK    6  A    between atoms: C8_8  and  C9_9
REMARK    7  A    between atoms: C9_9  and  C10_10
REMARK    8  A    between atoms: C11_12  and  C12_13
REMARK    9  A    between atoms: C13_14  and  C14_15
REMARK   10  A    between atoms: C14_15  and  O2_16
REMARK   11  A    between atoms: C14_15  and  C15_18
REMARK   12  A    between atoms: C15_18  and  C16_19
REMARK   13  A    between atoms: C19_22  and  O3_23
REMARK   14  A    between atoms: C20_25  and  O4_26
REMARK   15  A    between atoms: C21_28  and  O5_29
REMARK   16  A    between atoms: C22_31  and  O6_32
REMARK   17  A    between atoms: C23_34  and  O7_35
ROOT
HETATM    1  C10 UNL     1      58.460  39.434   8.046  1.00  0.00     0.153 C
HETATM    2  O1  UNL     1      59.642  40.099   8.508  1.00  0.00    -0.371 OA
HETATM    3  C11 UNL     1      59.182  41.393   8.550  1.00  0.00     0.176 C
HETATM    4  C22 UNL     1      58.445  41.635   7.247  1.00  0.00     0.182 C
HETATM    5  C23 UNL     1      58.346  40.198   6.711  1.00  0.00     0.178 C
ENDROOT
BRANCH   3   6
HETATM    6  C12 UNL     1      60.201  42.423   8.815  1.00  0.00     0.006 C
HETATM    7  C13 UNL     1      60.294  43.160   9.890  1.00  0.00     0.003 C
BRANCH   7   8
HETATM    8  C14 UNL     1      59.391  43.108  11.068  1.00  0.00     0.141 C
BRANCH   8   9
HETATM    9  O2  UNL     1      59.173  44.370  11.612  1.00  0.00    -0.392 OA
ATOM     10  H2  UNL     1      58.938  45.008  10.948  1.00  0.00     0.210 HD
ENDBRANCH   8   9
BRANCH   8  11
HETATM   11  C15 UNL     1      59.899  42.186  12.140  1.00  0.00     0.043 C
BRANCH  11  12
HETATM   12  C16 UNL     1      60.946  42.764  13.027  1.00  0.00     0.020 C
HETATM   13  C17 UNL     1      60.531  42.911  14.474  1.00  0.00     0.010 C
HETATM   14  C18 UNL     1      61.727  42.871  15.403  1.00  0.00     0.035 C
HETATM   15  C19 UNL     1      62.958  43.412  14.712  1.00  0.00     0.149 C
HETATM   16  C20 UNL     1      63.347  42.463  13.599  1.00  0.00     0.175 C
HETATM   17  C21 UNL     1      62.124  41.789  13.019  1.00  0.00     0.153 C
BRANCH  15  18
HETATM   18  O3  UNL     1      64.001  43.504  15.603  1.00  0.00    -0.393 OA
ATOM     19  H3  UNL     1      64.325  42.637  15.820  1.00  0.00     0.210 HD
ENDBRANCH  15  18
BRANCH  16  20
HETATM   20  O4  UNL     1      63.905  43.241  12.577  1.00  0.00    -0.390 OA
ATOM     21  H4  UNL     1      64.757  42.870  12.382  1.00  0.00     0.210 HD
ENDBRANCH  16  20
BRANCH  17  22
HETATM   22  O5  UNL     1      61.780  40.627  13.690  1.00  0.00    -0.393 OA
ATOM     23  H5  UNL     1      62.210  40.603  14.536  1.00  0.00     0.210 HD
ENDBRANCH  17  22
ENDBRANCH  11  12
ENDBRANCH   8  11
ENDBRANCH   7   8
ENDBRANCH   3   6
BRANCH   4  24
HETATM   24  O6  UNL     1      57.134  42.058   7.458  1.00  0.00    -0.390 OA
ATOM     25  H6  UNL     1      57.019  42.979   7.252  1.00  0.00     0.210 HD
ENDBRANCH   4  24
BRANCH   1  26
HETATM   26  C9  UNL     1      58.722  37.999   7.852  1.00  0.00     0.035 C
BRANCH  26  27
HETATM   27  C8  UNL     1      59.662  37.664   6.771  1.00  0.00     0.006 C
BRANCH  27  28
HETATM   28  C7  UNL     1      60.725  36.667   6.950  1.00  0.00     0.027 C
BRANCH  28  29
HETATM   29  C6  UNL     1      61.566  36.686   8.126  1.00  0.00    -0.031 C
HETATM   30  C5  UNL     1      62.813  36.194   8.100  1.00  0.00    -0.031 C
BRANCH  30  31
HETATM   31  C4  UNL     1      63.700  36.197   9.283  1.00  0.00     0.027 C
BRANCH  31  32
HETATM   32  C3  UNL     1      63.070  36.994  10.379  1.00  0.00     0.003 C
BRANCH  32  33
HETATM   33  C2  UNL     1      63.620  38.406  10.453  1.00  0.00    -0.004 C
HETATM   34  C1  UNL     1      62.547  39.441  10.391  1.00  0.00     0.005 C
ENDBRANCH  32  33
ENDBRANCH  31  32
ENDBRANCH  30  31
ENDBRANCH  28  29
ENDBRANCH  27  28
ENDBRANCH  26  27
ENDBRANCH   1  26
BRANCH   5  35
HETATM   35  O7  UNL     1      57.160  39.975   6.082  1.00  0.00    -0.390 OA
ATOM     36  H7  UNL     1      56.830  39.095   6.225  1.00  0.00     0.210 HD
ENDBRANCH   5  35
TORSDOF 17
ENDMDL