MODEL 1
REMARK VINA RESULT: -6.609350895      0.000      0.000
REMARK  14 active torsions:
REMARK  status: ('A' for Active; 'I' for Inactive)
REMARK       I    between atoms: C1_4  and  N3_6
REMARK    1  A    between atoms: N3_6  and  C2_8
REMARK    2  A    between atoms: C2_8  and  C3_9
REMARK    3  A    between atoms: C3_9  and  C4_10
REMARK    4  A    between atoms: C4_10  and  N4_11
REMARK    5  A    between atoms: C6_16  and  C7_17
REMARK    6  A    between atoms: C6_16  and  C11_25
REMARK    7  A    between atoms: C7_17  and  C8_18
REMARK    8  A    between atoms: C8_18  and  C9_19
REMARK    9  A    between atoms: C9_19  and  C10_20
REMARK   10  A    between atoms: C10_20  and  N6_21
REMARK   11  A    between atoms: C11_25  and  C12_26
REMARK   12  A    between atoms: C12_26  and  C13_27
REMARK   13  A    between atoms: C13_27  and  N7_28
REMARK   14  A    between atoms: N8_36  and  N9_38
ROOT
HETATM    1  N4  UNL     1      54.032  38.148   4.025  1.00  0.00    -0.297 N
HETATM    2  C5  UNL     1      52.668  37.765   3.940  1.00  0.00     0.100 C
HETATM    3  N5  UNL     1      51.730  38.531   3.537  1.00  0.00    -0.387 N
ATOM      4  H51 UNL     1      50.750  38.255   3.476  1.00  0.00     0.157 HD
ATOM      5  H52 UNL     1      51.862  39.494   3.229  1.00  0.00     0.157 HD
HETATM    6  C6  UNL     1      52.474  36.355   4.390  1.00  0.00     0.075 C
HETATM    7  S1  UNL     1      53.514  36.501   5.920  1.00  0.00    -0.051 SA
HETATM    8  C18 UNL     1      54.665  37.641   5.174  1.00  0.00     0.288 C
HETATM    9  O1  UNL     1      55.780  37.908   5.606  1.00  0.00    -0.260 OA
ENDROOT
BRANCH   6  10
HETATM   10  C7  UNL     1      51.104  35.967   4.745  1.00  0.00     0.029 C
BRANCH  10  11
HETATM   11  C8  UNL     1      50.641  36.369   6.106  1.00  0.00     0.004 C
BRANCH  11  12
HETATM   12  C9  UNL     1      49.116  36.507   6.113  1.00  0.00     0.027 C
BRANCH  12  13
HETATM   13  C10 UNL     1      48.709  37.317   4.879  1.00  0.00     0.229 C
BRANCH  13  14
HETATM   14  N6  UNL     1      47.561  38.155   5.159  1.00  0.00    -0.079 N
ATOM     15  H63 UNL     1      46.695  37.616   5.166  1.00  0.00     0.274 HD
ATOM     16  H62 UNL     1      47.555  38.471   6.129  1.00  0.00     0.274 HD
ATOM     17  H61 UNL     1      47.510  38.939   4.509  1.00  0.00     0.274 HD
ENDBRANCH  13  14
ENDBRANCH  12  13
ENDBRANCH  11  12
ENDBRANCH  10  11
ENDBRANCH   6  10
BRANCH   6  18
HETATM   18  C11 UNL     1      53.185  35.408   3.481  1.00  0.00     0.031 C
BRANCH  18  19
HETATM   19  C12 UNL     1      52.782  35.508   2.057  1.00  0.00     0.032 C
BRANCH  19  20
HETATM   20  C13 UNL     1      53.114  34.367   1.161  1.00  0.00     0.272 C
BRANCH  20  21
HETATM   21  N7  UNL     1      51.878  33.693   0.698  1.00  0.00     0.088 N
HETATM   22  C14 UNL     1      50.855  34.719   0.684  1.00  0.00     0.272 C
HETATM   23  C15 UNL     1      50.428  34.927  -0.749  1.00  0.00     0.032 C
HETATM   24  C16 UNL     1      50.762  33.591  -1.378  1.00  0.00     0.032 C
HETATM   25  C17 UNL     1      52.097  33.309  -0.666  1.00  0.00     0.272 C
ENDBRANCH  20  21
ENDBRANCH  19  20
ENDBRANCH  18  19
ENDBRANCH   6  18
BRANCH   1  26
HETATM   26  C4  UNL     1      54.698  38.970   3.039  1.00  0.00     0.141 C
BRANCH  26  27
HETATM   27  C3  UNL     1      54.669  40.441   3.377  1.00  0.00     0.098 C
BRANCH  27  28
HETATM   28  C2  UNL     1      56.012  40.994   3.110  1.00  0.00     0.099 C
HETATM   29  N8  UNL     1      56.637  40.636   2.051  1.00  0.00    -0.295 N
ATOM     30  H8  UNL     1      56.203  39.977   1.405  1.00  0.00     0.187 HD
BRANCH  28  31
HETATM   31  N3  UNL     1      56.632  41.911   3.997  1.00  0.00    -0.319 N
HETATM   32  C1  UNL     1      57.318  41.521   5.161  1.00  0.00     0.187 C
HETATM   33  N1  UNL     1      57.603  40.293   5.429  1.00  0.00    -0.373 N
HETATM   34  N2  UNL     1      57.721  42.515   6.093  1.00  0.00    -0.064 NA
ATOM     35  H12 UNL     1      58.100  40.010   6.273  1.00  0.00     0.158 HD
ATOM     36  H11 UNL     1      57.314  39.580   4.759  1.00  0.00     0.158 HD
ATOM     37  H3  UNL     1      56.578  42.906   3.778  1.00  0.00     0.169 HD
ENDBRANCH  28  31
BRANCH  29  38
HETATM   38  N9  UNL     1      57.892  41.138   1.780  1.00  0.00    -0.344 N
ATOM     39  H92 UNL     1      58.709  40.629   2.117  1.00  0.00     0.176 HD
ATOM     40  H91 UNL     1      57.997  42.004   1.250  1.00  0.00     0.176 HD
ENDBRANCH  29  38
ENDBRANCH  27  28
ENDBRANCH  26  27
ENDBRANCH   1  26
TORSDOF 14
ENDMDL