MODEL 4
REMARK VINA RESULT: -7.494135623      3.900      6.463
REMARK  13 active torsions:
REMARK  status: ('A' for Active; 'I' for Inactive)
REMARK    1  A    between atoms: C2_2  and  C3_3
REMARK    2  A    between atoms: C3_3  and  C4_4
REMARK    3  A    between atoms: C4_4  and  C5_5
REMARK    4  A    between atoms: C5_5  and  C6_6
REMARK    5  A    between atoms: C6_6  and  C7_7
REMARK    6  A    between atoms: C7_7  and  S1_8
REMARK    7  A    between atoms: S1_8  and  N1_11
REMARK    8  A    between atoms: N1_11  and  C8_13
REMARK    9  A    between atoms: C8_13  and  C9_14
REMARK   10  A    between atoms: C9_14  and  C10_15
REMARK   11  A    between atoms: C10_15  and  C11_16
REMARK   12  A    between atoms: C16_26  and  N5_27
REMARK   13  A    between atoms: N7_33  and  N8_35
ROOT
HETATM    1  C11 UNL     1      59.909  41.713  11.085  1.00  0.00     0.026 A
HETATM    2  N2  UNL     1      59.901  40.351  10.872  1.00  0.00    -0.350 N
ATOM      3  H2  UNL     1      59.740  40.028   9.918  1.00  0.00     0.166 HD
HETATM    4  C12 UNL     1      60.083  39.430  11.797  1.00  0.00     0.116 A
HETATM    5  C13 UNL     1      60.048  38.046  11.433  1.00  0.00     0.117 C
HETATM    6  N3  UNL     1      60.024  36.911  11.155  1.00  0.00    -0.190 NA
HETATM    7  C14 UNL     1      60.305  39.756  13.103  1.00  0.00     0.072 A
HETATM    8  C15 UNL     1      60.331  41.103  13.403  1.00  0.00     0.068 A
HETATM    9  N4  UNL     1      60.561  41.519  14.657  1.00  0.00    -0.191 N
ATOM     10  H4  UNL     1      60.704  40.829  15.396  1.00  0.00     0.184 HD
HETATM   11  C16 UNL     1      60.608  42.832  14.959  1.00  0.00     0.678 A
HETATM   12  N6  UNL     1      60.427  43.777  14.016  1.00  0.00    -0.175 N
ATOM     13  H6  UNL     1      60.468  44.765  14.266  1.00  0.00     0.186 HD
HETATM   14  C17 UNL     1      60.187  43.404  12.722  1.00  0.00     0.149 A
HETATM   15  N7  UNL     1      60.054  44.307  11.836  1.00  0.00    -0.291 N
ATOM     16  H7  UNL     1      59.875  44.028  10.871  1.00  0.00     0.188 HD
HETATM   17  C18 UNL     1      60.134  42.075  12.401  1.00  0.00     0.060 A
ENDROOT
BRANCH   1  18
HETATM   18  C10 UNL     1      59.607  42.593   9.986  1.00  0.00     0.059 C
BRANCH  18  19
HETATM   19  C9  UNL     1      59.961  42.091   8.598  1.00  0.00     0.026 C
BRANCH  19  20
HETATM   20  C8  UNL     1      58.707  41.896   7.778  1.00  0.00     0.132 C
BRANCH  20  21
HETATM   21  N1  UNL     1      58.904  40.809   6.874  1.00  0.00    -0.320 N
ATOM     22  H1  UNL     1      59.263  40.942   5.928  1.00  0.00     0.172 HD
BRANCH  21  23
HETATM   23  S1  UNL     1      58.499  39.276   7.488  1.00  0.00     0.226 S
HETATM   24  O1  UNL     1      57.709  39.423   8.758  1.00  0.00    -0.206 OA
HETATM   25  O2  UNL     1      57.623  38.526   6.502  1.00  0.00    -0.206 OA
BRANCH  23  26
HETATM   26  C7  UNL     1      59.913  38.275   7.864  1.00  0.00     0.163 C
BRANCH  26  27
HETATM   27  C6  UNL     1      60.174  37.427   6.612  1.00  0.00     0.017 C
BRANCH  27  28
HETATM   28  C5  UNL     1      61.072  36.296   6.995  1.00  0.00     0.001 C
BRANCH  28  29
HETATM   29  C4  UNL     1      61.959  36.626   8.156  1.00  0.00     0.000 C
BRANCH  29  30
HETATM   30  C3  UNL     1      63.216  35.778   8.173  1.00  0.00    -0.000 C
BRANCH  30  31
HETATM   31  C2  UNL     1      64.091  36.163   9.372  1.00  0.00    -0.005 C
HETATM   32  C1  UNL     1      63.514  37.408  10.040  1.00  0.00     0.005 C
ENDBRANCH  30  31
ENDBRANCH  29  30
ENDBRANCH  28  29
ENDBRANCH  27  28
ENDBRANCH  26  27
ENDBRANCH  23  26
ENDBRANCH  21  23
ENDBRANCH  20  21
ENDBRANCH  19  20
ENDBRANCH  18  19
ENDBRANCH   1  18
BRANCH  11  33
HETATM   33  N5  UNL     1      60.829  43.233  16.169  1.00  0.00    -0.234 N
ATOM     34  H52 UNL     1      61.717  42.970  16.596  1.00  0.00     0.174 HD
ATOM     35  H51 UNL     1      60.139  43.791  16.674  1.00  0.00     0.174 HD
ENDBRANCH  11  33
BRANCH  15  36
HETATM   36  N8  UNL     1      60.143  45.654  12.136  1.00  0.00    -0.344 N
ATOM     37  H82 UNL     1      60.342  45.915  13.101  1.00  0.00     0.176 HD
ATOM     38  H81 UNL     1      60.016  46.379  11.429  1.00  0.00     0.176 HD
ENDBRANCH  15  36
TORSDOF 13
ENDMDL