MODEL 3
REMARK VINA RESULT: -6.682567631      0.978      1.884
REMARK  17 active torsions:
REMARK  status: ('A' for Active; 'I' for Inactive)
REMARK    1  A    between atoms: C2_2  and  C3_3
REMARK    2  A    between atoms: C3_3  and  C4_4
REMARK    3  A    between atoms: C4_4  and  C5_5
REMARK    4  A    between atoms: C5_5  and  C6_6
REMARK    5  A    between atoms: C6_6  and  C7_7
REMARK    6  A    between atoms: C7_7  and  C8_8
REMARK    7  A    between atoms: C8_8  and  C9_9
REMARK    8  A    between atoms: C9_9  and  C10_10
REMARK    9  A    between atoms: C10_10  and  C11_11
REMARK   10  A    between atoms: C12_12  and  C13_13
REMARK   11  A    between atoms: N1_15  and  C15_16
REMARK   12  A    between atoms: C16_18  and  C17_19
REMARK   13  A    between atoms: C17_19  and  O2_20
REMARK   14  A    between atoms: C18_22  and  O3_23
REMARK   15  A    between atoms: C19_25  and  O4_26
REMARK   16  A    between atoms: C20_28  and  N2_29
REMARK   17  A    between atoms: C22_34  and  N4_35
ROOT
HETATM    1  C13 UNL     1      56.965  40.449   5.502  1.00  0.00     0.078 A
HETATM    2  C14 UNL     1      55.925  39.866   4.813  1.00  0.00     0.136 A
HETATM    3  N1  UNL     1      55.404  40.443   3.732  1.00  0.00    -0.162 N
HETATM    4  C20 UNL     1      55.872  41.610   3.275  1.00  0.00     0.683 A
HETATM    5  N3  UNL     1      56.886  42.214   3.917  1.00  0.00    -0.175 N
ATOM      6  H3  UNL     1      57.248  43.103   3.573  1.00  0.00     0.186 HD
HETATM    7  C22 UNL     1      57.421  41.651   5.002  1.00  0.00     0.135 A
ENDROOT
BRANCH   1   8
HETATM    8  C12 UNL     1      57.514  39.826   6.654  1.00  0.00    -0.062 C
HETATM    9  C11 UNL     1      57.990  39.289   7.623  1.00  0.00    -0.101 C
BRANCH   9  10
HETATM   10  C10 UNL     1      58.544  38.628   8.786  1.00  0.00     0.094 C
BRANCH  10  11
HETATM   11  C9  UNL     1      59.874  37.964   8.484  1.00  0.00     0.012 C
BRANCH  11  12
HETATM   12  C8  UNL     1      60.667  37.676   9.727  1.00  0.00     0.001 C
BRANCH  12  13
HETATM   13  C7  UNL     1      62.027  38.335   9.707  1.00  0.00     0.000 C
BRANCH  13  14
HETATM   14  C6  UNL     1      61.927  39.722  10.297  1.00  0.00     0.000 C
BRANCH  14  15
HETATM   15  C5  UNL     1      61.033  39.626  11.555  1.00  0.00     0.000 C
BRANCH  15  16
HETATM   16  C4  UNL     1      60.183  40.854  11.527  1.00  0.00     0.000 C
BRANCH  16  17
HETATM   17  C3  UNL     1      60.075  41.622  10.277  1.00  0.00    -0.000 C
BRANCH  17  18
HETATM   18  C2  UNL     1      59.364  42.916  10.256  1.00  0.00    -0.005 C
HETATM   19  C1  UNL     1      59.554  43.734  11.482  1.00  0.00     0.005 C
ENDBRANCH  17  18
ENDBRANCH  16  17
ENDBRANCH  15  16
ENDBRANCH  14  15
ENDBRANCH  13  14
ENDBRANCH  12  13
ENDBRANCH  11  12
ENDBRANCH  10  11
ENDBRANCH   9  10
ENDBRANCH   1   8
BRANCH   7  20
HETATM   20  N4  UNL     1      58.393  42.223   5.623  1.00  0.00    -0.384 N
ATOM     21  H42 UNL     1      59.169  41.673   5.989  1.00  0.00     0.157 HD
ATOM     22  H41 UNL     1      58.351  43.236   5.731  1.00  0.00     0.157 HD
ENDBRANCH   7  20
BRANCH   3  23
HETATM   23  C15 UNL     1      54.311  39.800   3.035  1.00  0.00     0.277 C
HETATM   24  O1  UNL     1      54.796  39.190   1.900  1.00  0.00    -0.353 OA
HETATM   25  C16 UNL     1      54.984  37.844   2.107  1.00  0.00     0.179 C
HETATM   26  C18 UNL     1      54.528  37.518   3.507  1.00  0.00     0.182 C
HETATM   27  C19 UNL     1      53.635  38.713   3.791  1.00  0.00     0.199 C
BRANCH  25  28
HETATM   28  C17 UNL     1      54.207  37.025   1.077  1.00  0.00     0.198 C
BRANCH  28  29
HETATM   29  O2  UNL     1      54.778  35.761   0.963  1.00  0.00    -0.398 OA
ATOM     30  H2  UNL     1      54.307  35.259   0.308  1.00  0.00     0.209 HD
ENDBRANCH  28  29
ENDBRANCH  25  28
BRANCH  26  31
HETATM   31  O3  UNL     1      53.798  36.348   3.572  1.00  0.00    -0.390 OA
ATOM     32  H3  UNL     1      52.861  36.496   3.514  1.00  0.00     0.210 HD
ENDBRANCH  26  31
BRANCH  27  33
HETATM   33  O4  UNL     1      52.397  38.472   3.150  1.00  0.00    -0.388 OA
ATOM     34  H4  UNL     1      51.827  38.063   3.791  1.00  0.00     0.210 HD
ENDBRANCH  27  33
ENDBRANCH   3  23
BRANCH   4  35
HETATM   35  N2  UNL     1      55.371  42.182   2.213  1.00  0.00    -0.230 N
HETATM   36  C21 UNL     1      55.759  43.495   1.792  1.00  0.00     0.165 C
ATOM     37  H2  UNL     1      54.678  41.676   1.663  1.00  0.00     0.177 HD
ENDBRANCH   4  35
TORSDOF 17
ENDMDL