MODEL 4
REMARK VINA RESULT: -7.485769307      3.884      8.442
REMARK  16 active torsions:
REMARK  status: ('A' for Active; 'I' for Inactive)
REMARK    1  A    between atoms: C2_2  and  C3_3
REMARK    2  A    between atoms: C3_3  and  C4_4
REMARK    3  A    between atoms: C4_4  and  C5_5
REMARK    4  A    between atoms: C5_5  and  C6_6
REMARK    5  A    between atoms: C6_6  and  C7_7
REMARK    6  A    between atoms: C7_7  and  C8_8
REMARK    7  A    between atoms: C8_8  and  N1_9
REMARK    8  A    between atoms: N1_9  and  C9_11
REMARK    9  A    between atoms: C10_14  and  N3_15
REMARK   10  A    between atoms: N3_15  and  C11_17
REMARK   11  A    between atoms: C13_19  and  N4_20
REMARK   12  A    between atoms: N4_20  and  C14_22
REMARK   13  A    between atoms: C14_22  and  C15_23
REMARK   14  A    between atoms: C15_23  and  C16_24
REMARK   15  A    between atoms: C18_28  and  N6_29
REMARK   16  A    between atoms: N9_37  and  O1_38
ROOT
HETATM    1  C9  UNL     1      61.437  42.228  12.428  1.00  0.00     0.707 A
HETATM    2  N2  UNL     1      61.415  41.934  11.119  1.00  0.00    -0.174 N
ATOM      3  H2  UNL     1      61.988  41.161  10.780  1.00  0.00     0.186 HD
HETATM    4  C10 UNL     1      60.663  42.623  10.235  1.00  0.00     0.125 A
HETATM    5  C19 UNL     1      59.908  43.657  10.739  1.00  0.00     0.097 A
HETATM    6  C20 UNL     1      59.897  43.998  12.085  1.00  0.00     0.166 A
HETATM    7  N8  UNL     1      59.110  45.065  12.576  1.00  0.00    -0.079 NA
HETATM    8  N9  UNL     1      60.678  43.255  12.895  1.00  0.00    -0.038 N
ENDROOT
BRANCH   4   9
HETATM    9  N3  UNL     1      60.707  42.273   9.014  1.00  0.00    -0.328 N
ATOM     10  H3  UNL     1      61.590  42.431   8.528  1.00  0.00     0.169 HD
BRANCH   9  11
HETATM   11  C11 UNL     1      59.681  41.697   8.264  1.00  0.00     0.126 A
HETATM   12  C12 UNL     1      59.038  40.565   8.712  1.00  0.00     0.097 A
HETATM   13  C13 UNL     1      58.013  39.958   7.999  1.00  0.00     0.120 A
HETATM   14  N5  UNL     1      57.666  40.530   6.835  1.00  0.00    -0.177 N
HETATM   15  C18 UNL     1      58.277  41.640   6.370  1.00  0.00     0.679 A
ATOM     16  H5  UNL     1      56.917  40.111   6.284  1.00  0.00     0.185 HD
HETATM   17  N7  UNL     1      59.275  42.212   7.084  1.00  0.00    -0.177 N
ATOM     18  H7  UNL     1      59.730  43.050   6.723  1.00  0.00     0.185 HD
BRANCH  13  19
HETATM   19  N4  UNL     1      57.418  38.900   8.426  1.00  0.00    -0.376 N
ATOM     20  H4  UNL     1      56.402  38.818   8.392  1.00  0.00     0.161 HD
BRANCH  19  21
HETATM   21  C14 UNL     1      58.236  37.829   8.955  1.00  0.00     0.121 C
BRANCH  21  22
HETATM   22  C15 UNL     1      57.672  37.257  10.225  1.00  0.00     0.019 C
BRANCH  22  23
HETATM   23  C16 UNL     1      58.862  36.943  11.132  1.00  0.00    -0.003 C
HETATM   24  C17 UNL     1      59.218  38.172  11.933  1.00  0.00     0.005 C
ENDBRANCH  22  23
ENDBRANCH  21  22
ENDBRANCH  19  21
ENDBRANCH  13  19
BRANCH  15  25
HETATM   25  N6  UNL     1      57.944  42.189   5.253  1.00  0.00    -0.234 N
ATOM     26  H62 UNL     1      56.965  42.141   4.970  1.00  0.00     0.174 HD
ATOM     27  H61 UNL     1      58.624  42.661   4.656  1.00  0.00     0.174 HD
ENDBRANCH  15  25
ENDBRANCH   9  11
ENDBRANCH   4   9
BRANCH   1  28
HETATM   28  N1  UNL     1      62.140  41.597  13.306  1.00  0.00    -0.224 N
ATOM     29  H1  UNL     1      62.422  42.075  14.161  1.00  0.00     0.177 HD
BRANCH  28  30
HETATM   30  C8  UNL     1      62.536  40.210  13.095  1.00  0.00     0.138 C
BRANCH  30  31
HETATM   31  C7  UNL     1      63.934  40.094  12.593  1.00  0.00     0.020 C
BRANCH  31  32
HETATM   32  C6  UNL     1      63.995  39.416  11.253  1.00  0.00     0.002 C
BRANCH  32  33
HETATM   33  C5  UNL     1      62.834  38.491  11.065  1.00  0.00     0.000 C
BRANCH  33  34
HETATM   34  C4  UNL     1      62.138  38.727   9.733  1.00  0.00     0.004 C
BRANCH  34  35
HETATM   35  C3  UNL     1      61.876  37.452   8.980  1.00  0.00     0.026 C
BRANCH  35  36
HETATM   36  C2  UNL     1      63.046  36.552   9.109  1.00  0.00    -0.037 C
HETATM   37  C1  UNL     1      63.348  35.697   8.163  1.00  0.00     0.007 C
ENDBRANCH  35  36
ENDBRANCH  34  35
ENDBRANCH  33  34
ENDBRANCH  32  33
ENDBRANCH  31  32
ENDBRANCH  30  31
ENDBRANCH  28  30
ENDBRANCH   1  28
BRANCH   8  38
HETATM   38  O1  UNL     1      60.672  43.590  14.233  1.00  0.00    -0.268 OA
ATOM     39  H1  UNL     1      60.099  43.148  14.849  1.00  0.00     0.246 HD
ENDBRANCH   8  38
TORSDOF 16
ENDMDL