MODEL 1
REMARK VINA RESULT: -7.476373257      0.000      0.000
REMARK  12 active torsions:
REMARK  status: ('A' for Active; 'I' for Inactive)
REMARK    1  A    between atoms: C2_2  and  N1_3
REMARK    2  A    between atoms: N1_3  and  C3_4
REMARK    3  A    between atoms: N1_3  and  C5_6
REMARK    4  A    between atoms: C6_9  and  N3_10
REMARK    5  A    between atoms: C9_22  and  N7_23
REMARK    6  A    between atoms: C10_25  and  C11_26
REMARK    7  A    between atoms: C11_26  and  N8_27
REMARK    8  A    between atoms: N8_27  and  C12_30
REMARK    9  A    between atoms: C12_30  and  C13_31
REMARK   10  A    between atoms: C13_31  and  C14_32
REMARK   11  A    between atoms: C14_32  and  N9_33
REMARK   12  A    between atoms: N9_33  and  C16_35
ROOT
HETATM    1  C5  UNL     1      55.057  39.421   3.724  1.00  0.00     0.682 A
HETATM    2  N2  UNL     1      55.254  40.597   3.141  1.00  0.00    -0.175 N
ATOM      3  H2  UNL     1      54.697  40.818   2.316  1.00  0.00     0.186 HD
HETATM    4  C6  UNL     1      56.153  41.535   3.570  1.00  0.00     0.144 A
HETATM    5  C7  UNL     1      56.916  41.218   4.711  1.00  0.00     0.124 A
HETATM    6  N4  UNL     1      57.831  42.041   5.197  1.00  0.00    -0.186 N
ATOM      7  H4  UNL     1      57.990  42.949   4.759  1.00  0.00     0.184 HD
HETATM    8  C8  UNL     1      58.568  41.661   6.303  1.00  0.00     0.678 A
HETATM    9  N5  UNL     1      59.415  42.454   6.729  1.00  0.00    -0.234 N
ATOM     10  H51 UNL     1      59.959  42.173   7.544  1.00  0.00     0.174 HD
ATOM     11  H52 UNL     1      59.562  43.358   6.280  1.00  0.00     0.174 HD
HETATM   12  N6  UNL     1      58.373  40.461   6.899  1.00  0.00    -0.174 N
ATOM     13  H6  UNL     1      58.940  40.220   7.713  1.00  0.00     0.186 HD
HETATM   14  C9  UNL     1      57.452  39.568   6.456  1.00  0.00     0.150 A
HETATM   15  C20 UNL     1      56.722  40.006   5.319  1.00  0.00     0.124 A
HETATM   16  N10 UNL     1      55.797  39.136   4.815  1.00  0.00    -0.185 N
ATOM     17  H10 UNL     1      55.661  38.238   5.280  1.00  0.00     0.184 HD
ENDROOT
BRANCH  14  18
HETATM   18  N7  UNL     1      57.233  38.439   6.854  1.00  0.00    -0.352 N
HETATM   19  C10 UNL     1      57.335  37.585   7.895  1.00  0.00     0.090 C
ATOM     20  H7  UNL     1      56.791  37.930   6.088  1.00  0.00     0.166 HD
BRANCH  19  21
HETATM   21  C11 UNL     1      57.289  38.034   9.312  1.00  0.00     0.276 C
BRANCH  21  22
HETATM   22  N8  UNL     1      58.429  37.611  10.093  1.00  0.00    -0.070 N
ATOM     23  H82 UNL     1      58.346  37.838  11.083  1.00  0.00     0.277 HD
ATOM     24  H81 UNL     1      58.491  36.598  10.198  1.00  0.00     0.277 HD
BRANCH  22  25
HETATM   25  C12 UNL     1      59.630  38.209   9.450  1.00  0.00     0.237 C
BRANCH  25  26
HETATM   26  C13 UNL     1      60.216  39.194  10.376  1.00  0.00     0.072 C
BRANCH  26  27
HETATM   27  C14 UNL     1      60.156  40.642  10.010  1.00  0.00     0.059 C
BRANCH  27  28
HETATM   28  N9  UNL     1      59.835  41.504  11.066  1.00  0.00    -0.393 N
HETATM   29  C15 UNL     1      60.191  41.179  12.391  1.00  0.00     0.149 C
BRANCH  28  30
HETATM   30  C16 UNL     1      59.543  42.864  10.787  1.00  0.00     0.083 A
HETATM   31  C17 UNL     1      59.865  43.831  11.913  1.00  0.00     0.025 A
HETATM   32  C18 UNL     1      61.066  44.361  11.194  1.00  0.00     0.004 A
HETATM   33  C19 UNL     1      60.721  43.489  10.017  1.00  0.00     0.025 A
ENDBRANCH  28  30
ENDBRANCH  27  28
ENDBRANCH  26  27
ENDBRANCH  25  26
ENDBRANCH  22  25
ENDBRANCH  21  22
ENDBRANCH  19  21
ENDBRANCH  14  18
BRANCH   4  34
HETATM   34  N3  UNL     1      56.310  42.628   2.973  1.00  0.00    -0.383 N
ATOM     35  H32 UNL     1      55.508  43.191   2.691  1.00  0.00     0.157 HD
ATOM     36  H31 UNL     1      57.236  42.998   2.758  1.00  0.00     0.157 HD
ENDBRANCH   4  34
BRANCH   1  37
HETATM   37  N1  UNL     1      54.132  38.432   3.220  1.00  0.00    -0.218 N
BRANCH  37  38
HETATM   38  C2  UNL     1      54.670  37.280   2.545  1.00  0.00     0.136 C
HETATM   39  C1  UNL     1      55.001  37.612   1.128  1.00  0.00     0.027 C
ENDBRANCH  37  38
BRANCH  37  40
HETATM   40  C3  UNL     1      52.713  38.587   3.391  1.00  0.00     0.136 C
HETATM   41  C4  UNL     1      52.094  37.671   4.406  1.00  0.00     0.027 C
ENDBRANCH  37  40
ENDBRANCH   1  37
TORSDOF 12
ENDMDL