MODEL 4
REMARK VINA RESULT: -6.183243496      2.367      4.932
REMARK  14 active torsions:
REMARK  status: ('A' for Active; 'I' for Inactive)
REMARK    1  A    between atoms: O1_2  and  C2_3
REMARK    2  A    between atoms: C2_3  and  C3_4
REMARK    3  A    between atoms: C3_4  and  O2_5
REMARK    4  A    between atoms: O2_5  and  C4_6
REMARK    5  A    between atoms: C4_6  and  C5_7
REMARK    6  A    between atoms: C5_7  and  O3_8
REMARK    7  A    between atoms: O3_8  and  C6_9
REMARK    8  A    between atoms: C6_9  and  C7_10
REMARK    9  A    between atoms: C7_10  and  S1_11
REMARK   10  A    between atoms: S1_11  and  C8_12
REMARK   11  A    between atoms: C11_19  and  N3_20
REMARK   12  A    between atoms: C12_25  and  N5_26
REMARK   13  A    between atoms: N5_26  and  C13_28
REMARK   14  A    between atoms: N6_33  and  N7_34
ROOT
HETATM    1  C8  UNL     1      58.307  38.264   8.959  1.00  0.00     0.086 A
HETATM    2  N1  UNL     1      57.479  37.431   8.293  1.00  0.00    -0.357 N
ATOM      3  H1  UNL     1      57.228  36.492   8.601  1.00  0.00     0.166 HD
HETATM    4  C9  UNL     1      57.035  38.006   7.175  1.00  0.00     0.120 A
HETATM    5  C10 UNL     1      57.592  39.280   7.094  1.00  0.00     0.081 A
HETATM    6  N2  UNL     1      57.501  40.282   6.209  1.00  0.00    -0.190 N
ATOM      7  H2  UNL     1      56.918  40.177   5.380  1.00  0.00     0.184 HD
HETATM    8  C11 UNL     1      58.185  41.433   6.415  1.00  0.00     0.677 A
HETATM    9  N4  UNL     1      58.963  41.603   7.499  1.00  0.00    -0.176 N
ATOM     10  H4  UNL     1      59.471  42.477   7.635  1.00  0.00     0.186 HD
HETATM   11  C12 UNL     1      59.070  40.611   8.401  1.00  0.00     0.133 A
HETATM   12  C18 UNL     1      58.380  39.427   8.208  1.00  0.00     0.070 A
ENDROOT
BRANCH   1  13
HETATM   13  S1  UNL     1      59.151  37.950  10.502  1.00  0.00    -0.109 SA
BRANCH  13  14
HETATM   14  C7  UNL     1      60.540  36.828  10.155  1.00  0.00     0.107 C
BRANCH  14  15
HETATM   15  C6  UNL     1      61.465  37.453   9.098  1.00  0.00     0.178 C
BRANCH  15  16
HETATM   16  O3  UNL     1      62.072  38.520   9.712  1.00  0.00    -0.388 OA
BRANCH  16  17
HETATM   17  C5  UNL     1      63.250  38.189  10.392  1.00  0.00     0.193 C
BRANCH  17  18
HETATM   18  C4  UNL     1      63.321  38.755  11.771  1.00  0.00     0.193 C
BRANCH  18  19
HETATM   19  O2  UNL     1      64.113  39.865  11.821  1.00  0.00    -0.387 OA
BRANCH  19  20
HETATM   20  C3  UNL     1      64.641  40.151  13.082  1.00  0.00     0.193 C
BRANCH  20  21
HETATM   21  C2  UNL     1      63.819  41.286  13.633  1.00  0.00     0.193 C
BRANCH  21  22
HETATM   22  O1  UNL     1      64.011  42.431  12.930  1.00  0.00    -0.394 OA
HETATM   23  C1  UNL     1      63.639  43.555  13.605  1.00  0.00     0.201 C
ENDBRANCH  21  22
ENDBRANCH  20  21
ENDBRANCH  19  20
ENDBRANCH  18  19
ENDBRANCH  17  18
ENDBRANCH  16  17
ENDBRANCH  15  16
ENDBRANCH  14  15
ENDBRANCH  13  14
ENDBRANCH   1  13
BRANCH  11  24
HETATM   24  N5  UNL     1      59.795  40.696   9.458  1.00  0.00    -0.357 N
ATOM     25  H5  UNL     1      60.514  39.983   9.579  1.00  0.00     0.162 HD
BRANCH  24  26
HETATM   26  C13 UNL     1      59.694  41.682  10.472  1.00  0.00     0.177 C
HETATM   27  C14 UNL     1      60.651  41.340  11.586  1.00  0.00     0.042 C
HETATM   28  C15 UNL     1      60.284  42.169  12.795  1.00  0.00     0.004 C
HETATM   29  C16 UNL     1      59.594  43.444  12.429  1.00  0.00     0.016 C
HETATM   30  C17 UNL     1      60.143  43.945  11.118  1.00  0.00     0.115 C
HETATM   31  N6  UNL     1      59.981  43.023  10.041  1.00  0.00    -0.215 NA
BRANCH  31  32
HETATM   32  N7  UNL     1      61.086  43.125   9.204  1.00  0.00    -0.361 NA
ATOM     33  H72 UNL     1      61.857  43.527   9.736  1.00  0.00     0.171 HD
ATOM     34  H71 UNL     1      61.329  42.256   8.731  1.00  0.00     0.171 HD
ENDBRANCH  31  32
ENDBRANCH  24  26
ENDBRANCH  11  24
BRANCH   8  35
HETATM   35  N3  UNL     1      58.059  42.366   5.526  1.00  0.00    -0.234 N
ATOM     36  H32 UNL     1      58.013  42.147   4.531  1.00  0.00     0.174 HD
ATOM     37  H31 UNL     1      58.006  43.328   5.862  1.00  0.00     0.174 HD
ENDBRANCH   8  35
TORSDOF 14
ENDMDL