MODEL 5
REMARK VINA RESULT: -7.212243822      1.596      2.852
REMARK  15 active torsions:
REMARK  status: ('A' for Active; 'I' for Inactive)
REMARK    1  A    between atoms: O1_1  and  C1_3
REMARK    2  A    between atoms: C1_3  and  C2_4
REMARK    3  A    between atoms: C3_5  and  O2_6
REMARK    4  A    between atoms: C4_8  and  O3_9
REMARK    5  A    between atoms: N2_15  and  C6_16
REMARK    6  A    between atoms: C6_16  and  C7_17
REMARK    7  A    between atoms: C7_17  and  C8_18
REMARK    8  A    between atoms: C8_18  and  C9_19
REMARK    9  A    between atoms: C9_19  and  C10_20
REMARK   10  A    between atoms: C10_20  and  C11_21
REMARK   11  A    between atoms: C11_21  and  C12_22
REMARK   12  A    between atoms: C12_22  and  C13_23
REMARK   13  A    between atoms: C13_23  and  C14_24
REMARK   14  A    between atoms: C14_24  and  N3_25
REMARK   15  A    between atoms: N3_25  and  C15_27
ROOT
HETATM    1  C10 UNL     1      59.471  42.201  10.207  1.00  0.00     0.000 C
ENDROOT
BRANCH   1   2
HETATM    2  C9  UNL     1      59.903  41.228  11.252  1.00  0.00     0.000 C
BRANCH   2   3
HETATM    3  C8  UNL     1      61.398  40.953  11.207  1.00  0.00     0.002 C
BRANCH   3   4
HETATM    4  C7  UNL     1      61.955  41.474  12.511  1.00  0.00     0.019 C
BRANCH   4   5
HETATM    5  C6  UNL     1      60.939  41.649  13.578  1.00  0.00     0.119 C
BRANCH   5   6
HETATM    6  N2  UNL     1      60.925  42.896  14.238  1.00  0.00    -0.382 N
HETATM    7  C2  UNL     1      59.777  43.723  14.053  1.00  0.00     0.137 C
HETATM    8  C3  UNL     1      59.542  44.508  15.362  1.00  0.00     0.199 C
HETATM    9  C4  UNL     1      60.852  44.471  16.144  1.00  0.00     0.351 C
HETATM   10  N1  UNL     1      61.982  44.690  15.310  1.00  0.00    -0.031 N
HETATM   11  C5  UNL     1      62.146  43.601  14.377  1.00  0.00     0.356 C
ATOM     12  H12 UNL     1      61.932  45.591  14.833  1.00  0.00     0.282 HD
ATOM     13  H11 UNL     1      62.829  44.853  15.855  1.00  0.00     0.282 HD
BRANCH   7  14
HETATM   14  C1  UNL     1      60.025  44.714  12.939  1.00  0.00     0.191 C
BRANCH  14  15
HETATM   15  O1  UNL     1      58.820  45.050  12.362  1.00  0.00    -0.399 OA
ATOM     16  H1  UNL     1      58.875  45.938  12.028  1.00  0.00     0.209 HD
ENDBRANCH  14  15
ENDBRANCH   7  14
BRANCH   8  17
HETATM   17  O2  UNL     1      59.174  45.800  15.084  1.00  0.00    -0.389 OA
ATOM     18  H2  UNL     1      58.244  45.919  15.241  1.00  0.00     0.210 HD
ENDBRANCH   8  17
BRANCH   9  19
HETATM   19  O3  UNL     1      60.736  45.425  17.153  1.00  0.00    -0.368 OA
ATOM     20  H3  UNL     1      61.336  45.163  17.842  1.00  0.00     0.212 HD
ENDBRANCH   9  19
ENDBRANCH   5   6
ENDBRANCH   4   5
ENDBRANCH   3   4
ENDBRANCH   2   3
ENDBRANCH   1   2
BRANCH   1  21
HETATM   21  C11 UNL     1      60.458  42.198   9.071  1.00  0.00     0.000 C
BRANCH  21  22
HETATM   22  C12 UNL     1      59.730  42.289   7.754  1.00  0.00     0.002 C
BRANCH  22  23
HETATM   23  C13 UNL     1      58.873  41.009   7.654  1.00  0.00     0.020 C
BRANCH  23  24
HETATM   24  C14 UNL     1      57.639  41.332   6.839  1.00  0.00     0.121 C
BRANCH  24  25
HETATM   25  N3  UNL     1      57.701  40.601   5.604  1.00  0.00    -0.378 N
ATOM     26  H3  UNL     1      58.402  39.867   5.498  1.00  0.00     0.160 HD
BRANCH  25  27
HETATM   27  C15 UNL     1      56.820  40.867   4.530  1.00  0.00     0.104 C
HETATM   28  N4  UNL     1      56.797  42.044   4.026  1.00  0.00    -0.378 N
HETATM   29  C16 UNL     1      55.977  42.497   2.944  1.00  0.00     0.121 C
ATOM     30  H4  UNL     1      57.429  42.729   4.438  1.00  0.00     0.160 HD
HETATM   31  C17 UNL     1      54.994  41.466   2.436  1.00  0.00     0.027 C
HETATM   32  C18 UNL     1      54.639  40.542   3.580  1.00  0.00     0.025 C
HETATM   33  C19 UNL     1      53.572  39.585   3.131  1.00  0.00     0.009 C
HETATM   34  C22 UNL     1      55.920  39.839   3.967  1.00  0.00     0.256 C
HETATM   35  C20 UNL     1      54.060  38.135   3.216  1.00  0.00     0.028 C
HETATM   36  C21 UNL     1      54.598  37.933   4.600  1.00  0.00     0.233 C
HETATM   37  N5  UNL     1      55.706  38.775   4.911  1.00  0.00    -0.064 N
ATOM     38  H52 UNL     1      55.617  39.149   5.856  1.00  0.00     0.278 HD
ATOM     39  H51 UNL     1      56.556  38.221   5.024  1.00  0.00     0.278 HD
ENDBRANCH  25  27
ENDBRANCH  24  25
ENDBRANCH  23  24
ENDBRANCH  22  23
ENDBRANCH  21  22
ENDBRANCH   1  21
TORSDOF 15
ENDMDL