MODEL 5
REMARK VINA RESULT: -6.579310561      1.238      1.474
REMARK  12 active torsions:
REMARK  status: ('A' for Active; 'I' for Inactive)
REMARK    1  A    between atoms: C2_2  and  C3_3
REMARK    2  A    between atoms: C6_6  and  C7_7
REMARK    3  A    between atoms: C7_7  and  C8_8
REMARK    4  A    between atoms: C8_8  and  C9_9
REMARK    5  A    between atoms: C9_9  and  C10_10
REMARK    6  A    between atoms: C10_10  and  C11_11
REMARK    7  A    between atoms: C11_11  and  N1_12
REMARK    8  A    between atoms: C13_20  and  C14_21
REMARK    9  A    between atoms: C16_27  and  C17_28
REMARK   10  A    between atoms: C17_28  and  C18_29
REMARK   11  A    between atoms: C18_29  and  C19_30
REMARK   12  A    between atoms: C19_30  and  N4_31
REMARK       I    between atoms: N4_31  and  C20_33
ROOT
HETATM    1  C3  UNL     1      16.028  41.357 -11.182  1.00  0.00     0.099 C
HETATM    2  C4  UNL     1      15.773  40.606  -9.918  1.00  0.00     0.020 C
HETATM    3  C5  UNL     1      14.377  40.804  -9.388  1.00  0.00     0.026 C
HETATM    4  C6  UNL     1      13.478  39.585  -9.649  1.00  0.00     0.084 C
HETATM    5  N2  UNL     1      14.226  38.369  -9.469  1.00  0.00    -0.354 N
ATOM      6  H2  UNL     1      14.867  38.355  -8.675  1.00  0.00     0.162 HD
HETATM    7  C12 UNL     1      14.188  37.199 -10.246  1.00  0.00     0.247 C
HETATM    8  O1  UNL     1      14.842  36.166  -9.847  1.00  0.00    -0.271 OA
HETATM    9  C13 UNL     1      13.461  36.997 -11.520  1.00  0.00     0.238 C
HETATM   10  N3  UNL     1      13.630  37.996 -12.508  1.00  0.00    -0.340 N
ATOM     11  H3  UNL     1      12.824  38.603 -12.660  1.00  0.00     0.163 HD
HETATM   12  C15 UNL     1      14.759  38.272 -13.316  1.00  0.00     0.241 C
HETATM   13  O3  UNL     1      14.575  38.497 -14.566  1.00  0.00    -0.271 OA
HETATM   14  C16 UNL     1      16.168  38.331 -12.865  1.00  0.00     0.176 C
HETATM   15  N7  UNL     1      16.728  39.659 -13.022  1.00  0.00    -0.347 N
ATOM     16  H7  UNL     1      16.979  39.903 -13.980  1.00  0.00     0.163 HD
HETATM   17  C21 UNL     1      16.982  40.653 -12.089  1.00  0.00     0.226 C
HETATM   18  O4  UNL     1      18.213  41.042 -11.974  1.00  0.00    -0.273 OA
ENDROOT
BRANCH  14  19
HETATM   19  C17 UNL     1      17.052  37.279 -13.487  1.00  0.00     0.036 C
BRANCH  19  20
HETATM   20  C18 UNL     1      18.102  37.727 -14.412  1.00  0.00     0.022 C
BRANCH  20  21
HETATM   21  C19 UNL     1      18.011  36.813 -15.651  1.00  0.00     0.122 C
BRANCH  21  22
HETATM   22  N4  UNL     1      19.075  35.853 -15.657  1.00  0.00    -0.365 N
HETATM   23  C20 UNL     1      18.820  34.448 -15.654  1.00  0.00     0.181 C
HETATM   24  N5  UNL     1      19.285  33.763 -14.678  1.00  0.00    -0.374 N
HETATM   25  N6  UNL     1      18.090  33.793 -16.661  1.00  0.00    -0.064 NA
ATOM     26  H52 UNL     1      19.815  34.239 -13.948  1.00  0.00     0.158 HD
ATOM     27  H51 UNL     1      19.103  32.759 -14.676  1.00  0.00     0.158 HD
ATOM     28  H4  UNL     1      20.040  36.182 -15.664  1.00  0.00     0.162 HD
ENDBRANCH  21  22
ENDBRANCH  20  21
ENDBRANCH  19  20
ENDBRANCH  14  19
BRANCH   9  29
HETATM   29  C14 UNL     1      13.659  35.612 -12.050  1.00  0.00     0.266 C
HETATM   30  O2  UNL     1      12.774  34.888 -12.439  1.00  0.00    -0.304 OA
ENDBRANCH   9  29
BRANCH   1  31
HETATM   31  C2  UNL     1      14.799  41.823 -11.879  1.00  0.00    -0.023 C
HETATM   32  C1  UNL     1      14.818  42.741 -12.870  1.00  0.00     0.008 C
ENDBRANCH   1  31
BRANCH   4  33
HETATM   33  C7  UNL     1      12.392  39.603  -8.574  1.00  0.00     0.025 C
BRANCH  33  34
HETATM   34  C8  UNL     1      12.581  40.750  -7.615  1.00  0.00     0.002 C
BRANCH  34  35
HETATM   35  C9  UNL     1      11.608  40.600  -6.468  1.00  0.00     0.002 C
BRANCH  35  36
HETATM   36  C10 UNL     1      11.233  39.151  -6.242  1.00  0.00     0.027 C
BRANCH  36  37
HETATM   37  C11 UNL     1      10.402  38.972  -4.999  1.00  0.00     0.229 C
BRANCH  37  38
HETATM   38  N1  UNL     1      11.186  39.038  -3.782  1.00  0.00    -0.079 N
ATOM     39  H13 UNL     1      10.668  38.652  -2.993  1.00  0.00     0.274 HD
ATOM     40  H12 UNL     1      11.962  38.377  -3.812  1.00  0.00     0.274 HD
ATOM     41  H11 UNL     1      11.518  39.980  -3.575  1.00  0.00     0.274 HD
ENDBRANCH  37  38
ENDBRANCH  36  37
ENDBRANCH  35  36
ENDBRANCH  34  35
ENDBRANCH  33  34
ENDBRANCH   4  33
TORSDOF 12
ENDMDL