MODEL 3
REMARK VINA RESULT: -6.747608805      7.333     10.304
REMARK  16 active torsions:
REMARK  status: ('A' for Active; 'I' for Inactive)
REMARK    1  A    between atoms: N1_1  and  C1_5
REMARK    2  A    between atoms: C1_5  and  C2_6
REMARK       I    between atoms: C2_6  and  N2_8
REMARK    3  A    between atoms: N2_8  and  C3_10
REMARK    4  A    between atoms: C10_19  and  O3_20
REMARK    5  A    between atoms: C12_23  and  C13_24
REMARK    6  A    between atoms: C13_24  and  C14_25
REMARK    7  A    between atoms: C14_25  and  C15_26
REMARK    8  A    between atoms: C15_26  and  C16_27
REMARK    9  A    between atoms: C16_27  and  C17_28
REMARK   10  A    between atoms: C17_28  and  C18_29
REMARK   11  A    between atoms: C18_29  and  C19_30
REMARK   12  A    between atoms: C19_30  and  N5_35
REMARK   13  A    between atoms: N4_31  and  O4_33
REMARK   14  A    between atoms: N5_35  and  C20_37
REMARK   15  A    between atoms: C20_37  and  C21_38
REMARK   16  A    between atoms: C21_38  and  O5_39
ROOT
HETATM    1  C3  UNL     1       4.342  43.894  -1.702  1.00  0.00     0.216 C
HETATM    2  C4  UNL     1       4.881  42.530  -1.566  1.00  0.00     0.120 C
HETATM    3  C5  UNL     1       3.856  41.536  -2.127  1.00  0.00     0.038 C
HETATM    4  C6  UNL     1       2.733  42.185  -2.839  1.00  0.00     0.105 C
HETATM    5  C7  UNL     1       3.148  43.320  -3.706  1.00  0.00     0.225 C
HETATM    6  O2  UNL     1       2.694  43.498  -4.864  1.00  0.00    -0.273 OA
HETATM    7  N3  UNL     1       4.124  44.204  -3.094  1.00  0.00    -0.304 N
HETATM    8  C8  UNL     1       4.689  45.213  -3.893  1.00  0.00     0.095 C
HETATM    9  C9  UNL     1       6.006  45.087  -4.496  1.00  0.00     0.022 C
HETATM   10  C10 UNL     1       6.484  43.833  -5.092  1.00  0.00     0.144 C
HETATM   11  C11 UNL     1       6.690  42.639  -4.265  1.00  0.00     0.060 C
HETATM   12  C12 UNL     1       6.977  42.869  -2.819  1.00  0.00     0.079 C
HETATM   13  N6  UNL     1       6.130  42.150  -1.991  1.00  0.00    -0.409 N
ATOM     14  H6  UNL     1       6.468  41.245  -1.663  1.00  0.00     0.154 HD
ENDROOT
BRANCH  12  15
HETATM   15  C13 UNL     1       8.413  42.404  -2.480  1.00  0.00     0.025 C
BRANCH  15  16
HETATM   16  C14 UNL     1       8.476  41.945  -1.040  1.00  0.00     0.002 C
BRANCH  16  17
HETATM   17  C15 UNL     1       9.895  41.457  -0.778  1.00  0.00     0.000 C
BRANCH  17  18
HETATM   18  C16 UNL     1       9.838  40.003  -0.388  1.00  0.00     0.000 C
BRANCH  18  19
HETATM   19  C17 UNL     1      10.846  39.172  -1.131  1.00  0.00     0.007 C
BRANCH  19  20
HETATM   20  C18 UNL     1      10.184  38.264  -2.125  1.00  0.00     0.078 C
BRANCH  20  21
HETATM   21  C19 UNL     1      10.092  38.801  -3.487  1.00  0.00     0.097 C
HETATM   22  N4  UNL     1       8.905  39.167  -3.888  1.00  0.00    -0.257 N
ATOM     23  H4  UNL     1       8.810  39.544  -4.831  1.00  0.00     0.195 HD
BRANCH  22  24
HETATM   24  O4  UNL     1       7.783  39.072  -3.116  1.00  0.00    -0.288 OA
ATOM     25  H4  UNL     1       7.218  39.809  -2.917  1.00  0.00     0.244 HD
ENDBRANCH  22  24
BRANCH  21  26
HETATM   26  N5  UNL     1      11.164  38.958  -4.393  1.00  0.00    -0.376 N
ATOM     27  H5  UNL     1      12.080  38.629  -4.089  1.00  0.00     0.160 HD
BRANCH  26  28
HETATM   28  C20 UNL     1      11.081  39.535  -5.695  1.00  0.00     0.147 C
BRANCH  28  29
HETATM   29  C21 UNL     1      11.903  38.713  -6.694  1.00  0.00     0.183 C
BRANCH  29  30
HETATM   30  O5  UNL     1      11.042  38.095  -7.594  1.00  0.00    -0.399 OA
ATOM     31  H5  UNL     1      10.156  38.130  -7.252  1.00  0.00     0.209 HD
ENDBRANCH  29  30
ENDBRANCH  28  29
ENDBRANCH  26  28
ENDBRANCH  21  26
ENDBRANCH  20  21
ENDBRANCH  19  20
ENDBRANCH  18  19
ENDBRANCH  17  18
ENDBRANCH  16  17
ENDBRANCH  15  16
ENDBRANCH  12  15
BRANCH  10  32
HETATM   32  O3  UNL     1       5.776  43.446  -6.257  1.00  0.00    -0.392 OA
ATOM     33  H3  UNL     1       5.941  44.001  -7.009  1.00  0.00     0.210 HD
ENDBRANCH  10  32
BRANCH   1  34
HETATM   34  N2  UNL     1       4.946  44.933  -0.932  1.00  0.00    -0.336 N
HETATM   35  C2  UNL     1       4.516  45.250   0.385  1.00  0.00     0.244 C
HETATM   36  O1  UNL     1       3.572  44.618   0.936  1.00  0.00    -0.272 OA
ATOM     37  H2  UNL     1       5.712  45.468  -1.341  1.00  0.00     0.164 HD
BRANCH  35  38
HETATM   38  C1  UNL     1       5.144  46.329   1.183  1.00  0.00     0.332 C
BRANCH  38  39
HETATM   39  N1  UNL     1       4.119  46.859   2.074  1.00  0.00    -0.071 N
ATOM     40  H13 UNL     1       3.187  46.499   1.870  1.00  0.00     0.274 HD
ATOM     41  H12 UNL     1       4.194  46.501   3.026  1.00  0.00     0.274 HD
ATOM     42  H11 UNL     1       4.173  47.876   2.025  1.00  0.00     0.274 HD
ENDBRANCH  38  39
ENDBRANCH  35  38
ENDBRANCH   1  34
TORSDOF 16
ENDMDL