MODEL 1
REMARK VINA RESULT: -6.902045928      0.000      0.000
REMARK  17 active torsions:
REMARK  status: ('A' for Active; 'I' for Inactive)
REMARK    1  A    between atoms: N1_1  and  C1_5
REMARK    2  A    between atoms: C1_5  and  N2_6
REMARK    3  A    between atoms: N2_6  and  C2_8
REMARK    4  A    between atoms: C2_8  and  C3_9
REMARK    5  A    between atoms: C6_12  and  C7_13
REMARK    6  A    between atoms: C7_13  and  C8_14
REMARK    7  A    between atoms: C8_14  and  C9_15
REMARK    8  A    between atoms: C9_15  and  C10_16
REMARK    9  A    between atoms: C13_19  and  C14_20
REMARK   10  A    between atoms: C14_20  and  S1_21
REMARK   11  A    between atoms: S1_21  and  C15_22
REMARK   12  A    between atoms: C15_22  and  C16_23
REMARK   13  A    between atoms: C16_23  and  C17_24
REMARK   14  A    between atoms: C17_24  and  O1_25
REMARK   15  A    between atoms: C17_24  and  C18_27
REMARK   16  A    between atoms: C18_27  and  O2_28
REMARK   17  A    between atoms: C20_32  and  O3_33
ROOT
HETATM    1  C10 UNL     1      15.581  41.188 -11.401  1.00  0.00     0.035 C
HETATM    2  C11 UNL     1      16.994  40.980 -11.020  1.00  0.00     0.024 C
HETATM    3  C12 UNL     1      17.490  39.968 -12.042  1.00  0.00     0.015 C
HETATM    4  C13 UNL     1      16.296  39.523 -12.847  1.00  0.00     0.004 C
HETATM    5  C19 UNL     1      16.028  40.460 -14.001  1.00  0.00     0.087 C
HETATM    6  S2  UNL     1      15.554  41.974 -13.054  1.00  0.00    -0.155 SA
HETATM    7  C20 UNL     1      15.168  39.778 -11.832  1.00  0.00     0.146 C
ENDROOT
BRANCH   1   8
HETATM    8  C9  UNL     1      14.682  41.810 -10.436  1.00  0.00     0.027 C
BRANCH   8   9
HETATM    9  C8  UNL     1      14.335  40.880  -9.294  1.00  0.00     0.030 C
BRANCH   9  10
HETATM   10  C7  UNL     1      12.980  41.252  -8.820  1.00  0.00    -0.010 C
BRANCH  10  11
HETATM   11  C6  UNL     1      12.448  40.540  -7.844  1.00  0.00     0.028 A
HETATM   12  C5  UNL     1      12.438  39.161  -7.858  1.00  0.00     0.019 A
HETATM   13  C4  UNL     1      11.861  38.447  -6.801  1.00  0.00     0.032 A
HETATM   14  C3  UNL     1      11.315  39.170  -5.768  1.00  0.00     0.050 A
HETATM   15  N3  UNL     1      11.333  40.503  -5.771  1.00  0.00    -0.322 N
HETATM   16  C21 UNL     1      11.875  41.225  -6.764  1.00  0.00     0.255 A
ATOM     17  H3  UNL     1      10.915  40.997  -4.982  1.00  0.00     0.169 HD
HETATM   18  O4  UNL     1      11.884  42.481  -6.755  1.00  0.00    -0.267 OA
BRANCH  14  19
HETATM   19  C2  UNL     1      10.769  38.531  -4.765  1.00  0.00     0.114 C
BRANCH  19  20
HETATM   20  N2  UNL     1      10.941  39.012  -3.440  1.00  0.00    -0.375 N
ATOM     21  H2  UNL     1      11.665  39.707  -3.263  1.00  0.00     0.160 HD
BRANCH  20  22
HETATM   22  C1  UNL     1      10.141  38.563  -2.346  1.00  0.00     0.351 C
BRANCH  22  23
HETATM   23  N1  UNL     1      10.465  37.203  -2.023  1.00  0.00    -0.064 N
ATOM     24  H13 UNL     1       9.765  36.778  -1.415  1.00  0.00     0.276 HD
ATOM     25  H12 UNL     1      10.362  36.584  -2.827  1.00  0.00     0.276 HD
ATOM     26  H11 UNL     1      11.401  37.152  -1.620  1.00  0.00     0.276 HD
ENDBRANCH  22  23
ENDBRANCH  20  22
ENDBRANCH  19  20
ENDBRANCH  14  19
ENDBRANCH  10  11
ENDBRANCH   9  10
ENDBRANCH   8   9
ENDBRANCH   1   8
BRANCH   7  27
HETATM   27  O3  UNL     1      13.934  39.812 -12.429  1.00  0.00    -0.393 OA
ATOM     28  H3  UNL     1      13.893  39.168 -13.127  1.00  0.00     0.210 HD
ENDBRANCH   7  27
BRANCH   4  29
HETATM   29  C14 UNL     1      16.433  38.108 -13.205  1.00  0.00     0.086 C
BRANCH  29  30
HETATM   30  S1  UNL     1      15.709  37.635 -14.780  1.00  0.00    -0.168 SA
BRANCH  30  31
HETATM   31  C15 UNL     1      14.717  36.147 -14.460  1.00  0.00     0.076 C
BRANCH  31  32
HETATM   32  C16 UNL     1      13.566  36.443 -13.526  1.00  0.00     0.044 C
BRANCH  32  33
HETATM   33  C17 UNL     1      13.814  35.624 -12.264  1.00  0.00     0.142 C
BRANCH  33  34
HETATM   34  O1  UNL     1      12.818  34.623 -12.249  1.00  0.00    -0.393 OA
ATOM     35  H1  UNL     1      13.269  33.804 -12.421  1.00  0.00     0.210 HD
ENDBRANCH  33  34
BRANCH  33  36
HETATM   36  C18 UNL     1      13.568  36.477 -11.043  1.00  0.00     0.195 C
BRANCH  36  37
HETATM   37  O2  UNL     1      14.710  36.527 -10.275  1.00  0.00    -0.398 OA
ATOM     38  H2  UNL     1      14.569  37.101  -9.531  1.00  0.00     0.209 HD
ENDBRANCH  36  37
ENDBRANCH  33  36
ENDBRANCH  32  33
ENDBRANCH  31  32
ENDBRANCH  30  31
ENDBRANCH  29  30
ENDBRANCH   4  29
TORSDOF 17
ENDMDL