MODEL 4
REMARK VINA RESULT: -7.325674473      4.184      9.310
REMARK  13 active torsions:
REMARK  status: ('A' for Active; 'I' for Inactive)
REMARK    1  A    between atoms: C2_2  and  C3_3
REMARK    2  A    between atoms: C3_3  and  C4_4
REMARK    3  A    between atoms: C4_4  and  C5_5
REMARK    4  A    between atoms: C5_5  and  C6_6
REMARK    5  A    between atoms: C6_6  and  C7_7
REMARK    6  A    between atoms: C7_7  and  C8_8
REMARK    7  A    between atoms: C8_8  and  C9_9
REMARK    8  A    between atoms: C9_9  and  C10_10
REMARK       I    between atoms: C10_10  and  N1_12
REMARK    9  A    between atoms: C12_14  and  O2_15
REMARK   10  A    between atoms: C13_17  and  N2_18
REMARK       I    between atoms: N2_18  and  C14_20
REMARK   11  A    between atoms: C14_20  and  C15_22
REMARK   12  A    between atoms: C15_22  and  C16_23
REMARK   13  A    between atoms: C16_23  and  N3_24
REMARK       I    between atoms: N3_24  and  C17_26
ROOT
HETATM    1  N2  UNL     1       8.860  41.099  -3.129  1.00  0.00    -0.348 N
ATOM      2  H2  UNL     1       9.782  41.529  -3.209  1.00  0.00     0.163 HD
HETATM    3  C14 UNL     1       8.754  39.693  -3.052  1.00  0.00     0.273 C
HETATM    4  O3  UNL     1       7.639  39.148  -2.957  1.00  0.00    -0.268 OA
ENDROOT
BRANCH   1   5
HETATM    5  C13 UNL     1       7.677  41.940  -3.097  1.00  0.00     0.133 C
HETATM    6  C12 UNL     1       8.046  43.281  -2.552  1.00  0.00     0.160 C
HETATM    7  C11 UNL     1       8.043  44.230  -3.740  1.00  0.00     0.159 C
HETATM    8  N1  UNL     1       7.107  43.624  -4.666  1.00  0.00    -0.348 N
HETATM    9  C10 UNL     1       6.208  44.281  -5.541  1.00  0.00     0.219 C
HETATM   10  C20 UNL     1       7.255  42.193  -4.533  1.00  0.00     0.153 C
HETATM   11  O1  UNL     1       5.456  43.597  -6.281  1.00  0.00    -0.273 OA
BRANCH   6  12
HETATM   12  O2  UNL     1       7.116  43.682  -1.590  1.00  0.00    -0.392 OA
ATOM     13  H2  UNL     1       6.470  43.002  -1.439  1.00  0.00     0.210 HD
ENDBRANCH   6  12
BRANCH   9  14
HETATM   14  C9  UNL     1       6.135  45.757  -5.601  1.00  0.00     0.103 C
BRANCH  14  15
HETATM   15  C8  UNL     1       4.924  46.364  -4.981  1.00  0.00     0.009 C
BRANCH  15  16
HETATM   16  C7  UNL     1       4.568  45.839  -3.621  1.00  0.00     0.000 C
BRANCH  16  17
HETATM   17  C6  UNL     1       3.083  45.596  -3.523  1.00  0.00     0.000 C
BRANCH  17  18
HETATM   18  C5  UNL     1       2.718  44.290  -4.122  1.00  0.00     0.000 C
BRANCH  18  19
HETATM   19  C4  UNL     1       2.677  43.165  -3.104  1.00  0.00     0.000 C
BRANCH  19  20
HETATM   20  C3  UNL     1       3.815  42.209  -3.237  1.00  0.00    -0.000 C
BRANCH  20  21
HETATM   21  C2  UNL     1       4.158  41.745  -1.816  1.00  0.00    -0.005 C
HETATM   22  C1  UNL     1       3.662  42.815  -0.870  1.00  0.00     0.005 C
ENDBRANCH  20  21
ENDBRANCH  19  20
ENDBRANCH  18  19
ENDBRANCH  17  18
ENDBRANCH  16  17
ENDBRANCH  15  16
ENDBRANCH  14  15
ENDBRANCH   9  14
ENDBRANCH   1   5
BRANCH   3  23
HETATM   23  C15 UNL     1       9.976  38.869  -3.086  1.00  0.00     0.247 C
HETATM   24  N6  UNL     1       9.624  37.485  -3.289  1.00  0.00    -0.094 NA
HETATM   25  N7  UNL     1       9.188  36.847  -2.150  1.00  0.00    -0.334 N
HETATM   26  C18 UNL     1       9.988  37.058  -0.985  1.00  0.00     0.161 C
ATOM     27  H7  UNL     1       8.350  36.265  -2.138  1.00  0.00     0.175 HD
HETATM   28  C19 UNL     1      10.225  38.526  -0.816  1.00  0.00     0.192 C
HETATM   29  O4  UNL     1      10.780  39.059  -1.972  1.00  0.00    -0.351 OA
BRANCH  23  30
HETATM   30  C16 UNL     1      10.789  39.308  -4.292  1.00  0.00     0.191 C
BRANCH  30  31
HETATM   31  N3  UNL     1      11.328  38.176  -5.010  1.00  0.00    -0.360 N
HETATM   32  C17 UNL     1      11.744  38.340  -6.353  1.00  0.00     0.181 C
HETATM   33  N4  UNL     1      12.974  38.126  -6.645  1.00  0.00    -0.374 N
HETATM   34  N5  UNL     1      10.867  38.730  -7.395  1.00  0.00    -0.064 NA
ATOM     35  H42 UNL     1      13.605  37.845  -5.895  1.00  0.00     0.158 HD
ATOM     36  H41 UNL     1      13.274  38.244  -7.612  1.00  0.00     0.158 HD
ATOM     37  H3  UNL     1      11.407  37.267  -4.554  1.00  0.00     0.162 HD
ENDBRANCH  30  31
ENDBRANCH  23  30
ENDBRANCH   3  23
TORSDOF 13
ENDMDL