MODEL 1
REMARK VINA RESULT: -7.820228260      0.000      0.000
REMARK  13 active torsions:
REMARK  status: ('A' for Active; 'I' for Inactive)
REMARK    1  A    between atoms: C3_3  and  O1_4
REMARK    2  A    between atoms: C12_16  and  N2_17
REMARK    3  A    between atoms: N2_17  and  C13_18
REMARK    4  A    between atoms: C14_20  and  N3_21
REMARK    5  A    between atoms: N3_21  and  C15_23
REMARK    6  A    between atoms: C15_23  and  C16_24
REMARK    7  A    between atoms: C16_24  and  O3_25
REMARK    8  A    between atoms: O3_25  and  C17_26
REMARK    9  A    between atoms: C17_26  and  C18_27
REMARK   10  A    between atoms: C18_27  and  O4_28
REMARK   11  A    between atoms: O4_28  and  C19_29
REMARK   12  A    between atoms: C19_29  and  C20_30
REMARK   13  A    between atoms: C20_30  and  N4_31
REMARK       I    between atoms: N4_31  and  C21_33
ROOT
HETATM    1  C1  UNL     1      13.667  36.095 -14.511  1.00  0.00     0.052 C
HETATM    2  C2  UNL     1      13.711  36.803 -13.242  1.00  0.00    -0.022 A
HETATM    3  C3  UNL     1      13.178  36.224 -12.111  1.00  0.00     0.074 A
HETATM    4  C4  UNL     1      13.211  36.863 -10.892  1.00  0.00     0.067 A
HETATM    5  C5  UNL     1      13.780  38.112 -10.758  1.00  0.00     0.046 A
HETATM    6  N1  UNL     1      13.966  38.951  -9.726  1.00  0.00    -0.358 N
ATOM      7  H1  UNL     1      13.678  38.794  -8.760  1.00  0.00     0.166 HD
HETATM    8  C6  UNL     1      14.594  40.024 -10.197  1.00  0.00     0.019 A
HETATM    9  C7  UNL     1      14.825  39.892 -11.553  1.00  0.00    -0.019 A
HETATM   10  C8  UNL     1      14.315  38.684 -11.919  1.00  0.00     0.005 A
HETATM   11  C9  UNL     1      14.278  38.036 -13.134  1.00  0.00    -0.040 A
HETATM   12  C10 UNL     1      14.852  38.644 -14.337  1.00  0.00     0.050 C
HETATM   13  C11 UNL     1      15.497  40.996 -12.211  1.00  0.00     0.083 C
HETATM   14  C12 UNL     1      14.919  42.373 -11.787  1.00  0.00     0.193 C
HETATM   15  C14 UNL     1      14.944  42.517 -10.278  1.00  0.00     0.122 C
HETATM   16  C22 UNL     1      15.076  41.234  -9.535  1.00  0.00     0.085 C
ENDROOT
BRANCH  15  17
HETATM   17  N3  UNL     1      13.933  43.383  -9.824  1.00  0.00    -0.392 N
ATOM     18  H3  UNL     1      13.860  44.322 -10.216  1.00  0.00     0.159 HD
BRANCH  17  19
HETATM   19  C15 UNL     1      13.033  42.975  -8.849  1.00  0.00     0.082 C
BRANCH  19  20
HETATM   20  C16 UNL     1      11.779  42.279  -9.245  1.00  0.00     0.211 C
BRANCH  20  21
HETATM   21  O3  UNL     1      11.544  41.026  -8.804  1.00  0.00    -0.384 OA
BRANCH  21  22
HETATM   22  C17 UNL     1      11.691  40.650  -7.525  1.00  0.00     0.194 C
BRANCH  22  23
HETATM   23  C18 UNL     1      11.547  39.172  -7.299  1.00  0.00     0.193 C
BRANCH  23  24
HETATM   24  O4  UNL     1      10.569  38.764  -6.442  1.00  0.00    -0.387 OA
BRANCH  24  25
HETATM   25  C19 UNL     1      10.948  38.388  -5.183  1.00  0.00     0.187 C
BRANCH  25  26
HETATM   26  C20 UNL     1      10.173  39.164  -4.109  1.00  0.00     0.148 C
BRANCH  26  27
HETATM   27  N4  UNL     1      10.924  38.974  -2.875  1.00  0.00    -0.363 N
HETATM   28  C21 UNL     1      10.499  38.184  -1.778  1.00  0.00     0.181 C
HETATM   29  N5  UNL     1      10.269  36.910  -1.886  1.00  0.00    -0.374 N
HETATM   30  N6  UNL     1      10.322  38.779  -0.509  1.00  0.00    -0.064 NA
ATOM     31  H52 UNL     1      10.397  36.480  -2.803  1.00  0.00     0.158 HD
ATOM     32  H51 UNL     1       9.964  36.341  -1.097  1.00  0.00     0.158 HD
ATOM     33  H4  UNL     1      11.825  39.444  -2.795  1.00  0.00     0.162 HD
ENDBRANCH  26  27
ENDBRANCH  25  26
ENDBRANCH  24  25
ENDBRANCH  23  24
ENDBRANCH  22  23
ENDBRANCH  21  22
ENDBRANCH  20  21
ENDBRANCH  19  20
ENDBRANCH  17  19
ENDBRANCH  15  17
BRANCH  14  34
HETATM   34  N2  UNL     1      13.693  42.517 -12.405  1.00  0.00    -0.415 NA
BRANCH  34  35
HETATM   35  C13 UNL     1      12.492  42.658 -13.011  1.00  0.00     0.435 C
HETATM   36  O2  UNL     1      12.241  42.736 -14.239  1.00  0.00    -0.269 OA
ENDBRANCH  34  35
ENDBRANCH  14  34
BRANCH   3  37
HETATM   37  O1  UNL     1      12.601  34.975 -12.206  1.00  0.00    -0.360 OA
ATOM     38  H1  UNL     1      11.670  34.882 -12.037  1.00  0.00     0.217 HD
ENDBRANCH   3  37
TORSDOF 13
ENDMDL