MODEL 1
REMARK VINA RESULT: -8.254634664      0.000      0.000
REMARK  13 active torsions:
REMARK  status: ('A' for Active; 'I' for Inactive)
REMARK    1  A    between atoms: N1_1  and  C1_4
REMARK    2  A    between atoms: C5_13  and  C6_14
REMARK    3  A    between atoms: C6_14  and  C7_15
REMARK    4  A    between atoms: C7_15  and  C8_16
REMARK    5  A    between atoms: C10_22  and  C11_23
REMARK       I    between atoms: C11_23  and  N6_25
REMARK    6  A    between atoms: N6_25  and  C12_27
REMARK    7  A    between atoms: C12_27  and  C13_28
REMARK    8  A    between atoms: C13_28  and  C14_29
REMARK    9  A    between atoms: C14_29  and  C15_30
REMARK   10  A    between atoms: C15_30  and  C16_31
REMARK   11  A    between atoms: C16_31  and  C17_32
REMARK   12  A    between atoms: C17_32  and  C18_33
REMARK   13  A    between atoms: C18_33  and  N7_34
REMARK       I    between atoms: N7_34  and  C19_36
ROOT
HETATM    1  C8  UNL     1      13.710  37.226 -11.810  1.00  0.00     0.043 A
HETATM    2  N4  UNL     1      12.951  36.112 -11.736  1.00  0.00    -0.354 N
ATOM      3  H4  UNL     1      12.170  35.988 -11.093  1.00  0.00     0.166 HD
HETATM    4  C9  UNL     1      13.361  35.192 -12.619  1.00  0.00     0.181 A
HETATM    5  N5  UNL     1      14.404  35.721 -13.276  1.00  0.00    -0.346 N
ATOM      6  H5  UNL     1      14.938  35.264 -14.016  1.00  0.00     0.167 HD
HETATM    7  C10 UNL     1      14.628  36.966 -12.792  1.00  0.00     0.124 A
ENDROOT
BRANCH   1   8
HETATM    8  C7  UNL     1      13.566  38.425 -10.970  1.00  0.00     0.065 C
BRANCH   8   9
HETATM    9  C6  UNL     1      14.070  38.246  -9.558  1.00  0.00     0.064 C
BRANCH   9  10
HETATM   10  C5  UNL     1      13.153  38.911  -8.576  1.00  0.00     0.026 A
HETATM   11  C4  UNL     1      12.684  40.189  -8.773  1.00  0.00     0.113 A
HETATM   12  N3  UNL     1      11.863  40.753  -7.871  1.00  0.00    -0.357 N
HETATM   13  C3  UNL     1      11.495  40.067  -6.773  1.00  0.00     0.146 A
ATOM     14  H3  UNL     1      11.518  41.701  -8.019  1.00  0.00     0.165 HD
HETATM   15  C2  UNL     1      10.649  40.616  -5.823  1.00  0.00     0.290 A
HETATM   16  C20 UNL     1      11.957  38.763  -6.547  1.00  0.00     0.154 A
HETATM   17  N2  UNL     1      10.297  39.917  -4.739  1.00  0.00    -0.154 N
HETATM   18  O1  UNL     1      10.207  41.787  -5.978  1.00  0.00    -0.265 OA
HETATM   19  C1  UNL     1      10.763  38.662  -4.555  1.00  0.00     0.680 A
ATOM     20  H2  UNL     1       9.673  40.334  -4.047  1.00  0.00     0.187 HD
HETATM   21  N10 UNL     1      11.580  38.097  -5.448  1.00  0.00    -0.174 N
ATOM     22  H10 UNL     1      11.919  37.148  -5.292  1.00  0.00     0.186 HD
HETATM   23  N9  UNL     1      12.768  38.262  -7.478  1.00  0.00    -0.342 N
ATOM     24  H9  UNL     1      13.120  37.314  -7.340  1.00  0.00     0.167 HD
BRANCH  19  25
HETATM   25  N1  UNL     1      10.380  38.041  -3.484  1.00  0.00    -0.234 N
ATOM     26  H12 UNL     1      10.748  38.276  -2.562  1.00  0.00     0.174 HD
ATOM     27  H11 UNL     1       9.691  37.299  -3.599  1.00  0.00     0.174 HD
ENDBRANCH  19  25
ENDBRANCH   9  10
ENDBRANCH   8   9
ENDBRANCH   1   8
BRANCH   7  28
HETATM   28  C11 UNL     1      15.672  37.853 -13.301  1.00  0.00     0.270 C
HETATM   29  O2  UNL     1      15.744  38.138 -14.511  1.00  0.00    -0.266 OA
HETATM   30  N6  UNL     1      16.635  38.414 -12.425  1.00  0.00    -0.356 N
ATOM     31  H6  UNL     1      16.577  38.177 -11.435  1.00  0.00     0.162 HD
BRANCH  30  32
HETATM   32  C12 UNL     1      17.687  39.297 -12.847  1.00  0.00     0.123 C
BRANCH  32  33
HETATM   33  C13 UNL     1      17.773  40.585 -12.047  1.00  0.00     0.020 C
BRANCH  33  34
HETATM   34  C14 UNL     1      16.379  40.981 -11.676  1.00  0.00     0.002 C
BRANCH  34  35
HETATM   35  C15 UNL     1      16.333  41.443 -10.229  1.00  0.00     0.000 C
BRANCH  35  36
HETATM   36  C16 UNL     1      17.362  42.499  -9.961  1.00  0.00     0.002 C
BRANCH  36  37
HETATM   37  C17 UNL     1      16.774  43.630  -9.170  1.00  0.00     0.020 C
BRANCH  37  38
HETATM   38  C18 UNL     1      15.598  43.181  -8.384  1.00  0.00     0.124 C
BRANCH  38  39
HETATM   39  N7  UNL     1      15.130  44.220  -7.523  1.00  0.00    -0.345 N
HETATM   40  C19 UNL     1      14.120  44.028  -6.572  1.00  0.00     0.328 C
HETATM   41  N8  UNL     1      13.669  45.088  -5.709  1.00  0.00    -0.040 NA
HETATM   42  O3  UNL     1      13.571  42.916  -6.441  1.00  0.00    -0.251 OA
ATOM     43  H7  UNL     1      15.550  45.145  -7.606  1.00  0.00     0.163 HD
ENDBRANCH  38  39
ENDBRANCH  37  38
ENDBRANCH  36  37
ENDBRANCH  35  36
ENDBRANCH  34  35
ENDBRANCH  33  34
ENDBRANCH  32  33
ENDBRANCH  30  32
ENDBRANCH   7  28
TORSDOF 13
ENDMDL