MODEL 5
REMARK VINA RESULT: -8.154063689      2.133      9.846
REMARK  14 active torsions:
REMARK  status: ('A' for Active; 'I' for Inactive)
REMARK    1  A    between atoms: N1_1  and  C1_4
REMARK    2  A    between atoms: C4_10  and  N3_11
REMARK    3  A    between atoms: N3_11  and  C5_12
REMARK    4  A    between atoms: C5_12  and  C6_13
REMARK    5  A    between atoms: C6_13  and  C7_14
REMARK    6  A    between atoms: C7_14  and  N4_15
REMARK    7  A    between atoms: N4_15  and  C8_18
REMARK    8  A    between atoms: C8_18  and  C9_19
REMARK    9  A    between atoms: C9_19  and  C10_20
REMARK   10  A    between atoms: C10_20  and  N5_21
REMARK       I    between atoms: N5_21  and  C11_23
REMARK   11  A    between atoms: C11_23  and  C12_25
REMARK   12  A    between atoms: C12_25  and  C13_26
REMARK   13  A    between atoms: C13_26  and  C14_27
REMARK       I    between atoms: C14_27  and  N6_29
REMARK   14  A    between atoms: N6_29  and  C15_31
ROOT
HETATM    1  C7  UNL     1      11.546  43.089 -10.320  1.00  0.00     0.238 C
ENDROOT
BRANCH   1   2
HETATM    2  C6  UNL     1      10.373  42.814  -9.430  1.00  0.00     0.087 C
BRANCH   2   3
HETATM    3  C5  UNL     1      10.841  42.767  -7.967  1.00  0.00     0.159 C
BRANCH   3   4
HETATM    4  N3  UNL     1      11.133  41.608  -7.399  1.00  0.00    -0.403 NA
BRANCH   4   5
HETATM    5  C4  UNL     1      11.389  40.541  -6.886  1.00  0.00     0.198 A
HETATM    6  C3  UNL     1      10.808  40.012  -5.769  1.00  0.00     0.135 A
HETATM    7  C2  UNL     1       9.870  40.671  -5.012  1.00  0.00     0.278 A
HETATM    8  C21 UNL     1      11.195  38.719  -5.328  1.00  0.00     0.142 A
HETATM    9  N2  UNL     1       9.308  40.184  -3.910  1.00  0.00    -0.155 N
HETATM   10  O1  UNL     1       9.514  41.849  -5.402  1.00  0.00    -0.266 OA
HETATM   11  C1  UNL     1       9.685  38.946  -3.501  1.00  0.00     0.680 A
ATOM     12  H2  UNL     1       8.617  40.723  -3.388  1.00  0.00     0.187 HD
HETATM   13  N9  UNL     1      10.611  38.254  -4.217  1.00  0.00    -0.176 N
ATOM     14  H9  UNL     1      10.876  37.326  -3.887  1.00  0.00     0.186 HD
HETATM   15  N8  UNL     1      12.119  37.994  -5.978  1.00  0.00    -0.337 N
HETATM   16  C20 UNL     1      12.679  38.525  -7.065  1.00  0.00     0.184 A
ATOM     17  H8  UNL     1      12.384  37.065  -5.651  1.00  0.00     0.168 HD
HETATM   18  N7  UNL     1      12.345  39.732  -7.510  1.00  0.00    -0.326 N
ATOM     19  H7  UNL     1      12.809  40.086  -8.346  1.00  0.00     0.169 HD
BRANCH  11  20
HETATM   20  N1  UNL     1       9.177  38.453  -2.468  1.00  0.00    -0.234 N
ATOM     21  H12 UNL     1       8.636  39.033  -1.826  1.00  0.00     0.174 HD
ATOM     22  H11 UNL     1       9.304  37.460  -2.267  1.00  0.00     0.174 HD
ENDBRANCH  11  20
ENDBRANCH   4   5
ENDBRANCH   3   4
ENDBRANCH   2   3
ENDBRANCH   1   2
BRANCH   1  23
HETATM   23  N4  UNL     1      12.510  41.997 -10.274  1.00  0.00    -0.075 N
ATOM     24  H42 UNL     1      12.265  41.272  -9.599  1.00  0.00     0.277 HD
ATOM     25  H41 UNL     1      12.492  41.409 -11.107  1.00  0.00     0.277 HD
BRANCH  23  26
HETATM   26  C8  UNL     1      13.793  42.588 -10.027  1.00  0.00     0.234 C
BRANCH  26  27
HETATM   27  C9  UNL     1      14.761  41.835  -9.180  1.00  0.00     0.047 C
BRANCH  27  28
HETATM   28  C10 UNL     1      15.672  40.889  -9.950  1.00  0.00     0.124 C
BRANCH  28  29
HETATM   29  N5  UNL     1      15.257  39.522  -9.818  1.00  0.00    -0.361 N
HETATM   30  C11 UNL     1      14.354  38.869 -10.704  1.00  0.00     0.217 C
HETATM   31  O2  UNL     1      13.910  39.459 -11.689  1.00  0.00    -0.274 OA
ATOM     32  H5  UNL     1      15.635  38.982  -9.040  1.00  0.00     0.162 HD
BRANCH  30  33
HETATM   33  C12 UNL     1      13.983  37.500 -10.359  1.00  0.00     0.112 C
BRANCH  33  34
HETATM   34  C13 UNL     1      12.969  36.789 -11.101  1.00  0.00     0.112 C
BRANCH  34  35
HETATM   35  C14 UNL     1      13.364  35.952 -12.245  1.00  0.00     0.218 C
HETATM   36  O3  UNL     1      13.152  34.730 -12.200  1.00  0.00    -0.274 OA
HETATM   37  N6  UNL     1      13.952  36.669 -13.319  1.00  0.00    -0.356 N
ATOM     38  H6  UNL     1      14.100  37.670 -13.194  1.00  0.00     0.162 HD
BRANCH  37  39
HETATM   39  C15 UNL     1      14.351  36.093 -14.563  1.00  0.00     0.084 C
HETATM   40  C16 UNL     1      14.988  37.131 -15.500  1.00  0.00     0.025 C
HETATM   41  C17 UNL     1      14.939  36.337 -16.806  1.00  0.00     0.002 C
HETATM   42  C18 UNL     1      13.586  35.652 -16.781  1.00  0.00     0.002 C
HETATM   43  C19 UNL     1      13.087  35.758 -15.378  1.00  0.00     0.025 C
ENDBRANCH  37  39
ENDBRANCH  34  35
ENDBRANCH  33  34
ENDBRANCH  30  33
ENDBRANCH  28  29
ENDBRANCH  27  28
ENDBRANCH  26  27
ENDBRANCH  23  26
ENDBRANCH   1  23
TORSDOF 14
ENDMDL