MODEL 4
REMARK VINA RESULT: -6.106842639      3.639      6.261
REMARK  16 active torsions:
REMARK  status: ('A' for Active; 'I' for Inactive)
REMARK    1  A    between atoms: C2_2  and  C4_4
REMARK    2  A    between atoms: C13_13  and  N1_14
REMARK    3  A    between atoms: N1_14  and  C14_15
REMARK    4  A    between atoms: N1_14  and  C15_17
REMARK    5  A    between atoms: C15_17  and  C16_18
REMARK    6  A    between atoms: C16_18  and  O2_19
REMARK    7  A    between atoms: C16_18  and  C17_21
REMARK    8  A    between atoms: C17_21  and  C18_22
REMARK    9  A    between atoms: C18_22  and  N2_23
REMARK   10  A    between atoms: N2_23  and  C19_26
REMARK   11  A    between atoms: C19_26  and  C20_27
REMARK   12  A    between atoms: C20_27  and  C21_28
REMARK   13  A    between atoms: C21_28  and  N3_29
REMARK   14  A    between atoms: C22_33  and  O3_34
REMARK   15  A    between atoms: C23_36  and  O4_37
REMARK   16  A    between atoms: C24_39  and  O5_40
ROOT
HETATM    1  C4  UNL     1      15.649  42.553 -12.401  1.00  0.00    -0.002 C
HETATM    2  C5  UNL     1      14.652  43.153 -11.444  1.00  0.00     0.018 C
HETATM    3  C6  UNL     1      13.555  42.133 -11.412  1.00  0.00    -0.005 C
HETATM    4  C7  UNL     1      13.947  41.039 -12.419  1.00  0.00     0.022 C
HETATM    5  C8  UNL     1      15.478  41.114 -12.233  1.00  0.00    -0.039 C
HETATM    6  C9  UNL     1      16.134  40.292 -13.316  1.00  0.00     0.015 C
HETATM    7  C10 UNL     1      15.739  40.495 -10.916  1.00  0.00     0.010 C
HETATM    8  C11 UNL     1      14.969  41.010  -9.759  1.00  0.00     0.008 C
HETATM    9  C12 UNL     1      13.573  41.476 -10.077  1.00  0.00     0.022 C
HETATM   10  C13 UNL     1      13.002  42.308  -8.976  1.00  0.00     0.122 C
HETATM   11  C22 UNL     1      11.993  43.317  -9.320  1.00  0.00     0.172 C
HETATM   12  C23 UNL     1      11.649  43.570 -10.732  1.00  0.00     0.178 C
HETATM   13  C24 UNL     1      12.226  42.703 -11.778  1.00  0.00     0.158 C
ENDROOT
BRANCH  10  14
HETATM   14  N1  UNL     1      12.514  41.456  -7.876  1.00  0.00    -0.349 N
BRANCH  14  15
HETATM   15  C14 UNL     1      12.843  41.784  -6.551  1.00  0.00     0.351 C
HETATM   16  O1  UNL     1      13.605  42.715  -6.194  1.00  0.00    -0.284 OA
ENDBRANCH  14  15
BRANCH  14  17
HETATM   17  C15 UNL     1      11.706  40.320  -8.156  1.00  0.00     0.157 C
BRANCH  17  18
HETATM   18  C16 UNL     1      11.873  39.111  -7.327  1.00  0.00     0.137 C
BRANCH  18  19
HETATM   19  O2  UNL     1      10.716  38.339  -7.272  1.00  0.00    -0.394 OA
ATOM     20  H2  UNL     1      10.728  37.716  -6.554  1.00  0.00     0.210 HD
ENDBRANCH  18  19
BRANCH  18  21
HETATM   21  C17 UNL     1      13.086  38.309  -7.666  1.00  0.00     0.060 C
BRANCH  21  22
HETATM   22  C18 UNL     1      13.128  37.949  -9.148  1.00  0.00     0.235 C
BRANCH  22  23
HETATM   23  N2  UNL     1      14.420  37.413  -9.513  1.00  0.00    -0.075 N
ATOM     24  H22 UNL     1      15.113  38.152  -9.636  1.00  0.00     0.277 HD
ATOM     25  H21 UNL     1      14.857  36.920  -8.735  1.00  0.00     0.277 HD
BRANCH  23  26
HETATM   26  C19 UNL     1      14.320  36.581 -10.678  1.00  0.00     0.233 C
BRANCH  26  27
HETATM   27  C20 UNL     1      13.536  37.244 -11.786  1.00  0.00     0.055 C
BRANCH  27  28
HETATM   28  C21 UNL     1      13.519  36.279 -12.967  1.00  0.00     0.231 C
BRANCH  28  29
HETATM   29  N3  UNL     1      13.678  34.901 -12.511  1.00  0.00    -0.079 N
ATOM     30  H33 UNL     1      14.584  34.752 -12.067  1.00  0.00     0.274 HD
ATOM     31  H32 UNL     1      13.080  34.696 -11.710  1.00  0.00     0.274 HD
ATOM     32  H31 UNL     1      13.519  34.246 -13.277  1.00  0.00     0.274 HD
ENDBRANCH  28  29
ENDBRANCH  27  28
ENDBRANCH  26  27
ENDBRANCH  23  26
ENDBRANCH  22  23
ENDBRANCH  21  22
ENDBRANCH  18  21
ENDBRANCH  17  18
ENDBRANCH  14  17
ENDBRANCH  10  14
BRANCH  11  33
HETATM   33  O3  UNL     1      10.789  42.993  -8.637  1.00  0.00    -0.391 OA
ATOM     34  H3  UNL     1      10.600  43.690  -8.021  1.00  0.00     0.210 HD
ENDBRANCH  11  33
BRANCH  12  35
HETATM   35  O4  UNL     1      11.924  44.941 -11.004  1.00  0.00    -0.390 OA
ATOM     36  H4  UNL     1      11.802  45.080 -11.936  1.00  0.00     0.210 HD
ENDBRANCH  12  35
BRANCH  13  37
HETATM   37  O5  UNL     1      12.400  43.415 -12.986  1.00  0.00    -0.392 OA
ATOM     38  H5  UNL     1      12.469  44.335 -12.759  1.00  0.00     0.210 HD
ENDBRANCH  13  37
BRANCH   1  39
HETATM   39  C2  UNL     1      16.992  43.144 -12.362  1.00  0.00    -0.018 C
HETATM   40  C1  UNL     1      17.461  43.727 -11.087  1.00  0.00     0.010 C
HETATM   41  C3  UNL     1      17.082  44.222 -13.434  1.00  0.00     0.010 C
ENDBRANCH   1  39
TORSDOF 16
ENDMDL