MODEL 1
REMARK VINA RESULT: -8.388454223      0.000      0.000
REMARK  14 active torsions:
REMARK  status: ('A' for Active; 'I' for Inactive)
REMARK    1  A    between atoms: C2_2  and  C3_3
REMARK    2  A    between atoms: C3_3  and  C4_4
REMARK    3  A    between atoms: C4_4  and  S1_8
REMARK    4  A    between atoms: S1_8  and  C5_11
REMARK    5  A    between atoms: C5_11  and  C6_12
REMARK    6  A    between atoms: C6_12  and  C7_13
REMARK    7  A    between atoms: C7_13  and  C8_14
REMARK    8  A    between atoms: C8_14  and  C9_15
REMARK    9  A    between atoms: C9_15  and  C10_16
REMARK   10  A    between atoms: C12_21  and  C13_22
REMARK   11  A    between atoms: C13_22  and  C14_23
REMARK   12  A    between atoms: C14_23  and  C15_24
REMARK   13  A    between atoms: C17_26  and  N3_27
REMARK   14  A    between atoms: C18_32  and  N5_33
ROOT
HETATM    1  C10 UNL     1      12.746  40.014  -9.222  1.00  0.00     0.176 C
HETATM    2  N2  UNL     1      13.195  38.933  -8.374  1.00  0.00    -0.346 N
ATOM      3  H2  UNL     1      12.918  38.930  -7.392  1.00  0.00     0.163 HD
HETATM    4  C11 UNL     1      14.011  37.873  -8.858  1.00  0.00     0.241 C
HETATM    5  O3  UNL     1      14.344  36.926  -8.102  1.00  0.00    -0.271 OA
HETATM    6  C12 UNL     1      14.439  37.935 -10.266  1.00  0.00     0.177 C
HETATM    7  N7  UNL     1      14.698  39.318 -10.616  1.00  0.00    -0.346 N
ATOM      8  H7  UNL     1      15.581  39.597 -11.047  1.00  0.00     0.163 HD
HETATM    9  C19 UNL     1      13.681  40.273 -10.340  1.00  0.00     0.241 C
HETATM   10  O4  UNL     1      13.574  41.325 -11.032  1.00  0.00    -0.271 OA
ENDROOT
BRANCH   6  11
HETATM   11  C13 UNL     1      13.314  37.461 -11.196  1.00  0.00     0.041 C
BRANCH  11  12
HETATM   12  C14 UNL     1      13.669  36.124 -11.832  1.00  0.00     0.060 C
BRANCH  12  13
HETATM   13  C15 UNL     1      13.788  36.375 -13.290  1.00  0.00     0.030 A
HETATM   14  C16 UNL     1      14.169  37.609 -13.800  1.00  0.00     0.074 A
HETATM   15  C17 UNL     1      14.278  37.839 -15.151  1.00  0.00     0.116 A
HETATM   16  N4  UNL     1      14.010  36.846 -16.007  1.00  0.00    -0.177 N
HETATM   17  C18 UNL     1      13.639  35.644 -15.520  1.00  0.00     0.677 A
ATOM     18  H4  UNL     1      14.084  36.996 -17.013  1.00  0.00     0.185 HD
HETATM   19  N6  UNL     1      13.528  35.405 -14.184  1.00  0.00    -0.196 N
ATOM     20  H6  UNL     1      13.244  34.481 -13.858  1.00  0.00     0.184 HD
BRANCH  15  21
HETATM   21  N3  UNL     1      14.630  38.977 -15.629  1.00  0.00    -0.385 N
ATOM     22  H32 UNL     1      14.683  39.082 -16.642  1.00  0.00     0.157 HD
ATOM     23  H31 UNL     1      14.854  39.774 -15.033  1.00  0.00     0.157 HD
ENDBRANCH  15  21
BRANCH  17  24
HETATM   24  N5  UNL     1      13.374  34.670 -16.315  1.00  0.00    -0.234 N
ATOM     25  H52 UNL     1      12.677  34.836 -17.040  1.00  0.00     0.174 HD
ATOM     26  H51 UNL     1      13.850  33.773 -16.214  1.00  0.00     0.174 HD
ENDBRANCH  17  24
ENDBRANCH  12  13
ENDBRANCH  11  12
ENDBRANCH   6  11
BRANCH   1  27
HETATM   27  C9  UNL     1      12.769  41.295  -8.364  1.00  0.00     0.035 C
BRANCH  27  28
HETATM   28  C8  UNL     1      11.335  41.731  -8.269  1.00  0.00     0.002 C
BRANCH  28  29
HETATM   29  C7  UNL     1      10.975  41.849  -6.781  1.00  0.00     0.001 C
BRANCH  29  30
HETATM   30  C6  UNL     1      10.981  40.527  -6.096  1.00  0.00     0.015 C
BRANCH  30  31
HETATM   31  C5  UNL     1       9.904  40.375  -5.072  1.00  0.00     0.147 C
BRANCH  31  32
HETATM   32  S1  UNL     1       9.809  38.756  -4.389  1.00  0.00     0.186 S
HETATM   33  O1  UNL     1       8.513  38.081  -4.594  1.00  0.00    -0.222 OA
HETATM   34  O2  UNL     1      10.879  37.928  -5.110  1.00  0.00    -0.222 OA
BRANCH  32  35
HETATM   35  C4  UNL     1      10.300  38.735  -2.708  1.00  0.00     0.099 C
HETATM   36  N1  UNL     1      11.568  39.002  -2.471  1.00  0.00    -0.393 N
ATOM     37  H12 UNL     1      11.854  38.990  -1.492  1.00  0.00     0.156 HD
ATOM     38  H11 UNL     1      12.151  39.193  -3.285  1.00  0.00     0.156 HD
BRANCH  35  39
HETATM   39  C3  UNL     1       9.469  38.463  -1.549  1.00  0.00     0.069 C
BRANCH  39  40
HETATM   40  C2  UNL     1       9.632  37.214  -0.770  1.00  0.00     0.002 C
HETATM   41  C1  UNL     1       8.984  35.982  -1.274  1.00  0.00     0.005 C
ENDBRANCH  39  40
ENDBRANCH  35  39
ENDBRANCH  32  35
ENDBRANCH  31  32
ENDBRANCH  30  31
ENDBRANCH  29  30
ENDBRANCH  28  29
ENDBRANCH  27  28
ENDBRANCH   1  27
TORSDOF 14
ENDMDL