MODEL 1
REMARK VINA RESULT: -7.546420507      0.000      0.000
REMARK  14 active torsions:
REMARK  status: ('A' for Active; 'I' for Inactive)
REMARK       I    between atoms: C1_4  and  N3_6
REMARK    1  A    between atoms: N3_6  and  C2_8
REMARK    2  A    between atoms: C2_8  and  C3_9
REMARK    3  A    between atoms: C3_9  and  C4_10
REMARK    4  A    between atoms: C4_10  and  C5_11
REMARK    5  A    between atoms: C5_11  and  C6_12
REMARK    6  A    between atoms: C6_12  and  C7_13
REMARK       I    between atoms: C7_13  and  N4_15
REMARK    7  A    between atoms: N4_15  and  C8_16
REMARK    8  A    between atoms: N4_15  and  C15_27
REMARK    9  A    between atoms: C8_16  and  C9_17
REMARK   10  A    between atoms: C9_17  and  C10_18
REMARK   11  A    between atoms: C10_18  and  C11_19
REMARK   12  A    between atoms: C11_19  and  C12_20
REMARK   13  A    between atoms: C18_33  and  O2_34
REMARK   14  A    between atoms: C21_39  and  O4_40
ROOT
HETATM    1  C7  UNL     1      13.680  36.517 -11.850  1.00  0.00     0.220 C
HETATM    2  O1  UNL     1      13.840  35.282 -11.717  1.00  0.00    -0.273 OA
HETATM    3  N4  UNL     1      14.040  37.079 -13.119  1.00  0.00    -0.343 N
ENDROOT
BRANCH   3   4
HETATM    4  C8  UNL     1      13.899  38.495 -13.291  1.00  0.00     0.126 C
BRANCH   4   5
HETATM    5  C9  UNL     1      15.040  39.331 -12.816  1.00  0.00     0.020 C
BRANCH   5   6
HETATM    6  C10 UNL     1      14.616  40.786 -12.657  1.00  0.00     0.008 C
BRANCH   6   7
HETATM    7  C11 UNL     1      14.385  41.223 -11.265  1.00  0.00     0.058 C
BRANCH   7   8
HETATM    8  C12 UNL     1      13.147  42.004 -11.072  1.00  0.00     0.025 A
HETATM    9  C13 UNL     1      12.538  42.676 -12.132  1.00  0.00     0.113 A
HETATM   10  N5  UNL     1      11.439  43.269 -11.653  1.00  0.00    -0.360 N
HETATM   11  C14 UNL     1      11.368  42.980 -10.349  1.00  0.00     0.180 A
ATOM     12  H5  UNL     1      10.779  43.837 -12.183  1.00  0.00     0.166 HD
HETATM   13  N6  UNL     1      12.405  42.211  -9.994  1.00  0.00    -0.355 N
ATOM     14  H6  UNL     1      12.591  41.848  -9.060  1.00  0.00     0.166 HD
ENDBRANCH   7   8
ENDBRANCH   6   7
ENDBRANCH   5   6
ENDBRANCH   4   5
ENDBRANCH   3   4
BRANCH   3  15
HETATM   15  C15 UNL     1      14.449  36.155 -14.159  1.00  0.00     0.144 C
HETATM   16  C16 UNL     1      13.230  35.725 -14.930  1.00  0.00     0.261 C
HETATM   17  N7  UNL     1      13.696  34.894 -16.024  1.00  0.00    -0.064 N
HETATM   18  C17 UNL     1      14.400  35.655 -17.027  1.00  0.00     0.247 C
ATOM     19  H72 UNL     1      14.266  34.120 -15.682  1.00  0.00     0.277 HD
ATOM     20  H71 UNL     1      12.930  34.362 -16.435  1.00  0.00     0.277 HD
HETATM   21  C18 UNL     1      13.415  36.333 -17.920  1.00  0.00     0.175 C
HETATM   22  C20 UNL     1      15.191  36.798 -16.463  1.00  0.00     0.185 C
HETATM   23  C19 UNL     1      13.629  37.806 -17.706  1.00  0.00     0.202 C
HETATM   24  O3  UNL     1      14.500  37.953 -16.648  1.00  0.00    -0.378 OA
HETATM   25  C21 UNL     1      15.568  36.603 -15.018  1.00  0.00     0.173 C
BRANCH  21  26
HETATM   26  O2  UNL     1      13.548  35.975 -19.267  1.00  0.00    -0.391 OA
ATOM     27  H2  UNL     1      13.046  35.205 -19.503  1.00  0.00     0.210 HD
ENDBRANCH  21  26
BRANCH  25  28
HETATM   28  O4  UNL     1      16.655  35.676 -14.951  1.00  0.00    -0.391 OA
ATOM     29  H4  UNL     1      16.345  34.787 -15.075  1.00  0.00     0.210 HD
ENDBRANCH  25  28
ENDBRANCH   3  15
BRANCH   1  30
HETATM   30  C6  UNL     1      13.154  37.369 -10.785  1.00  0.00     0.103 C
BRANCH  30  31
HETATM   31  C5  UNL     1      13.953  37.339  -9.516  1.00  0.00     0.009 C
BRANCH  31  32
HETATM   32  C4  UNL     1      14.059  38.674  -8.877  1.00  0.00     0.002 C
BRANCH  32  33
HETATM   33  C3  UNL     1      12.781  39.066  -8.153  1.00  0.00     0.020 C
BRANCH  33  34
HETATM   34  C2  UNL     1      12.459  38.006  -7.113  1.00  0.00     0.122 C
BRANCH  34  35
HETATM   35  N3  UNL     1      12.295  38.542  -5.799  1.00  0.00    -0.365 N
HETATM   36  C1  UNL     1      11.074  38.630  -5.111  1.00  0.00     0.181 C
HETATM   37  N1  UNL     1      11.005  39.065  -3.900  1.00  0.00    -0.374 N
HETATM   38  N2  UNL     1       9.859  38.237  -5.735  1.00  0.00    -0.064 NA
ATOM     39  H12 UNL     1      10.118  39.129  -3.400  1.00  0.00     0.158 HD
ATOM     40  H11 UNL     1      11.877  39.346  -3.452  1.00  0.00     0.158 HD
ATOM     41  H3  UNL     1      13.129  38.887  -5.324  1.00  0.00     0.162 HD
ENDBRANCH  34  35
ENDBRANCH  33  34
ENDBRANCH  32  33
ENDBRANCH  31  32
ENDBRANCH  30  31
ENDBRANCH   1  30
TORSDOF 14
ENDMDL