MODEL 2
REMARK VINA RESULT: -5.924656386      1.637      3.655
REMARK  2 active torsions:
REMARK  status: ('A' for Active; 'I' for Inactive)
REMARK    1  A    between atoms: C1_2  and  C2_4
REMARK    2  A    between atoms: C2_4  and  N2_5
ROOT
HETATM    1  C2  UNL     1      24.601  18.311  47.582  1.00  0.00     0.367 C
HETATM    2  N3  UNL     1      24.849  16.988  47.984  1.00  0.00    -0.281 N
ATOM      3  H3  UNL     1      24.160  16.457  48.516  1.00  0.00     0.184 HD
HETATM    4  N4  UNL     1      26.056  16.440  47.633  1.00  0.00    -0.253 N
ATOM      5  H4  UNL     1      26.106  15.428  47.516  1.00  0.00     0.191 HD
HETATM    6  C3  UNL     1      27.226  17.185  47.424  1.00  0.00     0.341 C
HETATM    7  O2  UNL     1      28.384  16.666  47.379  1.00  0.00    -0.245 OA
HETATM    8  N5  UNL     1      27.112  18.593  47.252  1.00  0.00    -0.274 N
ATOM      9  H5  UNL     1      27.929  19.185  47.098  1.00  0.00     0.173 HD
HETATM   10  C4  UNL     1      25.796  19.132  47.309  1.00  0.00     0.293 C
HETATM   11  O3  UNL     1      25.624  20.371  47.118  1.00  0.00    -0.268 OA
ENDROOT
BRANCH   1  12
HETATM   12  C1  UNL     1      23.727  18.411  46.367  1.00  0.00     0.299 C
HETATM   13  N1  UNL     1      24.230  18.017  45.096  1.00  0.00    -0.058 NA
HETATM   14  O1  UNL     1      22.544  18.835  46.414  1.00  0.00    -0.271 OA
ENDBRANCH   1  12
BRANCH   1  15
HETATM   15  N2  UNL     1      23.858  18.966  48.665  1.00  0.00    -0.033 N
ATOM     16  H23 UNL     1      22.929  19.283  48.388  1.00  0.00     0.278 HD
ATOM     17  H22 UNL     1      23.555  18.325  49.398  1.00  0.00     0.278 HD
ATOM     18  H21 UNL     1      24.461  19.715  49.002  1.00  0.00     0.278 HD
ENDBRANCH   1  15
TORSDOF 2
ENDMDL