MODEL 4
REMARK VINA RESULT: -4.960170479      1.675      2.031
REMARK  3 active torsions:
REMARK  status: ('A' for Active; 'I' for Inactive)
REMARK       I    between atoms: C1_4  and  N2_5
REMARK       I    between atoms: C1_4  and  N4_10
REMARK    1  A    between atoms: N2_5  and  N3_7
REMARK    2  A    between atoms: N4_10  and  S1_12
REMARK    3  A    between atoms: S1_12  and  N5_13
ROOT
HETATM    1  N1  UNL     1      26.035  16.748  47.070  1.00  0.00    -0.233 N
ATOM      2  H11 UNL     1      26.837  16.678  46.444  1.00  0.00     0.174 HD
ATOM      3  H12 UNL     1      25.265  16.079  47.063  1.00  0.00     0.174 HD
HETATM    4  C1  UNL     1      25.987  17.726  47.911  1.00  0.00     0.700 C
HETATM    5  N2  UNL     1      24.872  17.823  48.780  1.00  0.00    -0.138 N
ATOM      6  H2  UNL     1      24.939  17.366  49.689  1.00  0.00     0.205 HD
HETATM    7  N4  UNL     1      27.058  18.659  47.920  1.00  0.00    -0.099 N
ATOM      8  H4  UNL     1      26.911  19.582  48.329  1.00  0.00     0.199 HD
ENDROOT
BRANCH   5   9
HETATM    9  N3  UNL     1      23.695  18.499  48.479  1.00  0.00    -0.331 N
ATOM     10  H32 UNL     1      23.679  19.024  47.605  1.00  0.00     0.177 HD
ATOM     11  H31 UNL     1      22.863  18.501  49.069  1.00  0.00     0.177 HD
ENDBRANCH   5   9
BRANCH   7  12
HETATM   12  S1  UNL     1      28.601  18.268  47.258  1.00  0.00     0.330 S
HETATM   13  O1  UNL     1      29.675  19.120  47.877  1.00  0.00    -0.182 OA
HETATM   14  O2  UNL     1      28.896  16.850  47.571  1.00  0.00    -0.182 OA
BRANCH  12  15
HETATM   15  N5  UNL     1      28.559  18.493  45.549  1.00  0.00    -0.311 N
ATOM     16  H52 UNL     1      27.905  18.026  44.920  1.00  0.00     0.170 HD
ATOM     17  H51 UNL     1      29.283  19.158  45.280  1.00  0.00     0.170 HD
ENDBRANCH  12  15
ENDBRANCH   7  12
TORSDOF 3
ENDMDL