MODEL 1
REMARK VINA RESULT: -6.249642322      0.000      0.000
REMARK  4 active torsions:
REMARK  status: ('A' for Active; 'I' for Inactive)
REMARK    1  A    between atoms: N1_1  and  C1_5
REMARK    2  A    between atoms: C1_5  and  N2_6
REMARK    3  A    between atoms: C1_5  and  C2_10
REMARK       I    between atoms: C2_10  and  N3_12
REMARK    4  A    between atoms: N3_12  and  C3_14
ROOT
HETATM    1  C2  UNL     1      26.399  18.382  47.310  1.00  0.00     0.294 C
HETATM    2  O1  UNL     1      26.403  17.524  46.409  1.00  0.00    -0.268 OA
HETATM    3  N3  UNL     1      27.555  19.140  47.546  1.00  0.00    -0.155 N
ATOM      4  H3  UNL     1      27.463  20.153  47.609  1.00  0.00     0.187 HD
ENDROOT
BRANCH   1   5
HETATM    5  C1  UNL     1      25.188  18.585  48.110  1.00  0.00     0.469 C
BRANCH   5   6
HETATM    6  N1  UNL     1      24.860  17.314  48.723  1.00  0.00    -0.042 N
ATOM      7  H13 UNL     1      24.769  17.380  49.736  1.00  0.00     0.277 HD
ATOM      8  H12 UNL     1      23.907  17.013  48.517  1.00  0.00     0.277 HD
ATOM      9  H11 UNL     1      25.558  16.628  48.436  1.00  0.00     0.277 HD
ENDBRANCH   5   6
BRANCH   5  10
HETATM   10  N2  UNL     1      25.451  19.560  49.177  1.00  0.00    -0.042 N
ATOM     11  H23 UNL     1      24.813  19.461  49.966  1.00  0.00     0.277 HD
ATOM     12  H22 UNL     1      26.320  19.370  49.676  1.00  0.00     0.277 HD
ATOM     13  H21 UNL     1      25.430  20.496  48.771  1.00  0.00     0.277 HD
ENDBRANCH   5  10
ENDBRANCH   1   5
BRANCH   3  14
HETATM   14  C3  UNL     1      28.739  18.620  47.689  1.00  0.00     0.703 A
HETATM   15  N4  UNL     1      29.862  19.312  47.976  1.00  0.00    -0.128 N
HETATM   16  N5  UNL     1      30.871  18.441  48.043  1.00  0.00    -0.237 N
ATOM     17  H4  UNL     1      29.926  20.321  48.115  1.00  0.00     0.205 HD
HETATM   18  C4  UNL     1      30.396  17.196  47.800  1.00  0.00     0.353 A
ATOM     19  H5  UNL     1      31.844  18.675  48.245  1.00  0.00     0.192 HD
HETATM   20  O2  UNL     1      31.067  16.127  47.783  1.00  0.00    -0.245 OA
HETATM   21  N6  UNL     1      29.073  17.324  47.583  1.00  0.00    -0.139 N
ATOM     22  H6  UNL     1      28.429  16.562  47.372  1.00  0.00     0.189 HD
ENDBRANCH   3  14
TORSDOF 4
ENDMDL