MODEL 4
REMARK VINA RESULT: -5.645347092      3.150      4.382
REMARK  4 active torsions:
REMARK  status: ('A' for Active; 'I' for Inactive)
REMARK    1  A    between atoms: N1_1  and  C1_4
REMARK    2  A    between atoms: N3_7  and  O1_8
REMARK    3  A    between atoms: C2_10  and  C3_11
REMARK    4  A    between atoms: N5_15  and  N6_16
ROOT
HETATM    1  C1  UNL     1      24.756  18.182  48.072  1.00  0.00     0.713 A
HETATM    2  N2  UNL     1      24.296  17.763  46.874  1.00  0.00    -0.104 N
ATOM      3  H2  UNL     1      24.162  16.763  46.726  1.00  0.00     0.208 HD
HETATM    4  N3  UNL     1      24.012  18.594  45.884  1.00  0.00    -0.142 N
HETATM    5  C2  UNL     1      24.176  19.930  46.035  1.00  0.00     0.164 A
HETATM    6  C4  UNL     1      24.645  20.365  47.253  1.00  0.00     0.173 A
HETATM    7  N5  UNL     1      24.926  19.505  48.244  1.00  0.00    -0.101 N
ENDROOT
BRANCH   1   8
HETATM    8  N1  UNL     1      25.002  17.309  48.963  1.00  0.00    -0.232 N
ATOM      9  H12 UNL     1      25.255  16.341  48.762  1.00  0.00     0.174 HD
ATOM     10  H11 UNL     1      24.943  17.587  49.942  1.00  0.00     0.174 HD
ENDBRANCH   1   8
BRANCH   7  11
HETATM   11  N6  UNL     1      25.400  19.983  49.465  1.00  0.00    -0.325 N
ATOM     12  H62 UNL     1      24.883  20.710  49.961  1.00  0.00     0.178 HD
ATOM     13  H61 UNL     1      26.261  19.600  49.855  1.00  0.00     0.178 HD
ENDBRANCH   7  11
BRANCH   4  14
HETATM   14  O1  UNL     1      23.538  18.137  44.655  1.00  0.00    -0.267 OA
ATOM     15  H1  UNL     1      23.227  17.247  44.538  1.00  0.00     0.247 HD
ENDBRANCH   4  14
BRANCH   5  16
HETATM   16  C3  UNL     1      23.876  20.875  44.974  1.00  0.00     0.287 C
HETATM   17  N4  UNL     1      24.949  21.605  44.411  1.00  0.00    -0.056 NA
HETATM   18  O2  UNL     1      22.679  20.994  44.616  1.00  0.00    -0.269 OA
ENDBRANCH   5  16
TORSDOF 4
ENDMDL