MODEL 4
REMARK VINA RESULT: -5.536670247      3.821      4.958
REMARK  3 active torsions:
REMARK  status: ('A' for Active; 'I' for Inactive)
REMARK    1  A    between atoms: N1_1  and  N2_4
REMARK       I    between atoms: N2_4  and  C1_6
REMARK    2  A    between atoms: C1_6  and  C2_8
REMARK       I    between atoms: C2_8  and  N3_10
REMARK    3  A    between atoms: N3_10  and  N4_12
REMARK       I    between atoms: N4_12  and  C3_14
ROOT
HETATM    1  C2  UNL     1      26.912  17.905  47.644  1.00  0.00     0.329 C
HETATM    2  O2  UNL     1      26.560  16.693  47.793  1.00  0.00    -0.261 OA
HETATM    3  N3  UNL     1      28.206  18.281  47.261  1.00  0.00    -0.258 N
ATOM      4  H3  UNL     1      28.411  19.275  47.161  1.00  0.00     0.190 HD
ENDROOT
BRANCH   1   5
HETATM    5  C1  UNL     1      25.889  18.928  47.895  1.00  0.00     0.329 C
HETATM    6  N2  UNL     1      25.754  19.548  49.172  1.00  0.00    -0.268 N
ATOM      7  H2  UNL     1      26.367  19.296  49.948  1.00  0.00     0.190 HD
HETATM    8  O1  UNL     1      25.118  19.250  46.936  1.00  0.00    -0.261 OA
BRANCH   6   9
HETATM    9  N1  UNL     1      24.757  20.511  49.325  1.00  0.00    -0.342 N
ATOM     10  H12 UNL     1      24.818  21.198  50.077  1.00  0.00     0.176 HD
ATOM     11  H11 UNL     1      23.978  20.499  48.666  1.00  0.00     0.176 HD
ENDBRANCH   6   9
ENDBRANCH   1   5
BRANCH   3  12
HETATM   12  N4  UNL     1      29.229  17.367  47.007  1.00  0.00    -0.251 N
HETATM   13  C3  UNL     1      30.153  16.972  48.012  1.00  0.00     0.347 C
HETATM   14  N5  UNL     1      31.185  16.047  47.745  1.00  0.00    -0.038 NA
HETATM   15  O3  UNL     1      30.012  17.490  49.174  1.00  0.00    -0.249 OA
ATOM     16  H4  UNL     1      29.317  16.970  46.071  1.00  0.00     0.191 HD
ENDBRANCH   3  12
TORSDOF 3
ENDMDL