MODEL 2
REMARK VINA RESULT: -6.145040778      3.157      4.696
REMARK  0 active torsions:
REMARK  status: ('A' for Active; 'I' for Inactive)
REMARK       I    between atoms: C1_2  and  N2_4
ROOT
HETATM    1  N1  UNL     1      26.469  16.770  47.569  1.00  0.00    -0.040 NA
HETATM    2  C1  UNL     1      27.759  16.534  47.063  1.00  0.00     0.334 C
HETATM    3  O1  UNL     1      28.800  16.660  47.796  1.00  0.00    -0.251 OA
HETATM    4  N2  UNL     1      27.967  16.151  45.733  1.00  0.00    -0.291 N
ATOM      5  H2  UNL     1      27.953  15.157  45.501  1.00  0.00     0.172 HD
HETATM    6  C2  UNL     1      28.173  17.000  44.794  1.00  0.00     0.193 A
HETATM    7  N3  UNL     1      28.365  16.531  43.523  1.00  0.00    -0.277 N
ATOM      8  H3  UNL     1      28.343  15.527  43.345  1.00  0.00     0.189 HD
HETATM    9  N4  UNL     1      28.579  17.364  42.532  1.00  0.00    -0.250 N
ATOM     10  H4  UNL     1      28.717  16.977  41.599  1.00  0.00     0.192 HD
HETATM   11  C3  UNL     1      28.626  18.700  42.680  1.00  0.00     0.341 A
HETATM   12  O2  UNL     1      28.834  19.485  41.707  1.00  0.00    -0.245 OA
HETATM   13  N5  UNL     1      28.443  19.215  43.909  1.00  0.00    -0.271 N
ATOM     14  H5  UNL     1      28.471  20.224  44.058  1.00  0.00     0.174 HD
HETATM   15  C4  UNL     1      28.219  18.365  44.954  1.00  0.00     0.295 A
HETATM   16  O3  UNL     1      28.050  18.848  46.090  1.00  0.00    -0.264 OA
ENDROOT
TORSDOF 0
ENDMDL