MODEL 2
REMARK VINA RESULT: -5.643120183      1.789      1.922
REMARK  3 active torsions:
REMARK  status: ('A' for Active; 'I' for Inactive)
REMARK    1  A    between atoms: N1_1  and  N2_4
REMARK       I    between atoms: N2_4  and  C1_6
REMARK    2  A    between atoms: C1_6  and  C2_8
REMARK       I    between atoms: C2_8  and  N3_10
REMARK    3  A    between atoms: N3_10  and  N4_12
ROOT
HETATM    1  C2  UNL     1      27.867  17.486  45.957  1.00  0.00     0.329 C
HETATM    2  O2  UNL     1      28.337  16.337  45.683  1.00  0.00    -0.261 OA
HETATM    3  N3  UNL     1      28.038  18.589  45.076  1.00  0.00    -0.260 N
ATOM      4  H3  UNL     1      27.659  19.509  45.302  1.00  0.00     0.190 HD
ENDROOT
BRANCH   1   5
HETATM    5  C1  UNL     1      27.155  17.611  47.207  1.00  0.00     0.329 C
HETATM    6  N2  UNL     1      26.920  18.847  47.856  1.00  0.00    -0.268 N
ATOM      7  H2  UNL     1      27.265  19.707  47.431  1.00  0.00     0.190 HD
HETATM    8  O1  UNL     1      26.721  16.560  47.744  1.00  0.00    -0.261 OA
BRANCH   6   9
HETATM    9  N1  UNL     1      26.223  18.913  49.066  1.00  0.00    -0.342 N
ATOM     10  H12 UNL     1      26.753  18.831  49.933  1.00  0.00     0.176 HD
ATOM     11  H11 UNL     1      25.211  19.039  49.089  1.00  0.00     0.176 HD
ENDBRANCH   6   9
ENDBRANCH   1   5
BRANCH   3  12
HETATM   12  N4  UNL     1      28.744  18.368  43.889  1.00  0.00    -0.273 N
HETATM   13  C3  UNL     1      28.217  18.458  42.720  1.00  0.00     0.215 C
HETATM   14  N5  UNL     1      29.048  18.209  41.600  1.00  0.00    -0.065 NA
HETATM   15  N6  UNL     1      26.863  18.789  42.461  1.00  0.00    -0.065 NA
ATOM     16  H4  UNL     1      29.732  18.120  43.954  1.00  0.00     0.189 HD
ENDBRANCH   3  12
TORSDOF 3
ENDMDL