MODEL 3
REMARK VINA RESULT: -5.571990640      1.873      4.260
REMARK  4 active torsions:
REMARK  status: ('A' for Active; 'I' for Inactive)
REMARK    1  A    between atoms: N1_1  and  C1_4
REMARK    2  A    between atoms: C4_11  and  N4_12
REMARK    3  A    between atoms: N4_12  and  N5_14
REMARK    4  A    between atoms: C5_17  and  C6_18
ROOT
HETATM    1  C1  UNL     1      24.752  18.571  48.091  1.00  0.00     0.677 A
HETATM    2  N2  UNL     1      25.203  17.503  47.405  1.00  0.00    -0.189 N
ATOM      3  H2  UNL     1      24.638  16.724  47.067  1.00  0.00     0.184 HD
HETATM    4  C2  UNL     1      26.528  17.645  47.245  1.00  0.00     0.094 A
HETATM    5  C3  UNL     1      26.912  18.831  47.847  1.00  0.00     0.106 A
HETATM    6  N3  UNL     1      25.820  19.380  48.356  1.00  0.00    -0.187 N
ATOM      7  H3  UNL     1      25.783  20.264  48.862  1.00  0.00     0.184 HD
HETATM    8  C4  UNL     1      28.196  18.635  47.502  1.00  0.00     0.092 A
HETATM    9  C5  UNL     1      27.773  17.391  46.874  1.00  0.00     0.062 A
ENDROOT
BRANCH   8  10
HETATM   10  N4  UNL     1      29.403  19.370  47.700  1.00  0.00    -0.304 N
ATOM     11  H4  UNL     1      29.348  20.389  47.672  1.00  0.00     0.186 HD
BRANCH  10  12
HETATM   12  N5  UNL     1      30.638  18.799  47.926  1.00  0.00    -0.345 N
ATOM     13  H52 UNL     1      30.878  17.987  47.357  1.00  0.00     0.176 HD
ATOM     14  H51 UNL     1      31.312  19.134  48.614  1.00  0.00     0.176 HD
ENDBRANCH  10  12
ENDBRANCH   8  10
BRANCH   9  15
HETATM   15  C6  UNL     1      28.435  16.321  46.149  1.00  0.00     0.274 C
HETATM   16  O1  UNL     1      28.265  16.218  44.895  1.00  0.00    -0.301 OA
ENDBRANCH   9  15
BRANCH   1  17
HETATM   17  N1  UNL     1      23.523  18.797  48.442  1.00  0.00    -0.234 N
ATOM     18  H12 UNL     1      22.795  19.190  47.845  1.00  0.00     0.174 HD
ATOM     19  H11 UNL     1      23.112  18.617  49.359  1.00  0.00     0.174 HD
ENDBRANCH   1  17
TORSDOF 4
ENDMDL