MODEL 3
REMARK VINA RESULT: -4.889652898      3.706      4.781
REMARK  3 active torsions:
REMARK  status: ('A' for Active; 'I' for Inactive)
REMARK    1  A    between atoms: C1_2  and  C2_4
REMARK       I    between atoms: C2_4  and  N2_6
REMARK    2  A    between atoms: N2_6  and  N3_8
REMARK    3  A    between atoms: N3_8  and  C3_10
ROOT
HETATM    1  C2  UNL     1      27.216  17.423  47.520  1.00  0.00     0.325 C
HETATM    2  O2  UNL     1      26.354  16.564  47.803  1.00  0.00    -0.261 OA
HETATM    3  N2  UNL     1      27.100  18.760  47.983  1.00  0.00    -0.260 N
ATOM      4  H2  UNL     1      27.814  19.445  47.739  1.00  0.00     0.190 HD
ENDROOT
BRANCH   3   5
HETATM    5  N3  UNL     1      26.003  19.141  48.775  1.00  0.00    -0.276 N
ATOM      6  H3  UNL     1      25.968  18.855  49.753  1.00  0.00     0.189 HD
BRANCH   5   7
HETATM    7  C3  UNL     1      24.950  19.914  48.239  1.00  0.00     0.199 C
HETATM    8  N4  UNL     1      24.936  21.324  48.457  1.00  0.00    -0.068 NA
HETATM    9  S1  UNL     1      23.782  19.157  47.387  1.00  0.00    -0.043 SA
ENDBRANCH   5   7
ENDBRANCH   3   5
BRANCH   1  10
HETATM   10  C1  UNL     1      28.346  17.053  46.709  1.00  0.00     0.324 C
HETATM   11  N1  UNL     1      29.503  16.483  47.297  1.00  0.00    -0.053 NA
HETATM   12  O1  UNL     1      28.314  17.234  45.473  1.00  0.00    -0.266 OA
ENDBRANCH   1  10
TORSDOF 3
ENDMDL