MODEL 3
REMARK VINA RESULT: -6.774399884      3.171      6.211
REMARK  11 active torsions:
REMARK  status: ('A' for Active; 'I' for Inactive)
REMARK    1  A    between atoms: N1_1  and  C1_4
REMARK    2  A    between atoms: C3_14  and  C4_15
REMARK    3  A    between atoms: C5_18  and  C6_19
REMARK    4  A    between atoms: C7_22  and  C8_23
REMARK    5  A    between atoms: C8_23  and  O3_24
REMARK    6  A    between atoms: C8_23  and  O4_26
REMARK    7  A    between atoms: N7_28  and  C9_29
REMARK    8  A    between atoms: C11_31  and  C12_32
REMARK    9  A    between atoms: C12_32  and  O5_33
REMARK   10  A    between atoms: C12_32  and  O6_35
REMARK   11  A    between atoms: C13_41  and  N10_42
ROOT
HETATM    1  C4  UNL     1      33.006  30.563  25.662  1.00  0.00     0.162 A
HETATM    2  N6  UNL     1      33.456  29.423  25.151  1.00  0.00    -0.332 N
ATOM      3  H6  UNL     1      32.977  28.526  25.235  1.00  0.00     0.168 HD
HETATM    4  C5  UNL     1      34.647  29.603  24.495  1.00  0.00     0.139 A
HETATM    5  C7  UNL     1      34.932  30.936  24.623  1.00  0.00     0.107 A
HETATM    6  N7  UNL     1      33.913  31.500  25.339  1.00  0.00    -0.287 N
ENDROOT
BRANCH   1   7
HETATM    7  C3  UNL     1      31.769  30.796  26.432  1.00  0.00     0.206 A
HETATM    8  N5  UNL     1      31.119  31.949  26.602  1.00  0.00    -0.266 N
HETATM    9  N4  UNL     1      30.051  31.781  27.350  1.00  0.00    -0.127 N
ATOM     10  H5  UNL     1      31.411  32.842  26.204  1.00  0.00     0.189 HD
HETATM   11  C2  UNL     1      29.992  30.484  27.685  1.00  0.00     0.735 A
ATOM     12  H4  UNL     1      29.387  32.505  27.626  1.00  0.00     0.206 HD
HETATM   13  N3  UNL     1      29.114  29.797  28.425  1.00  0.00    -0.115 N
HETATM   14  N11 UNL     1      31.064  29.875  27.111  1.00  0.00    -0.048 N
HETATM   15  N2  UNL     1      29.252  28.506  28.628  1.00  0.00    -0.117 N
ATOM     16  H3  UNL     1      28.320  30.286  28.840  1.00  0.00     0.206 HD
HETATM   17  C1  UNL     1      30.315  27.884  28.063  1.00  0.00     0.706 A
ATOM     18  H2  UNL     1      28.580  27.988  29.193  1.00  0.00     0.206 HD
HETATM   19  N12 UNL     1      31.190  28.588  27.319  1.00  0.00    -0.108 N
ATOM     20  H12 UNL     1      31.982  28.099  26.903  1.00  0.00     0.207 HD
BRANCH  17  21
HETATM   21  N1  UNL     1      30.446  26.613  28.265  1.00  0.00    -0.232 N
ATOM     22  H12 UNL     1      29.820  26.092  28.878  1.00  0.00     0.174 HD
ATOM     23  H11 UNL     1      31.207  26.132  27.786  1.00  0.00     0.174 HD
ENDBRANCH  17  21
ENDBRANCH   1   7
BRANCH   6  24
HETATM   24  C9  UNL     1      33.824  32.868  25.691  1.00  0.00     0.088 A
HETATM   25  C10 UNL     1      34.093  33.274  26.999  1.00  0.00     0.065 A
HETATM   26  C11 UNL     1      33.994  34.613  27.277  1.00  0.00     0.082 A
HETATM   27  N8  UNL     1      33.651  35.504  26.330  1.00  0.00    -0.298 N
HETATM   28  N9  UNL     1      33.392  35.152  25.091  1.00  0.00    -0.284 N
ATOM     29  H8  UNL     1      33.590  36.490  26.583  1.00  0.00     0.187 HD
HETATM   30  C13 UNL     1      33.476  33.833  24.760  1.00  0.00     0.141 A
ATOM     31  H9  UNL     1      33.134  35.850  24.393  1.00  0.00     0.188 HD
BRANCH  26  32
HETATM   32  C12 UNL     1      34.267  35.133  28.662  1.00  0.00     0.306 C
BRANCH  32  33
HETATM   33  O5  UNL     1      34.673  36.450  28.533  1.00  0.00    -0.366 OA
ATOM     34  H5  UNL     1      34.248  36.945  29.223  1.00  0.00     0.213 HD
ENDBRANCH  32  33
BRANCH  32  35
HETATM   35  O6  UNL     1      33.166  34.961  29.469  1.00  0.00    -0.366 OA
ATOM     36  H6  UNL     1      33.335  35.297  30.341  1.00  0.00     0.213 HD
ENDBRANCH  32  35
ENDBRANCH  26  32
BRANCH  30  37
HETATM   37  N10 UNL     1      33.231  33.460  23.559  1.00  0.00    -0.383 N
ATOM     38 2H10 UNL     1      32.660  32.632  23.390  1.00  0.00     0.157 HD
ATOM     39 1H10 UNL     1      33.618  34.010  22.793  1.00  0.00     0.157 HD
ENDBRANCH  30  37
ENDBRANCH   6  24
BRANCH   4  40
HETATM   40  C6  UNL     1      35.375  28.527  23.818  1.00  0.00     0.229 C
HETATM   41  O1  UNL     1      35.670  28.729  22.583  1.00  0.00    -0.643 OA
HETATM   42  O2  UNL     1      35.750  27.358  24.408  1.00  0.00    -0.643 OA
ENDBRANCH   4  40
BRANCH   5  43
HETATM   43  C8  UNL     1      36.138  31.627  24.109  1.00  0.00     0.308 C
BRANCH  43  44
HETATM   44  O3  UNL     1      36.576  32.673  24.885  1.00  0.00    -0.366 OA
ATOM     45  H3  UNL     1      35.970  33.401  24.950  1.00  0.00     0.213 HD
ENDBRANCH  43  44
BRANCH  43  46
HETATM   46  O4  UNL     1      36.042  31.958  22.763  1.00  0.00    -0.366 OA
ATOM     47  H4  UNL     1      35.397  31.439  22.298  1.00  0.00     0.213 HD
ENDBRANCH  43  46
ENDBRANCH   5  43
TORSDOF 11
ENDMDL