MODEL 5
REMARK VINA RESULT: -11.829384685      1.014      1.070
REMARK  8 active torsions:
REMARK  status: ('A' for Active; 'I' for Inactive)
REMARK    1  A    between atoms: C3_5  and  O2_6
REMARK    2  A    between atoms: C4_8  and  C5_9
REMARK    3  A    between atoms: C5_9  and  O3_10
REMARK    4  A    between atoms: C5_9  and  C6_12
REMARK       I    between atoms: C6_12  and  N2_14
REMARK       I    between atoms: N2_14  and  C7_16
REMARK       I    between atoms: C7_16  and  N3_18
REMARK    5  A    between atoms: N3_18  and  C8_20
REMARK    6  A    between atoms: C10_22  and  N4_23
REMARK    7  A    between atoms: N4_23  and  C11_25
REMARK    8  A    between atoms: C12_31  and  N7_32
ROOT
HETATM    1  C6  UNL     1      32.142  30.679  25.644  1.00  0.00     0.259 C
HETATM    2  O4  UNL     1      32.703  29.820  26.355  1.00  0.00    -0.270 OA
HETATM    3  N2  UNL     1      30.762  30.868  25.641  1.00  0.00    -0.277 N
ATOM      4  H2  UNL     1      30.392  31.594  25.027  1.00  0.00     0.173 HD
HETATM    5  C7  UNL     1      29.843  30.152  26.406  1.00  0.00     0.324 C
HETATM    6  O5  UNL     1      28.604  30.486  26.255  1.00  0.00    -0.247 OA
HETATM    7  N3  UNL     1      30.103  29.135  27.299  1.00  0.00    -0.320 N
ATOM      8  H3  UNL     1      31.064  28.832  27.457  1.00  0.00     0.166 HD
ENDROOT
BRANCH   7   9
HETATM    9  C8  UNL     1      29.011  28.488  28.021  1.00  0.00     0.204 C
HETATM   10  C9  UNL     1      28.745  27.116  27.441  1.00  0.00     0.096 C
HETATM   11  C10 UNL     1      28.363  26.375  28.719  1.00  0.00     0.202 C
HETATM   12  N8  UNL     1      29.002  27.118  29.731  1.00  0.00    -0.316 N
HETATM   13  N9  UNL     1      29.340  28.219  29.366  1.00  0.00    -0.315 N
ATOM     14  H8  UNL     1      29.163  26.764  30.674  1.00  0.00     0.182 HD
ATOM     15  H9  UNL     1      29.816  28.888  29.970  1.00  0.00     0.182 HD
BRANCH  11  16
HETATM   16  N4  UNL     1      28.885  25.046  28.703  1.00  0.00    -0.349 N
ATOM     17  H4  UNL     1      29.202  24.649  27.818  1.00  0.00     0.163 HD
BRANCH  16  18
HETATM   18  C11 UNL     1      28.977  24.266  29.876  1.00  0.00     0.171 A
HETATM   19  N5  UNL     1      30.081  23.774  30.486  1.00  0.00    -0.222 N
HETATM   20  O6  UNL     1      29.735  23.107  31.542  1.00  0.00    -0.153 OA
ATOM     21  H5  UNL     1      31.040  23.907  30.163  1.00  0.00     0.198 HD
HETATM   22  N6  UNL     1      28.452  23.120  31.685  1.00  0.00    -0.222 N
HETATM   23  C12 UNL     1      27.926  23.830  30.673  1.00  0.00     0.167 A
ATOM     24  H6  UNL     1      27.929  22.669  32.436  1.00  0.00     0.198 HD
BRANCH  23  25
HETATM   25  N7  UNL     1      26.666  24.044  30.506  1.00  0.00    -0.381 N
ATOM     26  H72 UNL     1      26.274  24.881  30.072  1.00  0.00     0.157 HD
ATOM     27  H71 UNL     1      25.889  23.439  30.770  1.00  0.00     0.157 HD
ENDBRANCH  23  25
ENDBRANCH  16  18
ENDBRANCH  11  16
ENDBRANCH   7   9
BRANCH   1  28
HETATM   28  C5  UNL     1      33.062  31.514  24.771  1.00  0.00     0.253 C
BRANCH  28  29
HETATM   29  C4  UNL     1      33.191  32.829  25.437  1.00  0.00     0.101 A
HETATM   30  C3  UNL     1      34.310  33.273  26.100  1.00  0.00     0.185 A
HETATM   31  N1  UNL     1      34.372  34.499  26.694  1.00  0.00    -0.173 N
HETATM   32  O1  UNL     1      35.024  35.393  27.375  1.00  0.00    -0.224 OA
HETATM   33  C14 UNL     1      33.324  35.335  26.654  1.00  0.00     0.174 A
HETATM   34  C2  UNL     1      34.046  36.263  27.379  1.00  0.00     0.136 A
HETATM   35  C1  UNL     1      33.794  37.476  27.840  1.00  0.00     0.057 C
HETATM   36  N10 UNL     1      32.213  34.914  26.006  1.00  0.00    -0.305 N
HETATM   37  C13 UNL     1      32.108  33.717  25.408  1.00  0.00     0.260 A
ATOM     38  H10 UNL     1      31.410  35.542  25.970  1.00  0.00     0.171 HD
HETATM   39  O7  UNL     1      31.061  33.351  24.810  1.00  0.00    -0.267 OA
BRANCH  30  40
HETATM   40  O2  UNL     1      35.412  32.455  26.169  1.00  0.00    -0.344 OA
ATOM     41  H2  UNL     1      35.327  31.616  26.607  1.00  0.00     0.219 HD
ENDBRANCH  30  40
ENDBRANCH  28  29
BRANCH  28  42
HETATM   42  O3  UNL     1      32.497  31.645  23.521  1.00  0.00    -0.381 OA
ATOM     43  H3  UNL     1      32.635  30.863  23.000  1.00  0.00     0.211 HD
ENDBRANCH  28  42
ENDBRANCH   1  28
TORSDOF 8
ENDMDL