MODEL 2
REMARK VINA RESULT: -8.701600757      5.557     10.387
REMARK  8 active torsions:
REMARK  status: ('A' for Active; 'I' for Inactive)
REMARK    1  A    between atoms: C2_2  and  C3_3
REMARK       I    between atoms: C3_3  and  N1_5
REMARK    2  A    between atoms: N1_5  and  C4_7
REMARK    3  A    between atoms: C4_7  and  C5_8
REMARK    4  A    between atoms: N2_9  and  C6_11
REMARK    5  A    between atoms: C8_22  and  C9_23
REMARK    6  A    between atoms: C10_27  and  C11_28
REMARK    7  A    between atoms: C13_40  and  C14_41
REMARK    8  A    between atoms: C14_41  and  O4_42
ROOT
HETATM    1  C6  UNL     1      33.776  37.111  26.706  1.00  0.00     0.695 C
HETATM    2  N3  UNL     1      33.199  36.211  25.994  1.00  0.00    -0.151 N
ATOM      3  H3  UNL     1      32.882  36.456  25.056  1.00  0.00     0.184 HD
HETATM    4  C7  UNL     1      32.978  34.840  26.479  1.00  0.00     0.418 C
HETATM    5  N4  UNL     1      33.045  34.824  27.946  1.00  0.00    -0.037 NA
HETATM    6  N5  UNL     1      34.309  35.367  28.287  1.00  0.00    -0.010 NA
HETATM    7  N6  UNL     1      34.210  36.748  28.011  1.00  0.00    -0.119 N
ATOM      8  H6  UNL     1      34.438  37.451  28.713  1.00  0.00     0.202 HD
HETATM    9  N7  UNL     1      33.975  33.940  25.992  1.00  0.00     0.008 N
ATOM     10  H71 UNL     1      34.413  33.385  26.726  1.00  0.00     0.286 HD
ATOM     11  H72 UNL     1      34.821  34.409  25.667  1.00  0.00     0.286 HD
HETATM   12  C8  UNL     1      33.343  33.149  24.984  1.00  0.00     0.293 C
HETATM   13  C13 UNL     1      31.887  33.314  25.229  1.00  0.00     0.190 C
HETATM   14  O5  UNL     1      31.762  34.435  25.995  1.00  0.00    -0.313 OA
ENDROOT
BRANCH   1  15
HETATM   15  N2  UNL     1      34.003  38.434  26.269  1.00  0.00    -0.203 N
HETATM   16  C5  UNL     1      34.132  39.444  27.025  1.00  0.00     0.098 C
ATOM     17  H2  UNL     1      34.069  38.590  25.264  1.00  0.00     0.183 HD
BRANCH  16  18
HETATM   18  C4  UNL     1      34.366  40.785  26.468  1.00  0.00     0.167 C
BRANCH  18  19
HETATM   19  N1  UNL     1      34.015  41.848  27.381  1.00  0.00    -0.356 N
HETATM   20  C3  UNL     1      33.649  43.107  26.863  1.00  0.00     0.217 C
HETATM   21  O1  UNL     1      33.617  43.337  25.631  1.00  0.00    -0.274 OA
ATOM     22  H1  UNL     1      34.032  41.689  28.389  1.00  0.00     0.162 HD
BRANCH  20  23
HETATM   23  C2  UNL     1      33.289  44.196  27.795  1.00  0.00     0.098 C
HETATM   24  C1  UNL     1      31.986  43.910  28.509  1.00  0.00     0.014 C
ENDBRANCH  20  23
ENDBRANCH  18  19
ENDBRANCH  16  18
ENDBRANCH   1  15
BRANCH  12  25
HETATM   25  C9  UNL     1      33.686  31.697  25.146  1.00  0.00     0.138 A
HETATM   26  N8  UNL     1      33.195  30.869  26.114  1.00  0.00    -0.244 N
HETATM   27  O2  UNL     1      33.708  29.678  25.952  1.00  0.00    -0.214 OA
ATOM     28  H8  UNL     1      32.535  31.136  26.845  1.00  0.00     0.196 HD
HETATM   29  C10 UNL     1      34.517  29.678  24.921  1.00  0.00     0.225 A
HETATM   30  N12 UNL     1      34.508  30.921  24.420  1.00  0.00    -0.318 N
ATOM     31  H12 UNL     1      35.044  31.232  23.609  1.00  0.00     0.169 HD
BRANCH  29  32
HETATM   32  C11 UNL     1      35.266  28.510  24.449  1.00  0.00     0.220 A
HETATM   33  N9  UNL     1      35.308  28.033  23.198  1.00  0.00    -0.273 N
HETATM   34  N10 UNL     1      36.091  26.968  23.166  1.00  0.00    -0.263 N
ATOM     35  H9  UNL     1      34.814  28.427  22.398  1.00  0.00     0.189 HD
HETATM   36  C12 UNL     1      36.560  26.766  24.432  1.00  0.00     0.238 A
ATOM     37  H10 UNL     1      36.307  26.401  22.345  1.00  0.00     0.190 HD
HETATM   38  N11 UNL     1      37.359  25.818  24.809  1.00  0.00    -0.364 N
HETATM   39  O3  UNL     1      36.034  27.718  25.160  1.00  0.00    -0.255 OA
ATOM     40 2H11 UNL     1      37.769  25.076  24.242  1.00  0.00     0.159 HD
ATOM     41 1H11 UNL     1      37.709  25.666  25.755  1.00  0.00     0.159 HD
ENDBRANCH  29  32
ENDBRANCH  12  25
BRANCH  13  42
HETATM   42  C14 UNL     1      31.160  33.418  23.904  1.00  0.00     0.198 C
BRANCH  42  43
HETATM   43  O4  UNL     1      30.528  32.226  23.566  1.00  0.00    -0.398 OA
ATOM     44  H4  UNL     1      29.587  32.333  23.495  1.00  0.00     0.209 HD
ENDBRANCH  42  43
ENDBRANCH  13  42
TORSDOF 8
ENDMDL