MODEL 3
REMARK VINA RESULT: -6.671404532      0.585      1.434
REMARK  9 active torsions:
REMARK  status: ('A' for Active; 'I' for Inactive)
REMARK    1  A    between atoms: S1_3  and  C2_4
REMARK    2  A    between atoms: C3_5  and  C4_6
REMARK    3  A    between atoms: C4_6  and  O1_7
REMARK    4  A    between atoms: O1_7  and  N2_8
REMARK       I    between atoms: N2_8  and  C5_10
REMARK       I    between atoms: C5_10  and  N3_11
REMARK    5  A    between atoms: N5_16  and  N6_18
REMARK    6  A    between atoms: C6_21  and  N7_22
REMARK    7  A    between atoms: C7_25  and  N8_26
REMARK    8  A    between atoms: N15_38  and  N16_39
REMARK    9  A    between atoms: C11_42  and  N17_43
ROOT
HETATM    1  N1  UNL     1      29.342  30.615  26.781  1.00  0.00    -0.184 NA
HETATM    2  C1  UNL     1      30.345  31.168  26.938  1.00  0.00     0.140 C
HETATM    3  S1  UNL     1      31.893  32.039  27.170  1.00  0.00     0.009 SA
ENDROOT
BRANCH   3   4
HETATM    4  C2  UNL     1      32.884  31.980  25.671  1.00  0.00     0.119 A
HETATM    5  C3  UNL     1      32.895  33.107  24.822  1.00  0.00     0.032 A
HETATM    6  C6  UNL     1      33.660  33.019  23.709  1.00  0.00     0.070 A
HETATM    7  C7  UNL     1      34.426  31.844  23.396  1.00  0.00     0.133 A
HETATM    8  C8  UNL     1      34.351  30.801  24.279  1.00  0.00     0.118 A
HETATM    9  C9  UNL     1      35.041  29.656  24.041  1.00  0.00     0.120 A
HETATM   10  N18 UNL     1      33.583  30.874  25.408  1.00  0.00    -0.134 N
HETATM   11  N13 UNL     1      35.888  29.413  22.918  1.00  0.00    -0.096 NA
HETATM   12  C10 UNL     1      34.949  28.587  24.950  1.00  0.00     0.182 A
HETATM   13  N14 UNL     1      35.696  27.388  24.663  1.00  0.00    -0.078 NA
HETATM   14  N15 UNL     1      34.192  28.703  26.026  1.00  0.00    -0.077 N
HETATM   15  C11 UNL     1      33.509  29.828  26.268  1.00  0.00     0.706 A
BRANCH   5  16
HETATM   16  C4  UNL     1      32.077  34.257  25.242  1.00  0.00     0.246 C
BRANCH  16  17
HETATM   17  O1  UNL     1      32.473  34.872  26.375  1.00  0.00    -0.262 OA
BRANCH  17  18
HETATM   18  N2  UNL     1      33.642  35.503  26.316  1.00  0.00    -0.093 N
HETATM   19  C5  UNL     1      33.774  36.799  26.848  1.00  0.00     0.730 C
HETATM   20  N3  UNL     1      33.480  37.921  25.993  1.00  0.00    -0.136 N
HETATM   21  N5  UNL     1      34.147  36.952  28.060  1.00  0.00    -0.136 N
HETATM   22  N4  UNL     1      34.031  39.038  26.183  1.00  0.00    -0.331 N
ATOM     23  H3  UNL     1      32.817  37.810  25.226  1.00  0.00     0.205 HD
ATOM     24  H42 UNL     1      34.691  39.133  26.955  1.00  0.00     0.177 HD
ATOM     25  H41 UNL     1      33.822  39.833  25.578  1.00  0.00     0.177 HD
ATOM     26  H5  UNL     1      34.244  37.891  28.447  1.00  0.00     0.205 HD
ATOM     27  H2  UNL     1      34.445  35.045  25.885  1.00  0.00     0.213 HD
BRANCH  21  28
HETATM   28  N6  UNL     1      34.423  35.843  28.856  1.00  0.00    -0.331 N
ATOM     29  H62 UNL     1      33.650  35.367  29.322  1.00  0.00     0.177 HD
ATOM     30  H61 UNL     1      35.382  35.515  28.969  1.00  0.00     0.177 HD
ENDBRANCH  21  28
ENDBRANCH  17  18
ENDBRANCH  16  17
ENDBRANCH   5  16
BRANCH   6  31
HETATM   31  N7  UNL     1      33.800  33.924  22.828  1.00  0.00    -0.397 N
ATOM     32  H72 UNL     1      34.591  34.534  23.035  1.00  0.00     0.156 HD
ATOM     33  H71 UNL     1      33.211  34.053  22.005  1.00  0.00     0.156 HD
ENDBRANCH   6  31
BRANCH   7  34
HETATM   34  N8  UNL     1      35.183  31.887  22.209  1.00  0.00    -0.167 N
HETATM   35  N9  UNL     1      36.448  32.214  22.098  1.00  0.00    -0.205 N
HETATM   36  N10 UNL     1      36.844  32.060  20.826  1.00  0.00     0.010 NA
ATOM     37  H9  UNL     1      37.040  32.536  22.864  1.00  0.00     0.207 HD
HETATM   38  N11 UNL     1      35.788  31.631  20.160  1.00  0.00     0.010 NA
HETATM   39  N12 UNL     1      34.769  31.526  21.017  1.00  0.00    -0.205 N
ATOM     40  H12 UNL     1      33.826  31.218  20.784  1.00  0.00     0.207 HD
ENDBRANCH   7  34
BRANCH  14  41
HETATM   41  N16 UNL     1      34.093  27.647  26.934  1.00  0.00    -0.323 N
ATOM     42 2H16 UNL     1      34.744  27.610  27.719  1.00  0.00     0.178 HD
ATOM     43 1H16 UNL     1      33.381  26.927  26.810  1.00  0.00     0.178 HD
ENDBRANCH  14  41
BRANCH  15  44
HETATM   44  N17 UNL     1      32.746  29.909  27.337  1.00  0.00    -0.232 N
ATOM     45 2H17 UNL     1      31.742  30.052  27.236  1.00  0.00     0.174 HD
ATOM     46 1H17 UNL     1      33.163  29.812  28.263  1.00  0.00     0.174 HD
ENDBRANCH  15  44
ENDBRANCH   3   4
TORSDOF 9
ENDMDL