MODEL 5
REMARK VINA RESULT: -9.779646239      3.121      6.347
REMARK  9 active torsions:
REMARK  status: ('A' for Active; 'I' for Inactive)
REMARK    1  A    between atoms: N1_2  and  N2_3
REMARK    2  A    between atoms: N2_3  and  C2_5
REMARK    3  A    between atoms: C2_5  and  C3_9
REMARK    4  A    between atoms: C4_15  and  C5_16
REMARK    5  A    between atoms: N6_18  and  C7_19
REMARK    6  A    between atoms: C7_19  and  C8_20
REMARK    7  A    between atoms: C10_26  and  C11_27
REMARK    8  A    between atoms: N9_28  and  N10_30
REMARK    9  A    between atoms: N10_30  and  C12_32
ROOT
HETATM    1  C5  UNL     1      34.473  32.765  23.608  1.00  0.00     0.097 A
HETATM    2  C6  UNL     1      33.321  33.396  23.902  1.00  0.00     0.145 A
HETATM    3  N6  UNL     1      33.422  34.196  24.985  1.00  0.00    -0.281 N
HETATM    4  N14 UNL     1      34.666  34.058  25.371  1.00  0.00    -0.240 N
ATOM      5  H14 UNL     1      35.068  34.540  26.176  1.00  0.00     0.208 HD
HETATM    6  N15 UNL     1      35.324  33.246  24.621  1.00  0.00    -0.282 N
ATOM      7  H15 UNL     1      36.304  32.992  24.741  1.00  0.00     0.188 HD
ENDROOT
BRANCH   3   8
HETATM    8  C7  UNL     1      32.378  34.926  25.674  1.00  0.00     0.208 C
BRANCH   8   9
HETATM    9  C8  UNL     1      33.052  35.522  26.941  1.00  0.00     0.049 A
HETATM   10  N7  UNL     1      33.616  36.708  26.917  1.00  0.00    -0.326 N
HETATM   11  S1  UNL     1      34.045  37.027  28.512  1.00  0.00     0.002 SA
ATOM     12  H7  UNL     1      33.762  37.307  26.105  1.00  0.00     0.174 HD
HETATM   13  C9  UNL     1      33.484  35.589  29.218  1.00  0.00     0.117 A
HETATM   14  N8  UNL     1      33.512  35.140  30.596  1.00  0.00    -0.092 NA
HETATM   15  C10 UNL     1      32.970  34.893  28.153  1.00  0.00     0.038 A
BRANCH  15  16
HETATM   16  C11 UNL     1      32.495  33.475  28.300  1.00  0.00     0.123 C
HETATM   17  N9  UNL     1      33.106  32.548  27.682  1.00  0.00    -0.308 N
ATOM     18  H9  UNL     1      33.907  32.826  27.115  1.00  0.00     0.186 HD
BRANCH  17  19
HETATM   19  N10 UNL     1      32.792  31.188  27.703  1.00  0.00    -0.271 N
ATOM     20  H10 UNL     1      33.440  30.499  28.087  1.00  0.00     0.190 HD
BRANCH  19  21
HETATM   21  C12 UNL     1      31.528  30.801  27.165  1.00  0.00     0.207 C
HETATM   22  N11 UNL     1      30.765  29.917  27.730  1.00  0.00    -0.345 N
HETATM   23  C13 UNL     1      29.581  29.767  26.939  1.00  0.00     0.259 C
ATOM     24  H11 UNL     1      30.974  29.414  28.592  1.00  0.00     0.164 HD
HETATM   25  N12 UNL     1      29.516  30.970  26.163  1.00  0.00    -0.119 NA
HETATM   26  N13 UNL     1      30.897  31.276  26.001  1.00  0.00    -0.273 N
ATOM     27  H13 UNL     1      31.336  31.742  25.208  1.00  0.00     0.185 HD
ENDBRANCH  19  21
ENDBRANCH  17  19
ENDBRANCH  15  16
ENDBRANCH   8   9
ENDBRANCH   3   8
BRANCH   1  28
HETATM   28  C4  UNL     1      34.941  31.788  22.675  1.00  0.00     0.119 A
HETATM   29  C3  UNL     1      35.287  30.512  22.801  1.00  0.00     0.175 A
HETATM   30  O1  UNL     1      35.692  30.106  21.557  1.00  0.00    -0.216 OA
HETATM   31  N4  UNL     1      35.598  31.062  20.739  1.00  0.00    -0.201 N
HETATM   32  N5  UNL     1      35.154  32.114  21.325  1.00  0.00    -0.276 N
ATOM     33  H4  UNL     1      35.841  31.007  19.750  1.00  0.00     0.216 HD
ATOM     34  H5  UNL     1      34.985  33.021  20.889  1.00  0.00     0.189 HD
BRANCH  29  35
HETATM   35  C2  UNL     1      35.293  29.584  23.922  1.00  0.00     0.149 C
HETATM   36  N3  UNL     1      35.296  29.763  25.098  1.00  0.00    -0.382 N
ATOM     37  H32 UNL     1      35.300  29.113  25.884  1.00  0.00     0.157 HD
ATOM     38  H31 UNL     1      35.274  30.738  25.398  1.00  0.00     0.157 HD
BRANCH  35  39
HETATM   39  N2  UNL     1      35.325  28.151  23.481  1.00  0.00    -0.288 N
ATOM     40  H2  UNL     1      35.133  27.864  22.522  1.00  0.00     0.184 HD
BRANCH  39  41
HETATM   41  N1  UNL     1      35.637  27.256  24.478  1.00  0.00    -0.144 NA
HETATM   42  C1  UNL     1      36.859  26.510  24.222  1.00  0.00     0.159 C
ENDBRANCH  39  41
ENDBRANCH  35  39
ENDBRANCH  29  35
ENDBRANCH   1  28
TORSDOF 9
ENDMDL