MODEL 4
REMARK VINA RESULT: -9.938637154      1.304      1.540
REMARK  9 active torsions:
REMARK  status: ('A' for Active; 'I' for Inactive)
REMARK    1  A    between atoms: N1_1  and  C1_4
REMARK    2  A    between atoms: N3_8  and  O1_10
REMARK    3  A    between atoms: C3_14  and  N5_15
REMARK    4  A    between atoms: C6_20  and  C7_21
REMARK    5  A    between atoms: C8_25  and  C9_26
REMARK    6  A    between atoms: N13_38  and  C10_39
REMARK    7  A    between atoms: C10_39  and  C11_40
REMARK    8  A    between atoms: C11_40  and  O3_41
REMARK    9  A    between atoms: C11_40  and  C12_43
ROOT
HETATM    1  C1  UNL     1      33.010  31.213  24.503  1.00  0.00     0.130 C
HETATM    2  N2  UNL     1      33.872  31.184  23.430  1.00  0.00    -0.174 N
ATOM      3  H2  UNL     1      33.932  30.300  22.926  1.00  0.00     0.186 HD
HETATM    4  C2  UNL     1      34.653  32.194  22.961  1.00  0.00     0.705 C
HETATM    5  N3  UNL     1      35.379  31.909  21.911  1.00  0.00    -0.098 N
ATOM      6  H3  UNL     1      35.988  32.619  21.504  1.00  0.00     0.213 HD
HETATM    7  N4  UNL     1      34.784  33.470  23.435  1.00  0.00    -0.173 N
ATOM      8  H4  UNL     1      35.332  34.103  22.851  1.00  0.00     0.186 HD
HETATM    9  C3  UNL     1      34.290  34.002  24.563  1.00  0.00     0.144 C
HETATM   10  C4  UNL     1      33.823  33.295  25.643  1.00  0.00     0.111 A
HETATM   11  C5  UNL     1      33.268  32.009  25.614  1.00  0.00     0.072 A
HETATM   12  C6  UNL     1      32.960  31.692  26.900  1.00  0.00     0.110 A
HETATM   13  N12 UNL     1      33.331  32.781  27.629  1.00  0.00    -0.293 N
ATOM     14  H12 UNL     1      33.218  32.841  28.640  1.00  0.00     0.187 HD
HETATM   15  N13 UNL     1      33.847  33.744  26.905  1.00  0.00    -0.284 N
ENDROOT
BRANCH  12  16
HETATM   16  C7  UNL     1      32.369  30.477  27.445  1.00  0.00     0.157 A
HETATM   17  N6  UNL     1      32.774  29.381  28.017  1.00  0.00    -0.241 N
HETATM   18  O2  UNL     1      31.787  28.601  28.276  1.00  0.00    -0.214 OA
ATOM     19  H6  UNL     1      33.749  29.170  28.231  1.00  0.00     0.196 HD
HETATM   20  C8  UNL     1      30.660  29.147  27.881  1.00  0.00     0.218 A
HETATM   21  N11 UNL     1      31.002  30.313  27.363  1.00  0.00    -0.315 N
ATOM     22  H11 UNL     1      30.353  30.990  26.962  1.00  0.00     0.169 HD
BRANCH  20  23
HETATM   23  C9  UNL     1      29.326  28.574  27.999  1.00  0.00     0.188 A
HETATM   24  N7  UNL     1      28.745  28.123  29.133  1.00  0.00    -0.268 N
HETATM   25  N8  UNL     1      27.540  27.676  28.853  1.00  0.00    -0.225 N
ATOM     26  H7  UNL     1      29.173  28.128  30.058  1.00  0.00     0.190 HD
HETATM   27  N9  UNL     1      27.299  27.815  27.561  1.00  0.00    -0.005 NA
ATOM     28  H8  UNL     1      26.889  27.281  29.533  1.00  0.00     0.205 HD
HETATM   29  N10 UNL     1      28.406  28.370  27.042  1.00  0.00    -0.263 N
ATOM     30  H10 UNL     1      28.532  28.604  26.057  1.00  0.00     0.186 HD
ENDBRANCH  20  23
ENDBRANCH  12  16
BRANCH   1  31
HETATM   31  N1  UNL     1      31.986  30.569  24.480  1.00  0.00    -0.384 N
ATOM     32  H12 UNL     1      31.099  31.067  24.409  1.00  0.00     0.157 HD
ATOM     33  H11 UNL     1      32.020  29.549  24.499  1.00  0.00     0.157 HD
ENDBRANCH   1  31
BRANCH  15  34
HETATM   34  C10 UNL     1      34.336  34.984  27.436  1.00  0.00     0.192 C
BRANCH  34  35
HETATM   35  C11 UNL     1      33.438  35.632  28.466  1.00  0.00     0.238 C
BRANCH  35  36
HETATM   36  O3  UNL     1      33.192  34.946  29.609  1.00  0.00    -0.383 OA
ATOM     37  H3  UNL     1      32.307  34.965  29.955  1.00  0.00     0.210 HD
ENDBRANCH  35  36
BRANCH  35  38
HETATM   38  C12 UNL     1      34.005  36.993  28.698  1.00  0.00     0.204 C
HETATM   39  O4  UNL     1      34.619  37.187  29.773  1.00  0.00    -0.646 OA
HETATM   40  O5  UNL     1      33.897  38.044  27.809  1.00  0.00    -0.646 OA
ENDBRANCH  35  38
ENDBRANCH  34  35
ENDBRANCH  15  34
BRANCH   9  41
HETATM   41  N5  UNL     1      34.223  35.259  24.687  1.00  0.00    -0.383 N
ATOM     42  H52 UNL     1      34.786  35.643  25.447  1.00  0.00     0.157 HD
ATOM     43  H51 UNL     1      33.634  35.800  24.054  1.00  0.00     0.157 HD
ENDBRANCH   9  41
BRANCH   5  44
HETATM   44  O1  UNL     1      35.319  30.667  21.361  1.00  0.00    -0.276 OA
ATOM     45  H1  UNL     1      35.945  30.413  20.694  1.00  0.00     0.245 HD
ENDBRANCH   5  44
TORSDOF 9
ENDMDL