MODEL 3
REMARK VINA RESULT: -7.201904423      4.585      8.044
REMARK  12 active torsions:
REMARK  status: ('A' for Active; 'I' for Inactive)
REMARK    1  A    between atoms: C2_2  and  N1_3
REMARK    2  A    between atoms: C3_4  and  N2_5
REMARK    3  A    between atoms: C5_13  and  C6_14
REMARK    4  A    between atoms: C6_14  and  O1_15
REMARK    5  A    between atoms: C6_14  and  N5_17
REMARK    6  A    between atoms: N5_17  and  N6_19
REMARK    7  A    between atoms: N7_22  and  N8_23
REMARK    8  A    between atoms: C8_26  and  N9_27
REMARK    9  A    between atoms: C11_33  and  N11_34
REMARK   10  A    between atoms: N11_34  and  C12_36
REMARK   11  A    between atoms: C12_36  and  O3_37
REMARK   12  A    between atoms: N12_39  and  O4_41
ROOT
HETATM    1  N1  UNL     1      34.856  31.225  24.178  1.00  0.00    -0.147 N
HETATM    2  C3  UNL     1      34.727  29.902  24.269  1.00  0.00     0.682 A
HETATM    3  N3  UNL     1      33.608  29.431  24.846  1.00  0.00    -0.176 N
ATOM      4  H3  UNL     1      33.467  28.425  24.935  1.00  0.00     0.186 HD
HETATM    5  C4  UNL     1      32.676  30.277  25.303  1.00  0.00     0.139 A
HETATM    6  N4  UNL     1      31.564  29.792  25.878  1.00  0.00    -0.341 N
ATOM      7  H4  UNL     1      31.456  28.781  25.953  1.00  0.00     0.167 HD
HETATM    8  C5  UNL     1      30.580  30.586  26.363  1.00  0.00     0.063 A
HETATM    9  C10 UNL     1      30.701  31.944  26.277  1.00  0.00     0.060 A
HETATM   10  C11 UNL     1      31.841  32.524  25.687  1.00  0.00     0.057 A
HETATM   11  C13 UNL     1      32.800  31.672  25.216  1.00  0.00     0.104 A
HETATM   12  C14 UNL     1      33.938  32.123  24.628  1.00  0.00     0.278 A
HETATM   13  O5  UNL     1      34.154  33.342  24.496  1.00  0.00    -0.266 OA
ENDROOT
BRANCH   8  14
HETATM   14  C6  UNL     1      29.405  29.905  26.982  1.00  0.00     0.285 C
BRANCH  14  15
HETATM   15  O1  UNL     1      28.243  30.219  26.288  1.00  0.00    -0.370 OA
ATOM     16  H1  UNL     1      27.488  29.830  26.714  1.00  0.00     0.212 HD
ENDBRANCH  14  15
BRANCH  14  17
HETATM   17  N5  UNL     1      29.606  28.478  26.985  1.00  0.00    -0.276 N
ATOM     18  H5  UNL     1      30.037  28.081  26.150  1.00  0.00     0.185 HD
BRANCH  17  19
HETATM   19  N6  UNL     1      29.282  27.591  27.986  1.00  0.00    -0.125 N
HETATM   20  C7  UNL     1      29.222  27.682  29.319  1.00  0.00     0.397 A
HETATM   21  O2  UNL     1      29.488  28.705  29.991  1.00  0.00    -0.240 OA
HETATM   22  N7  UNL     1      28.829  26.509  29.869  1.00  0.00    -0.034 N
HETATM   23  C8  UNL     1      28.644  25.671  28.857  1.00  0.00     0.719 A
HETATM   24  N10 UNL     1      28.915  26.322  27.730  1.00  0.00    -0.101 N
HETATM   25  C9  UNL     1      28.810  25.678  26.420  1.00  0.00     0.200 C
BRANCH  22  26
HETATM   26  N8  UNL     1      28.654  26.225  31.220  1.00  0.00    -0.320 N
ATOM     27  H82 UNL     1      29.054  26.740  32.004  1.00  0.00     0.178 HD
ATOM     28  H81 UNL     1      28.104  25.469  31.629  1.00  0.00     0.178 HD
ENDBRANCH  22  26
BRANCH  23  29
HETATM   29  N9  UNL     1      28.257  24.426  28.978  1.00  0.00    -0.231 N
ATOM     30  H92 UNL     1      27.304  24.086  29.110  1.00  0.00     0.174 HD
ATOM     31  H91 UNL     1      28.879  23.618  28.958  1.00  0.00     0.174 HD
ENDBRANCH  23  29
ENDBRANCH  17  19
ENDBRANCH  14  17
ENDBRANCH   8  14
BRANCH  10  32
HETATM   32  N11 UNL     1      31.901  33.931  25.631  1.00  0.00    -0.320 N
ATOM     33  H11 UNL     1      31.524  34.419  24.818  1.00  0.00     0.169 HD
BRANCH  32  34
HETATM   34  C12 UNL     1      32.484  34.683  26.699  1.00  0.00     0.241 C
HETATM   35  N12 UNL     1      33.145  35.730  26.426  1.00  0.00    -0.233 N
ATOM     36  H12 UNL     1      33.255  36.024  25.456  1.00  0.00     0.198 HD
BRANCH  34  37
HETATM   37  O3  UNL     1      32.317  34.261  27.985  1.00  0.00    -0.331 OA
ATOM     38  H3  UNL     1      33.046  34.313  28.591  1.00  0.00     0.221 HD
ENDBRANCH  34  37
BRANCH  35  39
HETATM   39  O4  UNL     1      33.710  36.465  27.432  1.00  0.00    -0.287 OA
ATOM     40  H4  UNL     1      33.218  36.647  28.223  1.00  0.00     0.244 HD
ENDBRANCH  35  39
ENDBRANCH  32  34
ENDBRANCH  10  32
BRANCH   2  41
HETATM   41  N2  UNL     1      35.632  29.050  23.843  1.00  0.00    -0.234 N
ATOM     42  H22 UNL     1      36.531  29.002  24.323  1.00  0.00     0.174 HD
ATOM     43  H21 UNL     1      35.495  28.431  23.044  1.00  0.00     0.174 HD
ENDBRANCH   2  41
BRANCH   1  44
HETATM   44  C2  UNL     1      36.043  31.799  23.543  1.00  0.00     0.146 C
HETATM   45  C1  UNL     1      35.917  31.702  22.053  1.00  0.00     0.027 C
ENDBRANCH   1  44
TORSDOF 12
ENDMDL