MODEL 5
REMARK VINA RESULT: -9.063142385      2.833     11.675
REMARK  10 active torsions:
REMARK  status: ('A' for Active; 'I' for Inactive)
REMARK    1  A    between atoms: N1_1  and  C1_4
REMARK    2  A    between atoms: C2_7  and  C3_8
REMARK    3  A    between atoms: C4_11  and  C5_12
REMARK    4  A    between atoms: C5_12  and  N4_13
REMARK    5  A    between atoms: N4_13  and  N5_14
REMARK       I    between atoms: N5_14  and  C6_16
REMARK    6  A    between atoms: C6_16  and  C7_18
REMARK    7  A    between atoms: C7_18  and  N6_19
REMARK    8  A    between atoms: C10_26  and  N9_27
REMARK    9  A    between atoms: C11_32  and  N11_33
REMARK   10  A    between atoms: C13_40  and  N13_41
ROOT
HETATM    1  N5  UNL     1      28.901  28.383  27.210  1.00  0.00    -0.272 N
ATOM      2  H5  UNL     1      27.985  28.773  26.981  1.00  0.00     0.185 HD
HETATM    3  C6  UNL     1      29.006  27.074  27.684  1.00  0.00     0.254 C
HETATM    4  O1  UNL     1      30.156  26.620  27.972  1.00  0.00    -0.270 OA
ENDROOT
BRANCH   1   5
HETATM    5  N4  UNL     1      30.062  29.165  27.048  1.00  0.00    -0.133 NA
BRANCH   5   6
HETATM    6  C5  UNL     1      29.724  30.549  26.828  1.00  0.00     0.192 C
BRANCH   6   7
HETATM    7  C4  UNL     1      30.953  31.270  26.379  1.00  0.00     0.033 A
HETATM    8  N3  UNL     1      31.285  32.477  26.764  1.00  0.00    -0.349 N
HETATM    9  C3  UNL     1      32.394  33.028  26.322  1.00  0.00     0.127 A
ATOM     10  H3  UNL     1      30.683  32.989  27.407  1.00  0.00     0.166 HD
HETATM   11  S1  UNL     1      33.037  31.819  25.307  1.00  0.00    -0.078 SA
HETATM   12  C12 UNL     1      31.816  30.641  25.510  1.00  0.00     0.078 A
BRANCH   9  13
HETATM   13  C2  UNL     1      32.909  34.349  26.649  1.00  0.00     0.200 A
HETATM   14  N2  UNL     1      33.153  34.595  27.976  1.00  0.00    -0.167 N
HETATM   15  C1  UNL     1      33.634  35.786  28.401  1.00  0.00     0.681 A
ATOM     16  H2  UNL     1      32.966  33.861  28.660  1.00  0.00     0.186 HD
HETATM   17  N14 UNL     1      33.874  36.741  27.484  1.00  0.00    -0.155 N
HETATM   18  C13 UNL     1      33.631  36.483  26.198  1.00  0.00     0.238 A
ATOM     19  H14 UNL     1      34.237  37.651  27.769  1.00  0.00     0.188 HD
HETATM   20  O2  UNL     1      33.160  35.305  25.817  1.00  0.00    -0.258 OA
BRANCH  15  21
HETATM   21  N1  UNL     1      33.867  36.024  29.643  1.00  0.00    -0.234 N
ATOM     22  H12 UNL     1      33.808  35.265  30.322  1.00  0.00     0.174 HD
ATOM     23  H11 UNL     1      34.109  36.956  29.980  1.00  0.00     0.174 HD
ENDBRANCH  15  21
BRANCH  18  24
HETATM   24  N13 UNL     1      33.870  37.417  25.329  1.00  0.00    -0.364 N
ATOM     25 2H13 UNL     1      34.720  37.350  24.770  1.00  0.00     0.159 HD
ATOM     26 1H13 UNL     1      33.222  38.195  25.207  1.00  0.00     0.159 HD
ENDBRANCH  18  24
ENDBRANCH   9  13
ENDBRANCH   6   7
ENDBRANCH   5   6
ENDBRANCH   1   5
BRANCH   3  27
HETATM   27  C7  UNL     1      27.826  26.164  27.871  1.00  0.00     0.274 C
BRANCH  27  28
HETATM   28  N6  UNL     1      28.296  24.878  28.377  1.00  0.00    -0.203 N
HETATM   29  N7  UNL     1      28.476  23.783  27.621  1.00  0.00    -0.290 N
HETATM   30  C8  UNL     1      28.909  22.758  28.340  1.00  0.00     0.160 A
ATOM     31  H7  UNL     1      28.301  23.744  26.616  1.00  0.00     0.188 HD
HETATM   32  C9  UNL     1      29.005  23.241  29.636  1.00  0.00     0.179 A
HETATM   33  N8  UNL     1      29.383  22.673  30.791  1.00  0.00    -0.172 N
HETATM   34  N12 UNL     1      28.620  24.537  29.603  1.00  0.00    -0.051 N
HETATM   35  C10 UNL     1      29.402  23.344  31.961  1.00  0.00     0.692 A
ATOM     36  H8  UNL     1      29.669  21.694  30.784  1.00  0.00     0.186 HD
HETATM   37  N10 UNL     1      29.020  24.633  31.942  1.00  0.00    -0.021 N
HETATM   38  C11 UNL     1      28.641  25.199  30.778  1.00  0.00     0.715 A
ATOM     39  H10 UNL     1      29.018  25.179  32.803  1.00  0.00     0.203 HD
BRANCH  35  40
HETATM   40  N9  UNL     1      29.761  22.789  33.059  1.00  0.00    -0.234 N
ATOM     41  H92 UNL     1      29.969  21.791  33.089  1.00  0.00     0.174 HD
ATOM     42  H91 UNL     1      29.855  23.316  33.927  1.00  0.00     0.174 HD
ENDBRANCH  35  40
BRANCH  38  43
HETATM   43  N11 UNL     1      28.270  26.457  30.767  1.00  0.00    -0.232 N
ATOM     44 2H11 UNL     1      28.408  26.993  31.624  1.00  0.00     0.174 HD
ATOM     45 1H11 UNL     1      27.865  26.851  29.918  1.00  0.00     0.174 HD
ENDBRANCH  38  43
ENDBRANCH  27  28
ENDBRANCH   3  27
TORSDOF 10
ENDMDL