MODEL 3
REMARK VINA RESULT: -8.074208497      2.483      5.126
REMARK  13 active torsions:
REMARK  status: ('A' for Active; 'I' for Inactive)
REMARK    1  A    between atoms: N1_1  and  C1_4
REMARK    2  A    between atoms: C2_7  and  N3_8
REMARK    3  A    between atoms: N4_10  and  C3_12
REMARK    4  A    between atoms: C5_14  and  C6_15
REMARK    5  A    between atoms: C6_15  and  C7_17
REMARK    6  A    between atoms: C7_17  and  N5_18
REMARK    7  A    between atoms: C9_23  and  N6_24
REMARK    8  A    between atoms: C10_29  and  C11_30
REMARK    9  A    between atoms: C11_30  and  N9_31
REMARK   10  A    between atoms: C11_30  and  N10_35
REMARK   11  A    between atoms: C12_43  and  C13_44
REMARK   12  A    between atoms: C13_44  and  O2_45
REMARK   13  A    between atoms: C13_44  and  O3_47
ROOT
HETATM    1  C3  UNL     1      31.885  32.556  26.825  1.00  0.00     0.122 A
HETATM    2  C4  UNL     1      30.693  31.875  27.045  1.00  0.00     0.065 A
HETATM    3  C5  UNL     1      30.538  30.592  26.572  1.00  0.00     0.019 A
HETATM    4  C8  UNL     1      31.611  30.022  25.878  1.00  0.00     0.067 A
HETATM    5  C9  UNL     1      32.782  30.705  25.667  1.00  0.00     0.149 A
HETATM    6  N12 UNL     1      32.878  31.949  26.149  1.00  0.00    -0.325 N
ATOM      7  H12 UNL     1      33.745  32.463  25.996  1.00  0.00     0.169 HD
ENDROOT
BRANCH   1   8
HETATM    8  N4  UNL     1      32.073  33.883  27.303  1.00  0.00    -0.284 N
HETATM    9  N3  UNL     1      33.250  34.342  27.370  1.00  0.00    -0.283 N
ATOM     10  H3  UNL     1      34.033  33.756  27.082  1.00  0.00     0.188 HD
ATOM     11  H4  UNL     1      31.275  34.454  27.585  1.00  0.00     0.188 HD
BRANCH   9  12
HETATM   12  C2  UNL     1      33.496  35.651  27.836  1.00  0.00     0.152 A
HETATM   13  N2  UNL     1      33.499  35.932  29.169  1.00  0.00    -0.175 N
HETATM   14  C1  UNL     1      33.731  37.169  29.641  1.00  0.00     0.680 A
ATOM     15  H2  UNL     1      33.321  35.177  29.832  1.00  0.00     0.186 HD
HETATM   16  N13 UNL     1      33.962  38.132  28.742  1.00  0.00    -0.156 N
HETATM   17  C14 UNL     1      33.973  37.929  27.416  1.00  0.00     0.274 A
ATOM     18  H13 UNL     1      34.139  39.076  29.085  1.00  0.00     0.187 HD
HETATM   19  C12 UNL     1      33.734  36.651  26.927  1.00  0.00     0.110 A
HETATM   20  O4  UNL     1      34.195  38.861  26.600  1.00  0.00    -0.267 OA
BRANCH  14  21
HETATM   21  N1  UNL     1      33.734  37.441  30.911  1.00  0.00    -0.234 N
ATOM     22  H12 UNL     1      33.128  36.928  31.551  1.00  0.00     0.174 HD
ATOM     23  H11 UNL     1      34.331  38.165  31.314  1.00  0.00     0.174 HD
ENDBRANCH  14  21
BRANCH  19  24
HETATM   24  C13 UNL     1      33.755  36.458  25.459  1.00  0.00     0.297 C
BRANCH  24  25
HETATM   25  O2  UNL     1      33.916  35.091  25.234  1.00  0.00    -0.367 OA
ATOM     26  H2  UNL     1      33.691  34.934  24.324  1.00  0.00     0.213 HD
ENDBRANCH  24  25
BRANCH  24  27
HETATM   27  O3  UNL     1      34.770  37.203  24.874  1.00  0.00    -0.367 OA
ATOM     28  H3  UNL     1      35.274  37.666  25.532  1.00  0.00     0.213 HD
ENDBRANCH  24  27
ENDBRANCH  19  24
ENDBRANCH   9  12
ENDBRANCH   1   8
BRANCH   3  29
HETATM   29  C6  UNL     1      29.311  29.828  26.772  1.00  0.00     0.184 C
HETATM   30  O1  UNL     1      28.262  30.284  26.229  1.00  0.00    -0.291 OA
BRANCH  29  31
HETATM   31  C7  UNL     1      29.257  28.587  27.555  1.00  0.00     0.313 C
BRANCH  31  32
HETATM   32  N5  UNL     1      29.593  28.862  28.930  1.00  0.00    -0.072 N
ATOM     33  H53 UNL     1      28.767  29.059  29.495  1.00  0.00     0.274 HD
ATOM     34  H52 UNL     1      29.911  28.027  29.422  1.00  0.00     0.274 HD
ATOM     35  H51 UNL     1      30.277  29.618  28.975  1.00  0.00     0.274 HD
ENDBRANCH  31  32
ENDBRANCH  29  31
ENDBRANCH   3  29
BRANCH   5  36
HETATM   36  N6  UNL     1      33.852  30.095  24.957  1.00  0.00    -0.164 N
HETATM   37  N7  UNL     1      34.394  30.671  23.880  1.00  0.00    -0.218 N
HETATM   38  N8  UNL     1      35.356  29.922  23.405  1.00  0.00    -0.268 N
ATOM     39  H7  UNL     1      34.101  31.565  23.485  1.00  0.00     0.210 HD
HETATM   40  C10 UNL     1      35.409  28.841  24.224  1.00  0.00     0.172 A
ATOM     41  H8  UNL     1      35.943  30.111  22.592  1.00  0.00     0.190 HD
HETATM   42  N11 UNL     1      34.479  28.957  25.177  1.00  0.00    -0.260 N
ATOM     43  H11 UNL     1      34.290  28.293  25.929  1.00  0.00     0.190 HD
BRANCH  40  44
HETATM   44  C11 UNL     1      36.403  27.747  23.992  1.00  0.00     0.447 C
BRANCH  44  45
HETATM   45  N9  UNL     1      35.908  26.884  22.959  1.00  0.00    -0.043 N
ATOM     46  H93 UNL     1      35.242  26.197  23.311  1.00  0.00     0.277 HD
ATOM     47  H92 UNL     1      35.285  27.368  22.313  1.00  0.00     0.277 HD
ATOM     48  H91 UNL     1      36.700  26.450  22.485  1.00  0.00     0.277 HD
ENDBRANCH  44  45
BRANCH  44  49
HETATM   49  N10 UNL     1      36.487  26.966  25.221  1.00  0.00    -0.043 N
ATOM     50 3H10 UNL     1      37.152  26.195  25.157  1.00  0.00     0.277 HD
ATOM     51 2H10 UNL     1      36.941  27.471  25.983  1.00  0.00     0.277 HD
ATOM     52 1H10 UNL     1      35.543  26.659  25.453  1.00  0.00     0.277 HD
ENDBRANCH  44  49
ENDBRANCH  40  44
ENDBRANCH   5  36
TORSDOF 13
ENDMDL