MODEL 2
REMARK VINA RESULT: -10.689499219      0.914      1.197
REMARK  12 active torsions:
REMARK  status: ('A' for Active; 'I' for Inactive)
REMARK    1  A    between atoms: N1_1  and  C1_4
REMARK    2  A    between atoms: C2_7  and  S1_8
REMARK    3  A    between atoms: S1_8  and  C3_9
REMARK    4  A    between atoms: C3_9  and  C4_10
REMARK    5  A    between atoms: C4_10  and  N3_11
REMARK    6  A    between atoms: C4_10  and  N7_29
REMARK    7  A    between atoms: N3_11  and  N4_13
REMARK    8  A    between atoms: N4_13  and  C5_15
REMARK    9  A    between atoms: C6_18  and  O1_19
REMARK   10  A    between atoms: C6_18  and  N6_21
REMARK   11  A    between atoms: C7_25  and  O5_26
REMARK       I    between atoms: N7_29  and  C9_31
REMARK       I    between atoms: C9_31  and  N8_33
REMARK   12  A    between atoms: N8_33  and  N9_35
ROOT
HETATM    1  C4  UNL     1      31.152  31.754  26.559  1.00  0.00     0.130 C
ENDROOT
BRANCH   1   2
HETATM    2  C3  UNL     1      31.644  32.966  27.177  1.00  0.00     0.102 C
BRANCH   2   3
HETATM    3  S1  UNL     1      33.251  33.554  26.632  1.00  0.00    -0.071 SA
BRANCH   3   4
HETATM    4  C2  UNL     1      33.526  35.251  27.161  1.00  0.00     0.148 A
HETATM    5  N2  UNL     1      33.733  35.724  28.378  1.00  0.00    -0.177 N
HETATM    6  C1  UNL     1      33.910  36.992  28.548  1.00  0.00     0.683 A
ATOM      7  H2  UNL     1      33.752  35.092  29.178  1.00  0.00     0.185 HD
HETATM    8  N10 UNL     1      33.877  37.787  27.467  1.00  0.00    -0.158 N
HETATM    9  S2  UNL     1      33.589  36.687  26.225  1.00  0.00     0.028 SA
ATOM     10  H10 UNL     1      33.995  38.798  27.412  1.00  0.00     0.193 HD
BRANCH   6  11
HETATM   11  N1  UNL     1      34.123  37.551  29.727  1.00  0.00    -0.234 N
ATOM     12  H12 UNL     1      33.786  38.502  29.876  1.00  0.00     0.174 HD
ATOM     13  H11 UNL     1      34.606  37.086  30.495  1.00  0.00     0.174 HD
ENDBRANCH   6  11
ENDBRANCH   3   4
ENDBRANCH   2   3
ENDBRANCH   1   2
BRANCH   1  14
HETATM   14  N3  UNL     1      31.079  31.706  25.250  1.00  0.00    -0.284 N
ATOM     15  H3  UNL     1      30.563  32.446  24.774  1.00  0.00     0.188 HD
BRANCH  14  16
HETATM   16  N4  UNL     1      31.656  30.720  24.477  1.00  0.00    -0.287 N
ATOM     17  H4  UNL     1      31.066  30.051  23.982  1.00  0.00     0.188 HD
BRANCH  16  18
HETATM   18  C5  UNL     1      33.057  30.636  24.367  1.00  0.00     0.102 C
HETATM   19  N5  UNL     1      33.746  31.409  23.607  1.00  0.00    -0.300 N
HETATM   20  C6  UNL     1      35.180  31.268  23.544  1.00  0.00     0.399 C
ATOM     21  H5  UNL     1      33.280  32.123  23.048  1.00  0.00     0.168 HD
HETATM   22  O4  UNL     1      35.451  29.907  23.449  1.00  0.00    -0.285 OA
HETATM   23  C7  UNL     1      35.101  29.221  24.607  1.00  0.00     0.271 C
HETATM   24  C8  UNL     1      33.776  29.612  25.165  1.00  0.00     0.138 C
BRANCH  20  25
HETATM   25  O1  UNL     1      35.779  31.869  24.630  1.00  0.00    -0.327 OA
ATOM     26  H1  UNL     1      36.673  32.119  24.426  1.00  0.00     0.217 HD
ENDBRANCH  20  25
BRANCH  20  27
HETATM   27  N6  UNL     1      35.694  31.873  22.311  1.00  0.00    -0.063 N
HETATM   28  O2  UNL     1      35.064  32.796  21.765  1.00  0.00    -0.530 OA
HETATM   29  O3  UNL     1      36.862  31.457  21.724  1.00  0.00    -0.530 OA
ENDBRANCH  20  27
BRANCH  23  30
HETATM   30  O5  UNL     1      36.109  29.443  25.547  1.00  0.00    -0.371 OA
ATOM     31  H5  UNL     1      36.196  28.652  26.066  1.00  0.00     0.212 HD
ENDBRANCH  23  30
ENDBRANCH  16  18
ENDBRANCH  14  16
ENDBRANCH   1  14
BRANCH   1  32
HETATM   32  N7  UNL     1      30.774  30.621  27.285  1.00  0.00    -0.292 N
HETATM   33  C9  UNL     1      29.547  29.945  27.110  1.00  0.00     0.340 C
HETATM   34  O6  UNL     1      28.649  30.262  26.292  1.00  0.00    -0.245 OA
HETATM   35  N8  UNL     1      29.244  28.781  27.912  1.00  0.00    -0.258 N
ATOM     36  H8  UNL     1      29.935  28.472  28.596  1.00  0.00     0.191 HD
ATOM     37  H7  UNL     1      31.424  30.260  27.983  1.00  0.00     0.172 HD
BRANCH  35  38
HETATM   38  N9  UNL     1      28.069  28.070  27.801  1.00  0.00    -0.341 N
ATOM     39  H92 UNL     1      27.673  27.964  26.867  1.00  0.00     0.177 HD
ATOM     40  H91 UNL     1      27.589  27.653  28.599  1.00  0.00     0.177 HD
ENDBRANCH  35  38
ENDBRANCH   1  32
TORSDOF 12
ENDMDL