MODEL 3
REMARK VINA RESULT: -7.455712666      3.698      5.076
REMARK  4 active torsions:
REMARK  status: ('A' for Active; 'I' for Inactive)
REMARK    1  A    between atoms: S1_2  and  C2_4
REMARK    2  A    between atoms: C2_4  and  C3_5
REMARK    3  A    between atoms: C3_5  and  O2_6
REMARK    4  A    between atoms: C3_5  and  C4_8
ROOT
HETATM    1  C4  UNL     1      18.228  76.774  17.724  1.00  0.00     0.184 A
HETATM    2  O3  UNL     1      19.192  76.696  16.717  1.00  0.00    -0.367 OA
HETATM    3  C5  UNL     1      20.208  76.267  17.562  1.00  0.00     0.093 A
HETATM    4  C6  UNL     1      21.414  77.140  17.637  1.00  0.00     0.049 C
HETATM    5  C7  UNL     1      19.252  76.327  18.699  1.00  0.00     0.189 A
HETATM    6  O4  UNL     1      19.037  75.053  19.182  1.00  0.00    -0.364 OA
HETATM    7  C8  UNL     1      20.055  74.229  18.743  1.00  0.00     0.089 C
HETATM    8  C9  UNL     1      21.168  74.282  19.761  1.00  0.00     0.051 C
HETATM    9  C10 UNL     1      19.579  72.836  18.491  1.00  0.00    -0.037 C
HETATM   10  C11 UNL     1      18.511  72.421  19.123  1.00  0.00    -0.019 C
HETATM   11  C12 UNL     1      17.919  71.066  18.976  1.00  0.00     0.041 C
HETATM   12  C13 UNL     1      18.322  70.420  17.674  1.00  0.00    -0.009 C
HETATM   13  C14 UNL     1      17.408  70.801  16.545  1.00  0.00     0.021 C
HETATM   14  C15 UNL     1      18.239  68.918  17.842  1.00  0.00     0.097 C
HETATM   15  C16 UNL     1      19.257  68.482  16.840  1.00  0.00     0.150 C
HETATM   16  O5  UNL     1      19.254  67.442  16.155  1.00  0.00    -0.293 OA
HETATM   17  C17 UNL     1      20.256  69.555  16.848  1.00  0.00     0.054 C
HETATM   18  C18 UNL     1      19.726  70.667  17.324  1.00  0.00    -0.055 C
HETATM   19  C19 UNL     1      20.372  72.011  17.517  1.00  0.00     0.006 C
HETATM   20  C20 UNL     1      21.727  71.702  18.167  1.00  0.00     0.025 C
HETATM   21  C21 UNL     1      20.516  72.724  16.216  1.00  0.00     0.019 C
HETATM   22  C22 UNL     1      19.912  74.112  16.318  1.00  0.00     0.012 C
HETATM   23  C23 UNL     1      20.582  74.815  17.452  1.00  0.00     0.061 C
ENDROOT
BRANCH   1  24
HETATM   24  C3  UNL     1      17.675  78.149  17.815  1.00  0.00     0.161 C
BRANCH  24  25
HETATM   25  C2  UNL     1      16.481  78.442  16.991  1.00  0.00     0.142 C
BRANCH  25  26
HETATM   26  S1  UNL     1      15.877  80.066  17.410  1.00  0.00     0.013 S
HETATM   27  C1  UNL     1      15.190  80.898  16.015  1.00  0.00     0.127 C
HETATM   28  O1  UNL     1      14.754  79.864  18.646  1.00  0.00    -0.258 OA
ENDBRANCH  25  26
ENDBRANCH  24  25
BRANCH  24  29
HETATM   29  O2  UNL     1      17.413  78.502  19.139  1.00  0.00    -0.392 OA
ATOM     30  H2  UNL     1      18.211  78.830  19.536  1.00  0.00     0.210 HD
ENDBRANCH  24  29
ENDBRANCH   1  24
TORSDOF 4
ENDMDL