MODEL 4
REMARK VINA RESULT: -6.996109076      2.253      4.472
REMARK  5 active torsions:
REMARK  status: ('A' for Active; 'I' for Inactive)
REMARK    1  A    between atoms: C2_2  and  O2_4
REMARK    2  A    between atoms: O2_4  and  C3_5
REMARK    3  A    between atoms: C4_6  and  C5_7
REMARK    4  A    between atoms: C5_7  and  C6_9
REMARK    5  A    between atoms: C7_10  and  C8_11
ROOT
HETATM    1  C3  UNL     1      20.755  69.964  18.393  1.00  0.00     0.149 C
HETATM    2  C4  UNL     1      22.218  69.588  18.654  1.00  0.00     0.097 C
HETATM    3  C9  UNL     1      22.794  70.240  19.851  1.00  0.00     0.044 C
HETATM    4  C10 UNL     1      24.289  70.372  19.831  1.00  0.00     0.059 C
HETATM    5  C11 UNL     1      24.996  69.244  20.548  1.00  0.00     0.046 C
HETATM    6  C12 UNL     1      24.892  70.542  18.491  1.00  0.00     0.046 C
HETATM    7  O5  UNL     1      24.580  71.536  20.582  1.00  0.00    -0.380 OA
HETATM    8  C13 UNL     1      23.641  72.412  20.118  1.00  0.00     0.178 C
HETATM    9  C14 UNL     1      22.334  71.627  20.108  1.00  0.00    -0.011 C
HETATM   10  C15 UNL     1      21.829  71.730  21.558  1.00  0.00     0.018 C
HETATM   11  C16 UNL     1      21.347  72.254  19.239  1.00  0.00     0.004 C
HETATM   12  C17 UNL     1      20.156  72.870  19.982  1.00  0.00     0.007 C
HETATM   13  C18 UNL     1      19.273  73.226  18.813  1.00  0.00     0.014 C
HETATM   14  C19 UNL     1      19.523  72.141  17.742  1.00  0.00    -0.016 C
HETATM   15  C20 UNL     1      19.769  72.930  16.495  1.00  0.00    -0.013 C
HETATM   16  C21 UNL     1      18.933  73.149  15.522  1.00  0.00     0.047 C
HETATM   17  C22 UNL     1      17.601  72.574  15.635  1.00  0.00     0.149 C
HETATM   18  O6  UNL     1      16.873  72.304  14.671  1.00  0.00    -0.293 OA
HETATM   19  C23 UNL     1      17.169  72.327  17.036  1.00  0.00     0.084 C
HETATM   20  C24 UNL     1      18.235  71.413  17.625  1.00  0.00     0.022 C
HETATM   21  C25 UNL     1      20.731  71.421  18.139  1.00  0.00     0.033 C
ENDROOT
BRANCH   2  22
HETATM   22  C5  UNL     1      22.426  68.148  18.515  1.00  0.00     0.156 C
HETATM   23  O3  UNL     1      22.248  67.350  19.513  1.00  0.00    -0.293 OA
BRANCH  22  24
HETATM   24  C6  UNL     1      22.832  67.485  17.293  1.00  0.00     0.053 C
HETATM   25  C7  UNL     1      23.931  66.827  17.072  1.00  0.00     0.045 C
BRANCH  25  26
HETATM   26  C8  UNL     1      24.207  66.207  15.770  1.00  0.00     0.258 C
HETATM   27  O4  UNL     1      23.301  65.614  15.131  1.00  0.00    -0.302 OA
ENDBRANCH  25  26
ENDBRANCH  22  24
ENDBRANCH   2  22
BRANCH   1  28
HETATM   28  O2  UNL     1      19.874  69.379  19.251  1.00  0.00    -0.315 OA
BRANCH  28  29
HETATM   29  C2  UNL     1      19.075  68.299  19.195  1.00  0.00     0.255 C
HETATM   30  C1  UNL     1      18.634  67.521  20.382  1.00  0.00     0.126 C
HETATM   31  O1  UNL     1      18.746  68.020  18.044  1.00  0.00    -0.266 OA
ENDBRANCH  28  29
ENDBRANCH   1  28
TORSDOF 5
ENDMDL