MODEL 2
REMARK VINA RESULT: -8.157943508      1.036      1.073
REMARK  5 active torsions:
REMARK  status: ('A' for Active; 'I' for Inactive)
REMARK    1  A    between atoms: C3_3  and  O1_4
REMARK    2  A    between atoms: O1_4  and  S1_5
REMARK    3  A    between atoms: C17_21  and  O4_22
REMARK    4  A    between atoms: C19_25  and  C20_26
REMARK    5  A    between atoms: C20_26  and  O6_27
ROOT
HETATM    1  C1  UNL     1      16.201  75.560  15.290  1.00  0.00     0.017 C
HETATM    2  C2  UNL     1      16.608  74.330  15.127  1.00  0.00    -0.055 C
HETATM    3  C3  UNL     1      16.055  73.497  14.041  1.00  0.00     0.171 C
HETATM    4  C5  UNL     1      15.763  72.082  14.457  1.00  0.00     0.038 C
HETATM    5  C6  UNL     1      16.822  71.493  15.358  1.00  0.00     0.009 C
HETATM    6  C7  UNL     1      17.051  72.416  16.510  1.00  0.00    -0.002 C
HETATM    7  C8  UNL     1      17.627  73.752  16.024  1.00  0.00     0.021 C
HETATM    8  C9  UNL     1      18.917  73.495  15.302  1.00  0.00     0.010 C
HETATM    9  C10 UNL     1      19.825  72.602  16.074  1.00  0.00     0.006 C
HETATM   10  C11 UNL     1      19.366  72.353  17.498  1.00  0.00    -0.005 C
HETATM   11  C12 UNL     1      17.941  71.889  17.578  1.00  0.00    -0.005 C
HETATM   12  C13 UNL     1      17.851  70.381  17.666  1.00  0.00     0.006 C
HETATM   13  C14 UNL     1      18.583  69.826  18.830  1.00  0.00     0.015 C
HETATM   14  C15 UNL     1      19.763  70.627  19.280  1.00  0.00     0.010 C
HETATM   15  C16 UNL     1      19.335  71.573  20.381  1.00  0.00     0.020 C
HETATM   16  C17 UNL     1      20.827  69.702  19.817  1.00  0.00     0.268 C
HETATM   17  O5  UNL     1      22.062  69.898  19.246  1.00  0.00    -0.353 OA
HETATM   18  C19 UNL     1      22.112  69.734  17.888  1.00  0.00     0.148 C
HETATM   19  C21 UNL     1      21.132  70.609  17.169  1.00  0.00     0.040 C
HETATM   20  C22 UNL     1      20.348  71.463  18.170  1.00  0.00     0.005 C
ENDROOT
BRANCH   3  21
HETATM   21  O1  UNL     1      14.831  74.040  13.590  1.00  0.00    -0.266 OA
BRANCH  21  22
HETATM   22  S1  UNL     1      14.287  73.310  12.205  1.00  0.00     0.262 S
HETATM   23  C4  UNL     1      14.099  71.569  12.502  1.00  0.00     0.194 C
HETATM   24  O2  UNL     1      15.225  73.500  11.047  1.00  0.00    -0.199 OA
HETATM   25  O3  UNL     1      12.942  73.833  11.760  1.00  0.00    -0.199 OA
ENDBRANCH  21  22
ENDBRANCH   3  21
BRANCH  16  26
HETATM   26  O4  UNL     1      20.968  69.771  21.192  1.00  0.00    -0.365 OA
HETATM   27  C18 UNL     1      20.934  68.536  21.816  1.00  0.00     0.204 C
ENDBRANCH  16  26
BRANCH  18  28
HETATM   28  C20 UNL     1      21.949  68.284  17.459  1.00  0.00     0.196 C
BRANCH  28  29
HETATM   29  O6  UNL     1      20.842  68.174  16.630  1.00  0.00    -0.398 OA
ATOM     30  H6  UNL     1      20.111  67.826  17.128  1.00  0.00     0.209 HD
ENDBRANCH  28  29
ENDBRANCH  18  28
TORSDOF 5
ENDMDL