MODEL 4
REMARK VINA RESULT: -6.762141078      4.643      6.636
REMARK  6 active torsions:
REMARK  status: ('A' for Active; 'I' for Inactive)
REMARK    1  A    between atoms: C2_2  and  O1_4
REMARK    2  A    between atoms: O1_4  and  C4_5
REMARK    3  A    between atoms: C4_5  and  C5_7
REMARK    4  A    between atoms: C14_17  and  N1_19
REMARK       I    between atoms: N1_19  and  C16_21
REMARK    5  A    between atoms: C16_21  and  O5_23
REMARK    6  A    between atoms: O5_23  and  C17_24
ROOT
HETATM    1  C5  UNL     1      17.035  73.986  15.377  1.00  0.00     0.093 C
HETATM    2  C6  UNL     1      17.233  75.416  15.825  1.00  0.00     0.040 C
HETATM    3  C7  UNL     1      18.191  75.430  17.038  1.00  0.00     0.089 C
HETATM    4  C8  UNL     1      18.608  76.807  17.317  1.00  0.00     0.030 C
HETATM    5  C9  UNL     1      18.496  77.141  18.814  1.00  0.00    -0.010 C
HETATM    6  C10 UNL     1      18.110  78.599  19.009  1.00  0.00     0.010 C
HETATM    7  C11 UNL     1      19.744  76.891  19.574  1.00  0.00     0.082 C
HETATM    8  C12 UNL     1      20.954  76.866  18.710  1.00  0.00     0.130 C
HETATM    9  O3  UNL     1      21.376  77.890  18.252  1.00  0.00    -0.298 OA
HETATM   10  C13 UNL     1      21.583  75.576  18.455  1.00  0.00     0.119 C
HETATM   11  C14 UNL     1      21.701  75.135  17.044  1.00  0.00     0.119 C
HETATM   12  C15 UNL     1      22.852  74.084  17.078  1.00  0.00     0.049 C
HETATM   13  C19 UNL     1      20.508  74.443  16.489  1.00  0.00     0.249 C
HETATM   14  O6  UNL     1      20.823  73.743  15.441  1.00  0.00    -0.270 OA
HETATM   15  N2  UNL     1      19.187  74.403  16.856  1.00  0.00    -0.341 N
HETATM   16  C20 UNL     1      18.575  73.065  17.108  1.00  0.00     0.088 C
HETATM   17  C21 UNL     1      18.455  72.891  18.589  1.00  0.00     0.033 C
HETATM   18  C22 UNL     1      17.142  73.079  16.539  1.00  0.00     0.018 C
HETATM   19  C23 UNL     1      16.847  71.619  16.217  1.00  0.00     0.013 C
ENDROOT
BRANCH  11  20
HETATM   20  N1  UNL     1      22.207  76.135  16.127  1.00  0.00    -0.319 N
HETATM   21  C16 UNL     1      23.540  76.518  15.953  1.00  0.00     0.361 C
HETATM   22  O4  UNL     1      24.456  75.978  16.640  1.00  0.00    -0.238 OA
ATOM     23  H1  UNL     1      21.517  76.610  15.545  1.00  0.00     0.166 HD
BRANCH  21  24
HETATM   24  O5  UNL     1      23.955  77.486  15.044  1.00  0.00    -0.304 OA
BRANCH  24  25
HETATM   25  C17 UNL     1      23.067  78.170  14.181  1.00  0.00     0.176 C
HETATM   26  C18 UNL     1      23.102  77.415  12.854  1.00  0.00     0.034 C
ENDBRANCH  24  25
ENDBRANCH  21  24
ENDBRANCH  11  20
BRANCH   1  27
HETATM   27  C4  UNL     1      15.785  73.819  14.622  1.00  0.00     0.268 C
HETATM   28  O2  UNL     1      14.640  74.031  15.095  1.00  0.00    -0.264 OA
BRANCH  27  29
HETATM   29  O1  UNL     1      15.797  73.403  13.278  1.00  0.00    -0.284 OA
BRANCH  29  30
HETATM   30  C2  UNL     1      14.950  72.475  12.738  1.00  0.00     0.043 C
HETATM   31  C1  UNL     1      15.098  71.197  12.985  1.00  0.00     0.046 C
HETATM   32  C3  UNL     1      13.846  72.916  11.856  1.00  0.00     0.076 C
ENDBRANCH  29  30
ENDBRANCH  27  29
ENDBRANCH   1  27
TORSDOF 6
ENDMDL