MODEL 2
REMARK VINA RESULT: -8.365894856      1.773      2.754
REMARK  6 active torsions:
REMARK  status: ('A' for Active; 'I' for Inactive)
REMARK    1  A    between atoms: C8_10  and  C9_11
REMARK       I    between atoms: C9_11  and  N2_13
REMARK    2  A    between atoms: N2_13  and  C10_15
REMARK    3  A    between atoms: C10_15  and  O3_16
REMARK    4  A    between atoms: C10_15  and  N3_18
REMARK    5  A    between atoms: C12_22  and  C13_23
REMARK    6  A    between atoms: C13_23  and  C14_24
ROOT
HETATM    1  C1  UNL     1      21.902  72.651  17.482  1.00  0.00     0.033 C
HETATM    2  C2  UNL     1      20.580  72.120  17.981  1.00  0.00     0.067 C
HETATM    3  C3  UNL     1      19.725  71.857  16.841  1.00  0.00     0.070 C
HETATM    4  N1  UNL     1      19.039  71.625  15.926  1.00  0.00    -0.196 NA
HETATM    5  C4  UNL     1      20.817  70.810  18.694  1.00  0.00     0.033 C
HETATM    6  C5  UNL     1      19.522  70.115  18.943  1.00  0.00     0.174 C
HETATM    7  O1  UNL     1      19.148  70.360  20.260  1.00  0.00    -0.385 OA
HETATM    8  C6  UNL     1      19.356  71.657  20.656  1.00  0.00     0.126 C
HETATM    9  C7  UNL     1      18.769  72.596  19.637  1.00  0.00     0.053 C
HETATM   10  C8  UNL     1      19.989  73.122  18.936  1.00  0.00     0.065 C
HETATM   11  C19 UNL     1      20.948  73.362  20.067  1.00  0.00     0.028 C
HETATM   12  C20 UNL     1      20.823  72.019  20.804  1.00  0.00     0.016 C
HETATM   13  C21 UNL     1      21.596  70.998  19.976  1.00  0.00     0.015 C
ENDROOT
BRANCH  10  14
HETATM   14  C9  UNL     1      19.636  74.390  18.223  1.00  0.00     0.235 C
HETATM   15  O2  UNL     1      20.388  75.372  18.399  1.00  0.00    -0.272 OA
HETATM   16  N2  UNL     1      18.498  74.405  17.409  1.00  0.00    -0.290 N
ATOM     17  H2  UNL     1      18.002  73.514  17.383  1.00  0.00     0.172 HD
BRANCH  16  18
HETATM   18  C10 UNL     1      17.911  75.391  16.629  1.00  0.00     0.252 C
BRANCH  18  19
HETATM   19  O3  UNL     1      18.367  76.603  16.858  1.00  0.00    -0.330 OA
ATOM     20  H3  UNL     1      17.988  77.274  16.302  1.00  0.00     0.221 HD
ENDBRANCH  18  19
BRANCH  18  21
HETATM   21  N3  UNL     1      16.919  75.235  15.657  1.00  0.00    -0.191 N
HETATM   22  N4  UNL     1      16.275  76.047  14.788  1.00  0.00    -0.299 N
HETATM   23  C11 UNL     1      15.672  75.607  13.795  1.00  0.00     0.098 C
ATOM     24  H4  UNL     1      16.285  77.054  14.953  1.00  0.00     0.187 HD
HETATM   25  C12 UNL     1      15.687  74.136  13.595  1.00  0.00     0.111 C
HETATM   26  S1  UNL     1      16.148  73.631  15.288  1.00  0.00    -0.016 SA
BRANCH  25  27
HETATM   27  C13 UNL     1      14.304  73.684  13.306  1.00  0.00     0.027 C
BRANCH  27  28
HETATM   28  C14 UNL     1      14.213  72.476  12.406  1.00  0.00    -0.009 C
HETATM   29  C15 UNL     1      13.079  72.691  11.433  1.00  0.00     0.031 C
HETATM   30  C16 UNL     1      12.922  71.409  10.627  1.00  0.00     0.168 C
HETATM   31  O4  UNL     1      12.617  70.378  11.484  1.00  0.00    -0.391 OA
HETATM   32  C17 UNL     1      13.740  70.077  12.260  1.00  0.00     0.168 C
HETATM   33  C18 UNL     1      13.917  71.232  13.218  1.00  0.00     0.031 C
ENDBRANCH  27  28
ENDBRANCH  25  27
ENDBRANCH  18  21
ENDBRANCH  16  18
ENDBRANCH  10  14
TORSDOF 6
ENDMDL