MODEL 3
REMARK VINA RESULT: -6.674479371      2.224      4.530
REMARK  6 active torsions:
REMARK  status: ('A' for Active; 'I' for Inactive)
REMARK    1  A    between atoms: C9_11  and  O3_12
REMARK    2  A    between atoms: C18_22  and  C19_23
REMARK    3  A    between atoms: C19_23  and  O4_24
REMARK    4  A    between atoms: O4_24  and  C20_25
REMARK    5  A    between atoms: C20_25  and  C21_27
REMARK    6  A    between atoms: C24_30  and  O6_31
ROOT
HETATM    1  C1  UNL     1      20.496  76.964  20.284  1.00  0.00     0.025 C
HETATM    2  C2  UNL     1      20.685  75.948  19.470  1.00  0.00     0.010 C
HETATM    3  C3  UNL     1      19.796  74.816  19.250  1.00  0.00     0.194 C
HETATM    4  O1  UNL     1      18.569  74.815  19.535  1.00  0.00    -0.289 OA
HETATM    5  C4  UNL     1      20.669  73.775  18.654  1.00  0.00     0.156 C
HETATM    6  O2  UNL     1      21.693  74.513  17.985  1.00  0.00    -0.359 OA
HETATM    7  C5  UNL     1      21.840  75.723  18.593  1.00  0.00     0.155 C
HETATM    8  C6  UNL     1      23.170  75.957  19.249  1.00  0.00     0.045 C
HETATM    9  C7  UNL     1      21.422  72.954  19.611  1.00  0.00     0.037 C
HETATM   10  C8  UNL     1      22.617  72.289  18.910  1.00  0.00     0.040 C
HETATM   11  C9  UNL     1      22.385  70.816  18.634  1.00  0.00     0.123 C
HETATM   12  C10 UNL     1      21.338  70.229  19.495  1.00  0.00     0.019 C
HETATM   13  C11 UNL     1      21.646  70.880  20.870  1.00  0.00     0.012 C
HETATM   14  C12 UNL     1      20.799  72.161  20.652  1.00  0.00    -0.006 C
HETATM   15  C13 UNL     1      19.510  71.475  20.438  1.00  0.00     0.011 C
HETATM   16  C14 UNL     1      19.920  70.471  19.359  1.00  0.00     0.001 C
HETATM   17  C15 UNL     1      19.231  70.760  18.081  1.00  0.00    -0.035 C
HETATM   18  C16 UNL     1      19.767  69.902  16.964  1.00  0.00     0.016 C
HETATM   19  C17 UNL     1      17.777  70.212  18.279  1.00  0.00     0.016 C
HETATM   20  C18 UNL     1      18.941  72.166  17.720  1.00  0.00     0.050 C
HETATM   21  C24 UNL     1      19.998  73.127  17.469  1.00  0.00     0.170 C
ENDROOT
BRANCH  21  22
HETATM   22  O6  UNL     1      20.911  72.753  16.500  1.00  0.00    -0.387 OA
HETATM   23  C25 UNL     1      20.763  73.201  15.236  1.00  0.00     0.202 C
ENDBRANCH  21  22
BRANCH  20  24
HETATM   24  C19 UNL     1      18.072  72.140  16.471  1.00  0.00     0.186 C
BRANCH  24  25
HETATM   25  O4  UNL     1      17.022  73.114  16.619  1.00  0.00    -0.321 OA
BRANCH  25  26
HETATM   26  C20 UNL     1      16.916  74.207  15.799  1.00  0.00     0.263 C
HETATM   27  O5  UNL     1      17.812  75.092  15.886  1.00  0.00    -0.265 OA
BRANCH  26  28
HETATM   28  C21 UNL     1      15.816  74.409  14.819  1.00  0.00     0.085 A
HETATM   29  C22 UNL     1      14.637  75.182  15.409  1.00  0.00     0.015 A
HETATM   30  C23 UNL     1      15.522  75.793  14.371  1.00  0.00     0.015 A
ENDBRANCH  26  28
ENDBRANCH  25  26
ENDBRANCH  24  25
ENDBRANCH  20  24
BRANCH  11  31
HETATM   31  O3  UNL     1      23.604  70.188  19.050  1.00  0.00    -0.395 OA
ATOM     32  H3  UNL     1      23.459  69.266  18.876  1.00  0.00     0.210 HD
ENDBRANCH  11  31
TORSDOF 6
ENDMDL