MODEL 3
REMARK VINA RESULT: -7.738435801      2.567      4.903
REMARK  6 active torsions:
REMARK  status: ('A' for Active; 'I' for Inactive)
REMARK    1  A    between atoms: C2_2  and  C5_5
REMARK    2  A    between atoms: C5_5  and  C8_8
REMARK    3  A    between atoms: C11_13  and  N2_14
REMARK    4  A    between atoms: C16_19  and  C17_20
REMARK       I    between atoms: C17_20  and  N3_22
REMARK    5  A    between atoms: N3_22  and  C18_24
REMARK    6  A    between atoms: C18_24  and  C19_25
ROOT
HETATM    1  N2  UNL     1      17.789  75.160  16.282  1.00  0.00    -0.365 N
HETATM    2  C12 UNL     1      17.432  76.570  16.217  1.00  0.00     0.127 C
HETATM    3  C13 UNL     1      15.926  76.752  16.237  1.00  0.00     0.051 C
HETATM    4  C14 UNL     1      15.311  76.325  14.926  1.00  0.00     0.124 C
HETATM    5  C15 UNL     1      14.282  75.250  15.086  1.00  0.00     0.048 C
HETATM    6  C16 UNL     1      15.059  74.012  14.764  1.00  0.00     0.111 C
HETATM    7  C23 UNL     1      16.405  74.475  14.348  1.00  0.00     0.153 C
HETATM    8  C24 UNL     1      17.484  74.125  15.352  1.00  0.00     0.157 C
HETATM    9  O3  UNL     1      16.285  75.805  14.075  1.00  0.00    -0.378 OA
ENDROOT
BRANCH   1  10
HETATM   10  C11 UNL     1      18.536  74.848  17.451  1.00  0.00     0.105 A
HETATM   11  C10 UNL     1      19.031  75.863  18.239  1.00  0.00     0.065 A
HETATM   12  C9  UNL     1      19.747  75.538  19.362  1.00  0.00     0.093 A
HETATM   13  N1  UNL     1      19.947  74.260  19.662  1.00  0.00    -0.355 N
HETATM   14  C8  UNL     1      19.484  73.238  18.923  1.00  0.00     0.091 A
ATOM     15  H1  UNL     1      20.482  74.041  20.503  1.00  0.00     0.166 HD
HETATM   16  N4  UNL     1      18.784  73.578  17.825  1.00  0.00    -0.332 N
ATOM     17  H4  UNL     1      18.418  72.827  17.240  1.00  0.00     0.168 HD
BRANCH  14  18
HETATM   18  C5  UNL     1      19.688  71.822  19.234  1.00  0.00     0.018 C
HETATM   19  C6  UNL     1      20.001  71.682  20.705  1.00  0.00     0.024 C
HETATM   20  C7  UNL     1      18.355  71.125  18.980  1.00  0.00     0.024 C
BRANCH  18  21
HETATM   21  C2  UNL     1      20.806  71.177  18.471  1.00  0.00    -0.037 C
HETATM   22  C1  UNL     1      21.410  70.113  19.363  1.00  0.00     0.015 C
HETATM   23  C3  UNL     1      20.398  70.545  17.185  1.00  0.00     0.015 C
HETATM   24  C4  UNL     1      21.917  72.163  18.155  1.00  0.00     0.015 C
ENDBRANCH  18  21
ENDBRANCH  14  18
ENDBRANCH   1  10
BRANCH   6  25
HETATM   25  C17 UNL     1      14.376  73.374  13.554  1.00  0.00     0.228 C
HETATM   26  O1  UNL     1      13.767  74.163  12.834  1.00  0.00    -0.273 OA
HETATM   27  N3  UNL     1      14.473  72.012  13.347  1.00  0.00    -0.338 N
ATOM     28  H3  UNL     1      15.009  71.509  14.054  1.00  0.00     0.167 HD
BRANCH  27  29
HETATM   29  C18 UNL     1      13.950  71.210  12.319  1.00  0.00     0.095 C
BRANCH  29  30
HETATM   30  C19 UNL     1      13.478  69.835  12.563  1.00  0.00     0.159 C
HETATM   31  C20 UNL     1      14.420  68.728  12.774  1.00  0.00     0.039 C
HETATM   32  C21 UNL     1      14.028  68.259  14.193  1.00  0.00     0.029 C
HETATM   33  C22 UNL     1      12.533  68.542  14.111  1.00  0.00     0.168 C
HETATM   34  O2  UNL     1      12.444  69.767  13.513  1.00  0.00    -0.381 OA
ENDBRANCH  29  30
ENDBRANCH  27  29
ENDBRANCH   6  25
TORSDOF 6
ENDMDL