MODEL 5
REMARK VINA RESULT: -6.877415561      1.909      4.933
REMARK  6 active torsions:
REMARK  status: ('A' for Active; 'I' for Inactive)
REMARK    1  A    between atoms: C3_3  and  C4_4
REMARK    2  A    between atoms: C4_4  and  O1_5
REMARK    3  A    between atoms: C4_4  and  C5_7
REMARK    4  A    between atoms: C5_7  and  C7_9
REMARK    5  A    between atoms: C22_26  and  C24_28
REMARK    6  A    between atoms: C24_28  and  O5_30
ROOT
HETATM    1  C7  UNL     1      19.199  71.038  17.685  1.00  0.00     0.016 C
HETATM    2  C8  UNL     1      17.959  71.894  17.930  1.00  0.00     0.007 C
HETATM    3  C9  UNL     1      18.219  73.016  18.875  1.00  0.00     0.014 C
HETATM    4  C10 UNL     1      19.514  73.790  18.586  1.00  0.00     0.033 C
HETATM    5  C11 UNL     1      19.250  75.204  18.871  1.00  0.00     0.129 C
HETATM    6  C12 UNL     1      19.495  76.277  17.937  1.00  0.00     0.065 C
HETATM    7  C13 UNL     1      20.627  76.581  18.887  1.00  0.00     0.131 C
HETATM    8  C14 UNL     1      21.949  76.059  18.451  1.00  0.00     0.110 C
HETATM    9  C15 UNL     1      21.726  75.261  17.195  1.00  0.00     0.130 C
HETATM   10  O2  UNL     1      22.082  75.968  16.261  1.00  0.00    -0.298 OA
HETATM   11  C16 UNL     1      21.245  73.973  16.729  1.00  0.00     0.097 C
HETATM   12  C17 UNL     1      20.058  73.337  17.313  1.00  0.00     0.051 C
HETATM   13  C18 UNL     1      18.918  73.343  16.330  1.00  0.00     0.146 C
HETATM   14  O3  UNL     1      18.918  73.944  15.275  1.00  0.00    -0.296 OA
HETATM   15  C19 UNL     1      17.647  72.578  16.595  1.00  0.00     0.018 C
HETATM   16  C20 UNL     1      16.529  73.597  16.731  1.00  0.00     0.023 C
HETATM   17  C21 UNL     1      17.246  71.649  15.516  1.00  0.00     0.023 C
HETATM   18  C22 UNL     1      20.429  71.830  17.421  1.00  0.00     0.064 C
HETATM   19  C23 UNL     1      20.918  71.531  15.974  1.00  0.00     0.028 C
HETATM   20  O6  UNL     1      20.138  75.734  19.848  1.00  0.00    -0.380 OA
ENDROOT
BRANCH   1  21
HETATM   21  C5  UNL     1      19.247  69.770  18.418  1.00  0.00     0.020 C
HETATM   22  C6  UNL     1      18.591  68.681  17.540  1.00  0.00     0.013 C
BRANCH  21  23
HETATM   23  C4  UNL     1      18.635  69.613  19.747  1.00  0.00     0.144 C
BRANCH  23  24
HETATM   24  C3  UNL     1      19.762  69.265  20.701  1.00  0.00     0.000 C
HETATM   25  C2  UNL     1      20.147  70.192  21.553  1.00  0.00    -0.033 C
HETATM   26  C1  UNL     1      21.245  69.969  22.540  1.00  0.00     0.036 C
ENDBRANCH  23  24
BRANCH  23  27
HETATM   27  O1  UNL     1      17.855  68.419  19.805  1.00  0.00    -0.391 OA
ATOM     28  H1  UNL     1      18.210  67.937  19.067  1.00  0.00     0.210 HD
ENDBRANCH  23  27
ENDBRANCH  21  23
ENDBRANCH   1  21
BRANCH  18  29
HETATM   29  C24 UNL     1      21.598  71.583  18.240  1.00  0.00     0.268 C
HETATM   30  O4  UNL     1      22.559  70.886  17.730  1.00  0.00    -0.264 OA
BRANCH  29  31
HETATM   31  O5  UNL     1      21.935  71.939  19.510  1.00  0.00    -0.326 OA
HETATM   32  C25 UNL     1      22.923  72.810  19.939  1.00  0.00     0.213 C
ENDBRANCH  29  31
ENDBRANCH  18  29
TORSDOF 6
ENDMDL