MODEL 4
REMARK VINA RESULT: -7.231216480      1.659      5.109
REMARK  5 active torsions:
REMARK  status: ('A' for Active; 'I' for Inactive)
REMARK    1  A    between atoms: O1_2  and  C2_3
REMARK    2  A    between atoms: C4_5  and  C5_6
REMARK    3  A    between atoms: C17_21  and  O5_22
REMARK    4  A    between atoms: C18_24  and  O6_25
REMARK    5  A    between atoms: O6_25  and  C19_26
ROOT
HETATM    1  C2  UNL     1      19.557  73.254  18.708  1.00  0.00     0.195 C
HETATM    2  C3  UNL     1      20.907  72.543  19.023  1.00  0.00     0.083 C
HETATM    3  C4  UNL     1      21.250  72.229  20.403  1.00  0.00    -0.064 C
HETATM    4  C8  UNL     1      20.590  71.156  20.832  1.00  0.00     0.019 C
HETATM    5  C9  UNL     1      19.795  70.763  19.742  1.00  0.00     0.017 C
HETATM    6  C10 UNL     1      18.957  69.616  19.639  1.00  0.00     0.162 C
HETATM    7  O2  UNL     1      18.979  68.774  20.472  1.00  0.00    -0.292 OA
HETATM    8  C11 UNL     1      17.987  69.326  18.534  1.00  0.00     0.118 C
HETATM    9  C12 UNL     1      18.353  70.159  17.270  1.00  0.00     0.164 C
HETATM   10  O3  UNL     1      18.808  71.303  17.416  1.00  0.00    -0.344 OA
HETATM   11  C13 UNL     1      18.799  72.558  17.590  1.00  0.00     0.191 C
HETATM   12  C14 UNL     1      17.356  73.061  17.676  1.00  0.00     0.073 C
HETATM   13  C15 UNL     1      16.967  73.039  16.214  1.00  0.00     0.032 C
HETATM   14  C16 UNL     1      18.261  73.083  15.483  1.00  0.00     0.171 C
HETATM   15  O4  UNL     1      19.285  73.187  16.400  1.00  0.00    -0.353 OA
HETATM   16  C17 UNL     1      19.238  69.201  16.516  1.00  0.00     0.180 C
HETATM   17  C18 UNL     1      20.679  69.123  16.964  1.00  0.00     0.176 C
HETATM   18  C24 UNL     1      21.002  70.560  17.450  1.00  0.00     0.016 C
HETATM   19  C25 UNL     1      20.636  71.150  18.557  1.00  0.00    -0.035 C
ENDROOT
BRANCH  17  20
HETATM   20  O6  UNL     1      21.034  68.269  17.924  1.00  0.00    -0.374 OA
BRANCH  20  21
HETATM   21  C19 UNL     1      22.271  67.695  17.843  1.00  0.00     0.122 C
HETATM   22  C20 UNL     1      22.541  66.918  19.106  1.00  0.00     0.032 C
HETATM   23  C21 UNL     1      22.777  68.039  20.112  1.00  0.00     0.002 C
HETATM   24  C22 UNL     1      23.678  68.967  19.355  1.00  0.00     0.002 C
HETATM   25  C23 UNL     1      23.396  68.729  17.886  1.00  0.00     0.032 C
ENDBRANCH  20  21
ENDBRANCH  17  20
BRANCH  16  26
HETATM   26  O5  UNL     1      18.694  67.946  16.546  1.00  0.00    -0.390 OA
ATOM     27  H5  UNL     1      19.251  67.342  16.068  1.00  0.00     0.210 HD
ENDBRANCH  16  26
BRANCH   1  28
HETATM   28  O1  UNL     1      19.905  74.553  18.276  1.00  0.00    -0.384 OA
HETATM   29  C1  UNL     1      19.649  75.539  19.201  1.00  0.00     0.202 C
ENDBRANCH   1  28
BRANCH   3  30
HETATM   30  C5  UNL     1      22.219  72.968  21.317  1.00  0.00     0.007 C
HETATM   31  C6  UNL     1      22.840  74.138  20.566  1.00  0.00     0.014 C
HETATM   32  C7  UNL     1      23.326  72.088  21.783  1.00  0.00     0.014 C
ENDBRANCH   3  30
TORSDOF 5
ENDMDL