MODEL 4
REMARK VINA RESULT: -7.421995906      4.272      4.914
REMARK  6 active torsions:
REMARK  status: ('A' for Active; 'I' for Inactive)
REMARK    1  A    between atoms: N1_2  and  C2_4
REMARK    2  A    between atoms: C2_4  and  O1_5
REMARK    3  A    between atoms: C2_4  and  C3_7
REMARK    4  A    between atoms: C4_9  and  N2_10
REMARK    5  A    between atoms: N3_13  and  C7_14
REMARK    6  A    between atoms: N4_17  and  C10_18
ROOT
HETATM    1  N2  UNL     1      17.740  72.372  15.865  1.00  0.00    -0.352 N
HETATM    2  C5  UNL     1      19.013  73.012  16.046  1.00  0.00     0.169 C
HETATM    3  C6  UNL     1      19.133  73.406  17.488  1.00  0.00     0.083 C
HETATM    4  N3  UNL     1      18.721  72.500  18.460  1.00  0.00    -0.366 N
HETATM    5  C20 UNL     1      17.624  71.687  18.167  1.00  0.00     0.083 C
HETATM    6  C21 UNL     1      17.420  71.271  16.744  1.00  0.00     0.169 C
ENDROOT
BRANCH   4   7
HETATM    7  C7  UNL     1      19.441  72.319  19.650  1.00  0.00     0.091 C
HETATM    8  C8  UNL     1      20.448  73.423  19.833  1.00  0.00     0.056 C
HETATM    9  C9  UNL     1      21.629  73.111  20.665  1.00  0.00     0.275 C
HETATM   10  N4  UNL     1      21.578  72.009  21.534  1.00  0.00     0.093 N
HETATM   11  C18 UNL     1      20.652  70.977  21.238  1.00  0.00     0.275 C
HETATM   12  C19 UNL     1      20.212  71.033  19.767  1.00  0.00     0.056 C
BRANCH  10  13
HETATM   13  C10 UNL     1      22.840  71.445  21.885  1.00  0.00     0.223 C
HETATM   14  C11 UNL     1      23.917  72.432  22.227  1.00  0.00     0.036 C
HETATM   15  C12 UNL     1      25.198  71.655  22.474  1.00  0.00     0.011 C
HETATM   16  C13 UNL     1      24.989  70.866  23.751  1.00  0.00    -0.048 C
HETATM   17  C14 UNL     1      26.250  70.170  24.182  1.00  0.00     0.015 C
HETATM   18  C15 UNL     1      24.555  71.757  24.891  1.00  0.00     0.015 C
HETATM   19  C16 UNL     1      23.938  69.812  23.435  1.00  0.00     0.011 C
HETATM   20  C17 UNL     1      22.639  70.419  22.980  1.00  0.00     0.036 C
ENDBRANCH  10  13
ENDBRANCH   4   7
BRANCH   1  21
HETATM   21  C4  UNL     1      16.766  72.715  14.884  1.00  0.00     0.148 A
HETATM   22  S1  UNL     1      16.245  71.966  13.451  1.00  0.00    -0.048 SA
HETATM   23  C3  UNL     1      15.072  73.151  12.933  1.00  0.00     0.081 A
HETATM   24  C22 UNL     1      15.186  74.061  13.951  1.00  0.00     0.029 A
HETATM   25  N5  UNL     1      16.037  73.806  14.900  1.00  0.00    -0.339 N
HETATM   26  C23 UNL     1      14.352  75.336  14.000  1.00  0.00     0.070 C
ATOM     27  H5  UNL     1      16.139  74.466  15.670  1.00  0.00     0.168 HD
BRANCH  23  28
HETATM   28  C2  UNL     1      14.241  73.094  11.742  1.00  0.00     0.155 C
BRANCH  28  29
HETATM   29  N1  UNL     1      12.983  72.583  11.588  1.00  0.00    -0.374 N
HETATM   30  C1  UNL     1      12.747  71.338  10.847  1.00  0.00     0.148 C
ATOM     31  H1  UNL     1      12.191  73.077  11.998  1.00  0.00     0.161 HD
ENDBRANCH  28  29
BRANCH  28  32
HETATM   32  O1  UNL     1      14.800  73.613  10.683  1.00  0.00    -0.345 OA
ATOM     33  H1  UNL     1      15.509  74.227  10.830  1.00  0.00     0.219 HD
ENDBRANCH  28  32
ENDBRANCH  23  28
ENDBRANCH   1  21
TORSDOF 6
ENDMDL