MODEL 5
REMARK VINA RESULT: -5.469496424      2.609      3.449
REMARK  2 active torsions:
REMARK  status: ('A' for Active; 'I' for Inactive)
REMARK    1  A    between atoms: C2_4  and  C3_5
REMARK    2  A    between atoms: N1_6  and  N2_8
ROOT
HETATM    1  C3  UNL     1     -27.220  -9.689   0.184  1.00  0.00     0.093 C
HETATM    2  N1  UNL     1     -26.124 -10.364   0.161  1.00  0.00    -0.317 N
ATOM      3  H1  UNL     1     -26.162 -11.314  -0.208  1.00  0.00     0.185 HD
ENDROOT
BRANCH   1   4
HETATM    4  C2  UNL     1     -28.420 -10.366  -0.333  1.00  0.00     0.138 C
HETATM    5  C1  UNL     1     -29.343 -10.823   0.807  1.00  0.00     0.446 C
HETATM    6  F1  UNL     1     -28.785 -10.584   2.023  1.00  0.00    -0.172 F
HETATM    7  F2  UNL     1     -29.721 -12.113   0.601  1.00  0.00    -0.172 F
HETATM    8  N3  UNL     1     -30.504  -9.956   0.562  1.00  0.00     0.162 N
HETATM    9  C9  UNL     1     -30.650 -10.076  -0.904  1.00  0.00     0.287 C
HETATM   10  C10 UNL     1     -29.893  -8.648   0.251  1.00  0.00     0.287 C
HETATM   11  C8  UNL     1     -29.324  -9.333  -0.944  1.00  0.00     0.059 C
ENDBRANCH   1   4
BRANCH   2  12
HETATM   12  N2  UNL     1     -24.910  -9.903   0.598  1.00  0.00    -0.324 N
HETATM   13  C4  UNL     1     -23.950 -10.858   1.127  1.00  0.00     0.168 C
HETATM   14  C5  UNL     1     -22.702 -10.701   0.283  1.00  0.00     0.189 C
HETATM   15  O1  UNL     1     -22.278  -9.411   0.153  1.00  0.00    -0.388 OA
HETATM   16  C6  UNL     1     -22.990  -8.469   0.837  1.00  0.00     0.189 C
HETATM   17  C7  UNL     1     -24.479  -8.521   0.582  1.00  0.00     0.168 C
ENDBRANCH   2  12
TORSDOF 2
ENDMDL