MODEL 4
REMARK VINA RESULT: -4.932167896      0.696      2.105
REMARK  3 active torsions:
REMARK  status: ('A' for Active; 'I' for Inactive)
REMARK    1  A    between atoms: C6_7  and  O1_8
REMARK    2  A    between atoms: O1_8  and  C7_9
REMARK    3  A    between atoms: C7_9  and  C8_10
ROOT
HETATM    1  C1  UNL     1     -25.086  -6.722   0.024  1.00  0.00     0.158 C
HETATM    2  N1  UNL     1     -25.953  -7.829   0.258  1.00  0.00    -0.342 N
HETATM    3  C2  UNL     1     -27.266  -7.685   0.017  1.00  0.00     0.092 A
HETATM    4  C3  UNL     1     -28.183  -8.683   0.207  1.00  0.00     0.017 A
HETATM    5  C4  UNL     1     -27.752  -9.904   0.670  1.00  0.00     0.006 A
HETATM    6  C5  UNL     1     -26.388 -10.038   0.914  1.00  0.00     0.056 A
HETATM    7  C6  UNL     1     -25.498  -9.016   0.712  1.00  0.00     0.144 A
ENDROOT
BRANCH   7   8
HETATM    8  O1  UNL     1     -24.180  -9.179   0.959  1.00  0.00    -0.331 OA
BRANCH   8   9
HETATM    9  C7  UNL     1     -23.430 -10.302   1.233  1.00  0.00     0.222 C
BRANCH   9  10
HETATM   10  C8  UNL     1     -22.973 -10.916  -0.043  1.00  0.00     0.095 C
HETATM   11  N2  UNL     1     -23.710 -11.831  -0.554  1.00  0.00    -0.335 N
HETATM   12 BR1  UNL     1     -23.274 -12.702  -2.154  1.00  0.00     0.046 Br
ATOM     13  H2  UNL     1     -24.569 -12.096  -0.071  1.00  0.00     0.172 HD
ENDBRANCH   9  10
ENDBRANCH   8   9
ENDBRANCH   7   8
TORSDOF 3
ENDMDL