MODEL 3
REMARK VINA RESULT: -5.020766839      3.312      4.640
REMARK  3 active torsions:
REMARK  status: ('A' for Active; 'I' for Inactive)
REMARK    1  A    between atoms: N1_2  and  C1_4
REMARK    2  A    between atoms: C1_4  and  C2_5
REMARK    3  A    between atoms: C2_5  and  C3_6
ROOT
HETATM    1  C3  UNL     1     -24.612  -9.855   0.784  1.00  0.00    -0.017 A
HETATM    2  C4  UNL     1     -23.918 -10.998   0.455  1.00  0.00     0.029 A
HETATM    3  C5  UNL     1     -22.566 -10.945   0.111  1.00  0.00     0.107 A
HETATM    4  N2  UNL     1     -21.995  -9.732   0.124  1.00  0.00    -0.311 N
ATOM      5  H2  UNL     1     -21.007  -9.664  -0.122  1.00  0.00     0.186 HD
HETATM    6  N3  UNL     1     -22.636  -8.620   0.436  1.00  0.00    -0.294 N
ATOM      7  H3  UNL     1     -22.140  -7.729   0.425  1.00  0.00     0.187 HD
HETATM    8  C6  UNL     1     -23.936  -8.657   0.768  1.00  0.00     0.101 A
HETATM    9 BR1  UNL     1     -24.942  -7.091   1.243  1.00  0.00    -0.029 Br
ENDROOT
BRANCH   1  10
HETATM   10  C2  UNL     1     -26.041  -9.928   1.129  1.00  0.00     0.092 C
BRANCH  10  11
HETATM   11  C1  UNL     1     -26.847 -10.006  -0.123  1.00  0.00     0.145 C
BRANCH  11  12
HETATM   12  N1  UNL     1     -27.738  -9.132  -0.417  1.00  0.00    -0.131 N
HETATM   13  O1  UNL     1     -28.307  -8.415   0.605  1.00  0.00    -0.533 OA
HETATM   14  O2  UNL     1     -28.148  -8.884  -1.695  1.00  0.00    -0.533 OA
ENDBRANCH  11  12
ENDBRANCH  10  11
ENDBRANCH   1  10
TORSDOF 3
ENDMDL