MODEL 5
REMARK VINA RESULT: -4.532570765      6.384      7.290
REMARK  2 active torsions:
REMARK  status: ('A' for Active; 'I' for Inactive)
REMARK    1  A    between atoms: N1_2  and  C1_4
REMARK    2  A    between atoms: N2_9  and  O3_10
ROOT
HETATM    1  C1  UNL     1     -29.481 -10.936  -2.510  1.00  0.00     0.122 A
HETATM    2  C2  UNL     1     -30.806 -11.168  -2.868  1.00  0.00     0.058 A
HETATM    3  C3  UNL     1     -31.282 -12.455  -2.907  1.00  0.00     0.031 A
HETATM    4 BR1  UNL     1     -33.103 -12.843  -3.394  1.00  0.00    -0.050 Br
HETATM    5  C4  UNL     1     -30.400 -13.462  -2.582  1.00  0.00     0.141 A
HETATM    6  N2  UNL     1     -29.135 -13.228  -2.241  1.00  0.00    -0.244 N
HETATM    7  C5  UNL     1     -28.648 -11.977  -2.196  1.00  0.00     0.158 A
ENDROOT
BRANCH   1   8
HETATM    8  N1  UNL     1     -28.973  -9.603  -2.465  1.00  0.00    -0.114 N
HETATM    9  O1  UNL     1     -28.072  -9.235  -1.702  1.00  0.00    -0.532 OA
HETATM   10  O2  UNL     1     -29.507  -8.669  -3.313  1.00  0.00    -0.532 OA
ENDBRANCH   1   8
BRANCH   6  11
HETATM   11  O3  UNL     1     -28.281 -14.279  -1.922  1.00  0.00    -0.284 OA
ATOM     12  H3  UNL     1     -27.353 -14.225  -2.118  1.00  0.00     0.245 HD
ENDBRANCH   6  11
TORSDOF 2
ENDMDL