MODEL 2
REMARK VINA RESULT: -4.404548829      3.458      5.100
REMARK  1 active torsions:
REMARK  status: ('A' for Active; 'I' for Inactive)
REMARK    1  A    between atoms: C2_2  and  C3_3
ROOT
HETATM    1  C3  UNL     1     -24.220 -10.138   0.924  1.00  0.00     0.185 C
HETATM    2  O1  UNL     1     -24.420 -11.008  -0.199  1.00  0.00    -0.308 OA
HETATM    3  C4  UNL     1     -23.378 -11.623  -0.856  1.00  0.00     0.276 C
HETATM    4  O2  UNL     1     -23.464 -12.738  -1.438  1.00  0.00    -0.264 OA
HETATM    5  C5  UNL     1     -22.074 -10.908  -0.868  1.00  0.00     0.189 C
HETATM    6 BR1  UNL     1     -20.696 -12.058  -1.618  1.00  0.00    -0.078 Br
HETATM    7  C6  UNL     1     -21.764 -10.510   0.533  1.00  0.00     0.178 A
HETATM    8  O3  UNL     1     -21.915  -9.178   0.939  1.00  0.00    -0.371 OA
HETATM    9  C7  UNL     1     -22.816 -10.158   1.411  1.00  0.00     0.186 A
ENDROOT
BRANCH   1  10
HETATM   10  C2  UNL     1     -24.729  -8.774   0.620  1.00  0.00    -0.002 C
HETATM   11  C1  UNL     1     -25.002  -7.892   1.577  1.00  0.00     0.009 C
ENDBRANCH   1  10
TORSDOF 1
ENDMDL