MODEL 4
REMARK VINA RESULT: -4.593583481      3.361      4.206
REMARK  2 active torsions:
REMARK  status: ('A' for Active; 'I' for Inactive)
REMARK    1  A    between atoms: C2_3  and  C3_4
REMARK    2  A    between atoms: C3_4  and  N2_5
ROOT
HETATM    1  N1  UNL     1     -23.197 -11.866  -4.575  1.00  0.00    -0.197 NA
HETATM    2  C1  UNL     1     -23.345 -12.279  -3.506  1.00  0.00     0.060 C
HETATM    3  C2  UNL     1     -23.541 -12.826  -2.154  1.00  0.00     0.145 C
ENDROOT
BRANCH   3   4
HETATM    4  C3  UNL     1     -22.295 -12.582  -1.370  1.00  0.00     0.162 C
BRANCH   4   5
HETATM    5  N2  UNL     1     -22.391 -11.347  -0.565  1.00  0.00    -0.295 N
HETATM    6  C4  UNL     1     -23.551 -10.851  -0.173  1.00  0.00     0.138 A
HETATM    7  C5  UNL     1     -23.504  -9.700   0.569  1.00  0.00     0.086 A
HETATM    8 BR1  UNL     1     -24.992  -8.711   1.302  1.00  0.00    -0.040 Br
HETATM    9  S1  UNL     1     -21.832  -9.402   0.660  1.00  0.00     0.011 SA
HETATM   10  N3  UNL     1     -21.301 -10.722  -0.226  1.00  0.00    -0.267 N
ATOM     11  H3  UNL     1     -20.339 -10.978  -0.450  1.00  0.00     0.196 HD
ENDBRANCH   4   5
ENDBRANCH   3   4
TORSDOF 2
ENDMDL