MODEL 3
REMARK VINA RESULT: -4.052885271      2.637      3.656
REMARK  2 active torsions:
REMARK  status: ('A' for Active; 'I' for Inactive)
REMARK    1  A    between atoms: C3_3  and  O1_4
REMARK    2  A    between atoms: O1_4  and  C4_5
ROOT
HETATM    1  C1  UNL     1     -24.232  -7.604   0.822  1.00  0.00     0.099 C
HETATM    2  C2  UNL     1     -24.866  -8.649   0.812  1.00  0.00    -0.162 C
HETATM    3  C3  UNL     1     -25.604  -9.899   0.794  1.00  0.00     0.247 C
ENDROOT
BRANCH   3   4
HETATM    4  O1  UNL     1     -26.980  -9.644   0.885  1.00  0.00    -0.369 OA
BRANCH   4   5
HETATM    5  C4  UNL     1     -27.555 -10.049  -0.288  1.00  0.00     0.196 C
HETATM    6  C5  UNL     1     -28.784 -10.938  -0.070  1.00  0.00     0.188 C
HETATM    7  C6  UNL     1     -29.639 -10.416   1.057  1.00  0.00     0.045 C
HETATM    8  O2  UNL     1     -29.440 -10.698  -1.301  1.00  0.00    -0.232 OA
HETATM    9  O3  UNL     1     -29.443  -9.404  -1.399  1.00  0.00    -0.221 OA
HETATM   10  C7  UNL     1     -28.183  -8.935  -1.085  1.00  0.00     0.263 C
HETATM   11 BR1  UNL     1     -28.372  -7.376   0.054  1.00  0.00    -0.055 Br
ENDBRANCH   4   5
ENDBRANCH   3   4
TORSDOF 2
ENDMDL