MODEL 4
REMARK VINA RESULT: -4.470223094      2.264      3.193
REMARK  2 active torsions:
REMARK  status: ('A' for Active; 'I' for Inactive)
REMARK    1  A    between atoms: N2_6  and  C5_7
REMARK    2  A    between atoms: C5_7  and  C6_8
ROOT
HETATM    1  N1  UNL     1     -22.165 -11.291  -1.508  1.00  0.00    -0.194 NA
HETATM    2  C1  UNL     1     -22.493 -10.885  -0.478  1.00  0.00     0.095 C
HETATM    3  C2  UNL     1     -22.924 -10.356   0.855  1.00  0.00     0.254 C
HETATM    4  C3  UNL     1     -24.256 -10.862   1.199  1.00  0.00     0.036 C
HETATM    5  C4  UNL     1     -25.291 -10.030   1.167  1.00  0.00     0.087 C
HETATM    6  N2  UNL     1     -25.006  -8.693   0.797  1.00  0.00    -0.368 N
HETATM    7  C7  UNL     1     -23.715  -8.191   1.294  1.00  0.00     0.294 C
HETATM    8  O1  UNL     1     -22.744  -9.017   0.827  1.00  0.00    -0.349 OA
ENDROOT
BRANCH   6   9
HETATM    9  C5  UNL     1     -25.922  -7.917   0.010  1.00  0.00     0.135 C
BRANCH   9  10
HETATM   10  C6  UNL     1     -25.633  -6.431   0.015  1.00  0.00     0.105 C
HETATM   11 BR1  UNL     1     -26.871  -5.617   1.262  1.00  0.00    -0.095 Br
ENDBRANCH   9  10
ENDBRANCH   6   9
TORSDOF 2
ENDMDL