MODEL 5
REMARK VINA RESULT: -4.558910844      2.550      5.271
REMARK  4 active torsions:
REMARK  status: ('A' for Active; 'I' for Inactive)
REMARK    1  A    between atoms: S1_2  and  C2_3
REMARK    2  A    between atoms: C4_5  and  O1_6
REMARK    3  A    between atoms: C5_8  and  O2_9
REMARK    4  A    between atoms: O2_9  and  C6_10
ROOT
HETATM    1  C2  UNL     1     -23.781 -10.323   0.887  1.00  0.00     0.051 C
HETATM    2  C3  UNL     1     -25.074 -11.070   0.804  1.00  0.00     0.049 C
HETATM    3  C4  UNL     1     -26.157 -10.037   0.486  1.00  0.00     0.148 C
HETATM    4  C5  UNL     1     -25.488  -8.764   0.948  1.00  0.00     0.151 C
HETATM    5  C9  UNL     1     -24.108  -8.944   0.346  1.00  0.00     0.049 C
ENDROOT
BRANCH   4   6
HETATM    6  O2  UNL     1     -26.118  -7.624   0.580  1.00  0.00    -0.378 OA
BRANCH   6   7
HETATM    7  C6  UNL     1     -26.804  -6.973   1.588  1.00  0.00     0.122 A
HETATM    8  C7  UNL     1     -27.245  -5.565   1.222  1.00  0.00     0.034 A
HETATM    9  C8  UNL     1     -28.251  -6.682   1.288  1.00  0.00     0.034 A
ENDBRANCH   6   7
ENDBRANCH   4   6
BRANCH   3  10
HETATM   10  O1  UNL     1     -27.311 -10.252   1.199  1.00  0.00    -0.393 OA
ATOM     11  H1  UNL     1     -27.285 -11.061   1.696  1.00  0.00     0.210 HD
ENDBRANCH   3  10
BRANCH   1  12
HETATM   12  S1  UNL     1     -22.455 -11.118  -0.042  1.00  0.00    -0.169 SA
HETATM   13  C1  UNL     1     -23.163 -11.935  -1.482  1.00  0.00     0.090 C
ENDBRANCH   1  12
TORSDOF 4
ENDMDL