MODEL 2
REMARK VINA RESULT: -6.296342460      1.031      1.277
REMARK  3 active torsions:
REMARK  status: ('A' for Active; 'I' for Inactive)
REMARK    1  A    between atoms: C4_6  and  N1_7
REMARK    2  A    between atoms: N1_7  and  C5_10
REMARK    3  A    between atoms: C5_10  and  C6_11
ROOT
HETATM    1  N1  UNL     1     -25.017  -9.537   1.164  1.00  0.00    -0.061 N
ATOM      2  H11 UNL     1     -24.918  -8.583   0.817  1.00  0.00     0.278 HD
ATOM      3  H12 UNL     1     -25.142  -9.308   2.149  1.00  0.00     0.278 HD
ENDROOT
BRANCH   1   4
HETATM    4  C4  UNL     1     -23.849 -10.355   0.916  1.00  0.00     0.286 C
HETATM    5  C1  UNL     1     -22.669  -9.584   0.508  1.00  0.00     0.289 C
HETATM    6  O1  UNL     1     -22.362  -8.369   0.722  1.00  0.00    -0.263 OA
HETATM    7  O2  UNL     1     -21.856 -10.454  -0.217  1.00  0.00    -0.320 OA
HETATM    8  C2  UNL     1     -22.588 -11.596  -0.614  1.00  0.00     0.181 C
HETATM    9  C3  UNL     1     -24.052 -11.253  -0.308  1.00  0.00     0.070 C
ENDBRANCH   1   4
BRANCH   1  10
HETATM   10  C5  UNL     1     -26.155 -10.231   0.595  1.00  0.00     0.238 C
BRANCH  10  11
HETATM   11  C6  UNL     1     -27.394  -9.330   0.603  1.00  0.00     0.011 C
HETATM   12  C7  UNL     1     -26.985  -7.918   0.162  1.00  0.00     0.006 C
HETATM   13  C8  UNL     1     -28.313  -7.362  -0.313  1.00  0.00     0.000 C
HETATM   14  C9  UNL     1     -28.840  -8.502  -1.162  1.00  0.00     0.000 C
HETATM   15  C10 UNL     1     -28.371  -9.748  -0.451  1.00  0.00     0.006 C
ENDBRANCH  10  11
ENDBRANCH   1  10
TORSDOF 3
ENDMDL