MODEL 4
REMARK VINA RESULT: -4.581157129      2.368      3.704
REMARK  4 active torsions:
REMARK  status: ('A' for Active; 'I' for Inactive)
REMARK    1  A    between atoms: C2_2  and  C3_3
REMARK    2  A    between atoms: C3_3  and  C4_4
REMARK    3  A    between atoms: C4_4  and  O1_5
REMARK    4  A    between atoms: N1_11  and  C9_12
ROOT
HETATM    1  C4  UNL     1     -27.767 -10.002   0.393  1.00  0.00     0.191 C
HETATM    2  C5  UNL     1     -27.708  -8.549   0.068  1.00  0.00     0.071 C
HETATM    3  C6  UNL     1     -28.712  -8.063  -0.921  1.00  0.00     0.010 C
HETATM    4  C7  UNL     1     -30.127  -8.047  -0.459  1.00  0.00     0.047 C
HETATM    5  C8  UNL     1     -30.265  -8.594   0.947  1.00  0.00     0.095 C
HETATM    6  N1  UNL     1     -30.010  -9.970   0.915  1.00  0.00    -0.249 N
HETATM    7  O2  UNL     1     -28.822 -10.417   1.149  1.00  0.00    -0.235 OA
ENDROOT
BRANCH   1   8
HETATM    8  C3  UNL     1     -26.521 -10.290   1.254  1.00  0.00     0.097 C
BRANCH   8   9
HETATM    9  C2  UNL     1     -25.319  -9.972   0.445  1.00  0.00    -0.032 C
HETATM   10  C1  UNL     1     -24.232 -10.677   0.605  1.00  0.00     0.007 C
ENDBRANCH   8   9
ENDBRANCH   1   8
BRANCH   1  11
HETATM   11  O1  UNL     1     -27.578 -10.756  -0.763  1.00  0.00    -0.363 OA
ATOM     12  H1  UNL     1     -27.694 -10.137  -1.475  1.00  0.00     0.213 HD
ENDBRANCH   1  11
BRANCH   6  13
HETATM   13  C9  UNL     1     -31.094 -10.856   0.829  1.00  0.00     0.091 C
HETATM   14  C10 UNL     1     -30.820 -12.103   0.014  1.00  0.00     0.057 C
ENDBRANCH   6  13
TORSDOF 4
ENDMDL