MODEL 5
REMARK VINA RESULT: -5.358945451      2.155      2.979
REMARK  4 active torsions:
REMARK  status: ('A' for Active; 'I' for Inactive)
REMARK    1  A    between atoms: C2_2  and  C3_3
REMARK    2  A    between atoms: C2_2  and  N2_7
REMARK    3  A    between atoms: C3_3  and  C4_4
REMARK    4  A    between atoms: C10_13  and  N3_14
ROOT
HETATM    1  C4  UNL     1     -22.379 -12.105  -0.856  1.00  0.00     0.126 C
HETATM    2  C5  UNL     1     -21.644 -11.661  -2.019  1.00  0.00     0.059 C
HETATM    3  N1  UNL     1     -21.027 -11.321  -2.965  1.00  0.00    -0.197 NA
ENDROOT
BRANCH   1   4
HETATM    4  C3  UNL     1     -23.816 -11.782  -0.970  1.00  0.00     0.039 C
BRANCH   4   5
HETATM    5  C2  UNL     1     -24.296 -10.588  -0.186  1.00  0.00     0.078 C
HETATM    6  C1  UNL     1     -23.308 -10.450   0.975  1.00  0.00     0.032 C
BRANCH   5   7
HETATM    7  N2  UNL     1     -25.616 -10.689   0.208  1.00  0.00    -0.390 N
HETATM    8  C6  UNL     1     -26.474  -9.812   0.478  1.00  0.00     0.013 C
HETATM    9  C7  UNL     1     -27.868 -10.143   0.891  1.00  0.00     0.054 C
HETATM   10  C10 UNL     1     -26.424  -8.329   0.484  1.00  0.00     0.228 C
HETATM   11  C8  UNL     1     -28.700  -9.106   0.167  1.00  0.00     0.008 C
HETATM   12  C9  UNL     1     -27.841  -7.884   0.193  1.00  0.00     0.039 C
ATOM     13  H2  UNL     1     -25.955 -11.648   0.295  1.00  0.00     0.159 HD
BRANCH  10  14
HETATM   14  N3  UNL     1     -26.082  -7.795   1.796  1.00  0.00    -0.070 N
ATOM     15  H33 UNL     1     -26.456  -8.382   2.542  1.00  0.00     0.275 HD
ATOM     16  H32 UNL     1     -25.087  -7.902   1.990  1.00  0.00     0.275 HD
ATOM     17  H31 UNL     1     -26.378  -6.825   1.906  1.00  0.00     0.275 HD
ENDBRANCH  10  14
ENDBRANCH   5   7
ENDBRANCH   4   5
ENDBRANCH   1   4
TORSDOF 4
ENDMDL