MODEL 5
REMARK VINA RESULT: -5.098162441      2.110      2.574
REMARK  4 active torsions:
REMARK  status: ('A' for Active; 'I' for Inactive)
REMARK    1  A    between atoms: O1_1  and  C1_3
REMARK    2  A    between atoms: C1_3  and  C2_4
REMARK    3  A    between atoms: C4_7  and  C5_8
REMARK    4  A    between atoms: C5_8  and  C6_9
ROOT
HETATM    1  C2  UNL     1     -23.910 -10.250  -0.138  1.00  0.00     0.115 C
HETATM    2  C3  UNL     1     -24.739 -11.277   0.603  1.00  0.00     0.107 C
HETATM    3  S1  UNL     1     -26.205 -10.194   0.909  1.00  0.00    -0.115 SA
HETATM    4  C4  UNL     1     -25.286  -8.669   0.798  1.00  0.00     0.043 C
HETATM    5  N1  UNL     1     -24.200  -8.961   0.250  1.00  0.00    -0.380 N
ATOM      6  H1  UNL     1     -23.512  -8.226   0.087  1.00  0.00     0.160 HD
ENDROOT
BRANCH   4   7
HETATM    7  C5  UNL     1     -25.719  -7.354   1.255  1.00  0.00     0.069 C
BRANCH   7   8
HETATM    8  C6  UNL     1     -26.475  -6.498   0.305  1.00  0.00    -0.009 C
HETATM    9  C7  UNL     1     -27.657  -7.093  -0.376  1.00  0.00     0.005 C
HETATM   10  C8  UNL     1     -28.450  -6.802   0.906  1.00  0.00     0.001 C
HETATM   11  C9  UNL     1     -27.476  -5.631   1.096  1.00  0.00     0.005 C
ENDBRANCH   7   8
ENDBRANCH   4   7
BRANCH   1  12
HETATM   12  C1  UNL     1     -22.418 -10.483   0.145  1.00  0.00     0.189 C
BRANCH  12  13
HETATM   13  O1  UNL     1     -22.070 -11.768  -0.252  1.00  0.00    -0.399 OA
ATOM     14  H1  UNL     1     -21.975 -11.790  -1.198  1.00  0.00     0.209 HD
ENDBRANCH  12  13
ENDBRANCH   1  12
TORSDOF 4
ENDMDL