MODEL 3
REMARK VINA RESULT: -5.874414195      1.443      5.595
REMARK  4 active torsions:
REMARK  status: ('A' for Active; 'I' for Inactive)
REMARK    1  A    between atoms: N1_1  and  C1_5
REMARK    2  A    between atoms: C1_5  and  C2_6
REMARK    3  A    between atoms: C1_5  and  C7_13
REMARK    4  A    between atoms: C2_6  and  C3_7
ROOT
HETATM    1  C1  UNL     1     -24.679  -8.793   0.408  1.00  0.00     0.192 C
ENDROOT
BRANCH   1   2
HETATM    2  N1  UNL     1     -23.635  -7.902   0.857  1.00  0.00    -0.074 N
ATOM      3  H13 UNL     1     -23.115  -8.318   1.629  1.00  0.00     0.274 HD
ATOM      4  H12 UNL     1     -22.890  -7.842   0.162  1.00  0.00     0.274 HD
ATOM      5  H11 UNL     1     -23.969  -6.972   1.108  1.00  0.00     0.274 HD
ENDBRANCH   1   2
BRANCH   1   6
HETATM    6  C2  UNL     1     -24.561 -10.170   0.946  1.00  0.00     0.085 C
BRANCH   6   7
HETATM    7  C3  UNL     1     -23.823 -11.068   0.012  1.00  0.00    -0.016 C
HETATM    8  N2  UNL     1     -24.511 -11.769  -0.852  1.00  0.00    -0.396 N
HETATM    9  C4  UNL     1     -23.670 -12.566  -1.663  1.00  0.00     0.119 C
ATOM     10  H2  UNL     1     -25.528 -11.744  -0.931  1.00  0.00     0.159 HD
HETATM   11  C5  UNL     1     -22.296 -11.891  -1.569  1.00  0.00     0.025 C
HETATM   12  C6  UNL     1     -22.384 -11.348  -0.139  1.00  0.00     0.054 C
ENDBRANCH   6   7
ENDBRANCH   1   6
BRANCH   1  13
HETATM   13  C7  UNL     1     -26.000  -8.137   0.742  1.00  0.00     0.016 C
HETATM   14  C8  UNL     1     -27.171  -9.039   0.419  1.00  0.00     0.007 C
HETATM   15  C9  UNL     1     -28.333  -8.067   0.501  1.00  0.00     0.000 C
HETATM   16  C10 UNL     1     -27.772  -6.780  -0.018  1.00  0.00     0.000 C
HETATM   17  C11 UNL     1     -26.277  -6.944  -0.133  1.00  0.00     0.007 C
ENDBRANCH   1  13
TORSDOF 4
ENDMDL