MODEL 5
REMARK VINA RESULT: -6.010810892      2.983      5.811
REMARK  3 active torsions:
REMARK  status: ('A' for Active; 'I' for Inactive)
REMARK    1  A    between atoms: C1_1  and  C5_10
REMARK    2  A    between atoms: N1_2  and  N2_4
REMARK    3  A    between atoms: N2_4  and  C2_6
ROOT
HETATM    1  C1  UNL     1     -25.494 -10.500   0.842  1.00  0.00     0.118 C
HETATM    2  N1  UNL     1     -26.675 -10.614   0.391  1.00  0.00    -0.313 N
ATOM      3  H1  UNL     1     -26.783 -11.080  -0.511  1.00  0.00     0.185 HD
ENDROOT
BRANCH   2   4
HETATM    4  N2  UNL     1     -27.824 -10.170   1.004  1.00  0.00    -0.308 N
ATOM      5  H2  UNL     1     -27.810  -9.856   1.974  1.00  0.00     0.183 HD
BRANCH   4   6
HETATM    6  C2  UNL     1     -29.055 -10.159   0.237  1.00  0.00     0.237 C
HETATM    7  C3  UNL     1     -30.152 -10.995   0.887  1.00  0.00     0.081 C
HETATM    8  C4  UNL     1     -30.223 -11.718  -0.436  1.00  0.00     0.175 C
HETATM    9  O1  UNL     1     -29.059 -11.047  -0.817  1.00  0.00    -0.365 OA
ENDBRANCH   4   6
ENDBRANCH   2   4
BRANCH   1  10
HETATM   10  C5  UNL     1     -24.362 -11.013   0.096  1.00  0.00    -0.019 A
HETATM   11  C6  UNL     1     -24.571 -11.844  -0.983  1.00  0.00     0.013 A
HETATM   12  C7  UNL     1     -23.498 -12.354  -1.721  1.00  0.00     0.001 A
HETATM   13  C8  UNL     1     -22.214 -12.012  -1.352  1.00  0.00     0.000 A
HETATM   14  C9  UNL     1     -22.013 -11.176  -0.265  1.00  0.00     0.001 A
HETATM   15  C10 UNL     1     -23.096 -10.672   0.465  1.00  0.00     0.013 A
ENDBRANCH   1  10
TORSDOF 3
ENDMDL