MODEL 3
REMARK VINA RESULT: -5.878684709      1.618      2.033
REMARK  4 active torsions:
REMARK  status: ('A' for Active; 'I' for Inactive)
REMARK    1  A    between atoms: O1_1  and  C1_3
REMARK    2  A    between atoms: C4_6  and  C5_7
REMARK    3  A    between atoms: C6_8  and  C7_9
REMARK    4  A    between atoms: C7_9  and  N1_10
ROOT
HETATM    1  C5  UNL     1     -25.421  -7.935   0.529  1.00  0.00    -0.018 C
HETATM    2  C6  UNL     1     -24.252  -8.745   0.605  1.00  0.00     0.016 C
ENDROOT
BRANCH   2   3
HETATM    3  C7  UNL     1     -24.118  -9.985   0.928  1.00  0.00     0.115 C
BRANCH   3   4
HETATM    4  N1  UNL     1     -23.690 -10.969  -0.041  1.00  0.00    -0.279 N
HETATM    5  C8  UNL     1     -22.454 -11.347  -0.363  1.00  0.00     0.117 A
HETATM    6  C9  UNL     1     -22.515 -12.316  -1.342  1.00  0.00     0.038 A
HETATM    7  C10 UNL     1     -23.856 -12.509  -1.603  1.00  0.00     0.109 A
HETATM    8  N2  UNL     1     -24.509 -11.672  -0.792  1.00  0.00    -0.306 N
ATOM      9  H2  UNL     1     -25.525 -11.589  -0.758  1.00  0.00     0.186 HD
ENDBRANCH   3   4
ENDBRANCH   2   3
BRANCH   1  10
HETATM   10  C4  UNL     1     -26.777  -8.395   0.743  1.00  0.00     0.037 C
HETATM   11  C1  UNL     1     -27.484  -9.361  -0.117  1.00  0.00     0.126 C
HETATM   12  C2  UNL     1     -28.784  -8.779   0.475  1.00  0.00     0.033 C
HETATM   13  C3  UNL     1     -27.962  -7.485   0.633  1.00  0.00     0.013 C
BRANCH  11  14
HETATM   14  O1  UNL     1     -27.427 -10.705   0.263  1.00  0.00    -0.395 OA
ATOM     15  H1  UNL     1     -27.052 -11.184  -0.466  1.00  0.00     0.210 HD
ENDBRANCH  11  14
ENDBRANCH   1  10
TORSDOF 4
ENDMDL