MODEL 3
REMARK VINA RESULT: -5.947003225      2.986      5.021
REMARK  3 active torsions:
REMARK  status: ('A' for Active; 'I' for Inactive)
REMARK    1  A    between atoms: O1_2  and  C2_3
REMARK    2  A    between atoms: C2_3  and  C3_4
REMARK    3  A    between atoms: N1_7  and  O2_8
ROOT
HETATM    1  C2  UNL     1      37.350 -39.995  28.479  1.00  0.00     0.212 C
HETATM    2  C8  UNL     1      37.859 -40.255  27.119  1.00  0.00     0.045 C
HETATM    3  C9  UNL     1      38.793 -39.528  26.513  1.00  0.00     0.014 C
HETATM    4  C10 UNL     1      39.374 -38.377  27.236  1.00  0.00     0.216 C
HETATM    5  F1  UNL     1      39.595 -37.358  26.347  1.00  0.00    -0.243 F
HETATM    6  C11 UNL     1      38.359 -37.924  28.261  1.00  0.00     0.213 C
HETATM    7  O3  UNL     1      37.966 -38.940  29.107  1.00  0.00    -0.345 OA
ENDROOT
BRANCH   1   8
HETATM    8  O1  UNL     1      37.553 -41.182  29.215  1.00  0.00    -0.353 OA
HETATM    9  C1  UNL     1      38.803 -41.184  29.826  1.00  0.00     0.206 C
ENDBRANCH   1   8
BRANCH   1  10
HETATM   10  C3  UNL     1      35.884 -39.782  28.420  1.00  0.00     0.010 A
HETATM   11  C4  UNL     1      35.230 -38.930  29.288  1.00  0.00     0.033 A
HETATM   12  C5  UNL     1      33.851 -38.742  29.219  1.00  0.00     0.123 A
HETATM   13  N1  UNL     1      33.129 -39.399  28.291  1.00  0.00    -0.247 N
HETATM   14  C6  UNL     1      33.772 -40.229  27.446  1.00  0.00     0.123 A
HETATM   15  C7  UNL     1      35.112 -40.449  27.471  1.00  0.00     0.033 A
BRANCH  13  16
HETATM   16  O2  UNL     1      31.760 -39.205  28.231  1.00  0.00    -0.284 OA
ATOM     17  H2  UNL     1      31.249 -39.228  29.032  1.00  0.00     0.245 HD
ENDBRANCH  13  16
ENDBRANCH   1  10
TORSDOF 3
ENDMDL