MODEL 2
REMARK VINA RESULT: -6.772649244      0.037      1.183
REMARK  2 active torsions:
REMARK  status: ('A' for Active; 'I' for Inactive)
REMARK    1  A    between atoms: N1_2  and  C1_4
REMARK    2  A    between atoms: N2_7  and  C4_8
ROOT
HETATM    1  C1  UNL     1      35.632 -41.431  28.233  1.00  0.00     0.105 A
HETATM    2  C2  UNL     1      36.181 -40.432  29.016  1.00  0.00     0.053 A
HETATM    3  C3  UNL     1      35.457 -39.274  29.187  1.00  0.00     0.100 A
HETATM    4  N2  UNL     1      34.252 -39.105  28.615  1.00  0.00    -0.319 N
HETATM    5  C9  UNL     1      33.695 -40.058  27.849  1.00  0.00     0.100 A
HETATM    6  C10 UNL     1      34.389 -41.225  27.658  1.00  0.00     0.053 A
ENDROOT
BRANCH   4   7
HETATM    7  C4  UNL     1      33.543 -37.906  28.813  1.00  0.00     0.111 A
HETATM    8  C5  UNL     1      32.166 -37.922  28.720  1.00  0.00     0.052 A
HETATM    9  C6  UNL     1      31.446 -36.762  28.908  1.00  0.00     0.047 A
HETATM   10  C7  UNL     1      32.173 -35.619  29.189  1.00  0.00     0.131 A
HETATM   11  F1  UNL     1      31.503 -34.446  29.384  1.00  0.00    -0.205 F
HETATM   12  C8  UNL     1      33.550 -35.621  29.278  1.00  0.00     0.132 A
HETATM   13  N3  UNL     1      34.206 -36.775  29.086  1.00  0.00    -0.349 N
ATOM     14  H3  UNL     1      35.224 -36.791  29.149  1.00  0.00     0.167 HD
ENDBRANCH   4   7
BRANCH   1  15
HETATM   15  N1  UNL     1      36.333 -42.645  28.022  1.00  0.00    -0.116 N
HETATM   16  O1  UNL     1      37.417 -42.809  28.606  1.00  0.00    -0.532 OA
HETATM   17  O2  UNL     1      35.785 -43.580  27.187  1.00  0.00    -0.532 OA
ENDBRANCH   1  15
TORSDOF 2
ENDMDL