MODEL 4
REMARK VINA RESULT: -4.899461349      1.038      1.257
REMARK  2 active torsions:
REMARK  status: ('A' for Active; 'I' for Inactive)
REMARK    1  A    between atoms: N1_2  and  C3_4
REMARK    2  A    between atoms: C7_9  and  N2_10
ROOT
HETATM    1  C3  UNL     1      35.157 -40.688  28.473  1.00  0.00     0.231 C
HETATM    2  C4  UNL     1      34.790 -41.775  27.500  1.00  0.00     0.039 C
HETATM    3  C5  UNL     1      36.038 -42.605  27.285  1.00  0.00     0.035 C
HETATM    4  C6  UNL     1      37.058 -42.160  28.279  1.00  0.00     0.133 C
HETATM    5  O1  UNL     1      38.276 -42.097  27.651  1.00  0.00    -0.349 OA
HETATM    6  C7  UNL     1      38.756 -40.800  27.761  1.00  0.00     0.392 C
HETATM    7  C10 UNL     1      37.442 -40.011  27.552  1.00  0.00     0.237 C
HETATM    8  F1  UNL     1      37.653 -38.677  27.822  1.00  0.00    -0.244 F
HETATM    9  C11 UNL     1      36.620 -40.716  28.563  1.00  0.00     0.086 C
ENDROOT
BRANCH   1  10
HETATM   10  N1  UNL     1      34.464 -39.485  28.358  1.00  0.00     0.085 N
HETATM   11  C1  UNL     1      33.105 -39.435  28.001  1.00  0.00     0.309 C
HETATM   12  C2  UNL     1      34.639 -38.661  29.545  1.00  0.00     0.309 C
ENDBRANCH   1  10
BRANCH   6  13
HETATM   13  N2  UNL     1      39.747 -40.440  26.800  1.00  0.00     0.111 N
HETATM   14  C8  UNL     1      40.401 -41.634  26.309  1.00  0.00     0.312 C
HETATM   15  C9  UNL     1      40.722 -39.605  27.466  1.00  0.00     0.312 C
ENDBRANCH   6  13
TORSDOF 2
ENDMDL