MODEL 2
REMARK VINA RESULT: -5.250554930      2.180      2.186
REMARK  4 active torsions:
REMARK  status: ('A' for Active; 'I' for Inactive)
REMARK    1  A    between atoms: C1_2  and  C2_3
REMARK    2  A    between atoms: C3_4  and  C4_5
REMARK    3  A    between atoms: C4_5  and  O1_6
REMARK    4  A    between atoms: O1_6  and  C5_7
ROOT
HETATM    1  C5  UNL     1      33.105 -38.371  28.872  1.00  0.00     0.158 A
HETATM    2  C6  UNL     1      31.831 -37.990  28.516  1.00  0.00     0.143 A
HETATM    3  N1  UNL     1      31.481 -36.669  28.515  1.00  0.00    -0.370 N
ATOM      4  H1  UNL     1      30.534 -36.398  28.250  1.00  0.00     0.164 HD
HETATM    5  C7  UNL     1      32.360 -35.736  28.857  1.00  0.00     0.104 A
HETATM    6  C8  UNL     1      33.651 -36.105  29.218  1.00  0.00     0.107 A
HETATM    7  N2  UNL     1      33.991 -37.424  29.216  1.00  0.00    -0.344 N
ATOM      8  H2  UNL     1      34.937 -37.697  29.482  1.00  0.00     0.167 HD
ENDROOT
BRANCH   1   9
HETATM    9  O1  UNL     1      33.514 -39.690  28.891  1.00  0.00    -0.323 OA
BRANCH   9  10
HETATM   10  C4  UNL     1      33.881 -40.369  27.706  1.00  0.00     0.271 C
BRANCH  10  11
HETATM   11  C3  UNL     1      35.348 -40.455  27.616  1.00  0.00    -0.079 C
HETATM   12  C2  UNL     1      36.556 -40.533  27.547  1.00  0.00    -0.094 C
BRANCH  12  13
HETATM   13  C1  UNL     1      38.023 -40.635  27.473  1.00  0.00     0.178 C
HETATM   14 BR1  UNL     1      38.672 -38.979  26.728  1.00  0.00    -0.083 Br
ENDBRANCH  12  13
ENDBRANCH  10  11
ENDBRANCH   9  10
ENDBRANCH   1   9
TORSDOF 4
ENDMDL