MODEL 4
REMARK VINA RESULT: -4.464896296      1.548      2.127
REMARK  2 active torsions:
REMARK  status: ('A' for Active; 'I' for Inactive)
REMARK    1  A    between atoms: S1_2  and  C2_3
REMARK    2  A    between atoms: N2_7  and  C4_8
ROOT
HETATM    1  C2  UNL     1      33.133 -38.141  28.923  1.00  0.00     0.145 A
HETATM    2  N1  UNL     1      34.300 -38.090  29.575  1.00  0.00    -0.333 N
ATOM      3  H1  UNL     1      34.470 -37.331  30.234  1.00  0.00     0.168 HD
HETATM    4  C3  UNL     1      35.267 -39.029  29.376  1.00  0.00     0.186 A
HETATM    5  N2  UNL     1      35.054 -40.016  28.523  1.00  0.00    -0.329 N
HETATM    6  C5  UNL     1      33.883 -40.099  27.848  1.00  0.00     0.186 A
HETATM    7  N3  UNL     1      32.942 -39.156  28.063  1.00  0.00    -0.333 N
ATOM      8  H3  UNL     1      32.058 -39.215  27.556  1.00  0.00     0.168 HD
ENDROOT
BRANCH   1   9
HETATM    9  S1  UNL     1      31.881 -36.902  29.198  1.00  0.00    -0.098 SA
HETATM   10  C1  UNL     1      32.655 -35.282  28.920  1.00  0.00     0.099 C
ENDBRANCH   1   9
BRANCH   5  11
HETATM   11  C4  UNL     1      36.072 -41.012  28.311  1.00  0.00     0.215 C
HETATM   12 BR1  UNL     1      37.580 -40.126  27.444  1.00  0.00    -0.074 Br
ENDBRANCH   5  11
TORSDOF 2
ENDMDL