MODEL 3
REMARK VINA RESULT: -6.070990462      1.233      1.403
REMARK  2 active torsions:
REMARK  status: ('A' for Active; 'I' for Inactive)
REMARK    1  A    between atoms: N1_4  and  C3_5
REMARK    2  A    between atoms: C3_5  and  C4_6
ROOT
HETATM    1  C3  UNL     1      34.854 -38.595  29.837  1.00  0.00     0.308 C
ENDROOT
BRANCH   1   2
HETATM    2  N1  UNL     1      33.707 -38.119  29.135  1.00  0.00     0.097 N
HETATM    3  C2  UNL     1      33.717 -36.629  29.146  1.00  0.00     0.338 C
HETATM    4  C1  UNL     1      32.397 -36.070  28.780  1.00  0.00     0.335 C
HETATM    5  F1  UNL     1      31.770 -35.438  29.869  1.00  0.00    -0.218 F
HETATM    6  O1  UNL     1      31.535 -36.869  28.088  1.00  0.00    -0.353 OA
HETATM    7  C11 UNL     1      31.440 -38.165  28.492  1.00  0.00     0.201 C
HETATM    8  C10 UNL     1      32.427 -38.531  29.601  1.00  0.00     0.298 C
ENDBRANCH   1   2
BRANCH   1   9
HETATM    9  C4  UNL     1      35.475 -39.759  29.226  1.00  0.00     0.251 C
HETATM   10  C5  UNL     1      35.302 -39.837  27.705  1.00  0.00     0.044 C
HETATM   11  C6  UNL     1      36.424 -40.715  27.295  1.00  0.00     0.018 C
HETATM   12  C7  UNL     1      37.607 -39.787  27.030  1.00  0.00     0.036 C
HETATM   13  C9  UNL     1      36.938 -41.256  28.642  1.00  0.00     0.277 C
HETATM   14  C8  UNL     1      37.630 -39.075  28.383  1.00  0.00     0.273 C
HETATM   15  N2  UNL     1      36.906 -39.931  29.322  1.00  0.00     0.095 N
ENDBRANCH   1   9
TORSDOF 2
ENDMDL