MODEL 1
REMARK VINA RESULT: -5.480968186      0.000      0.000
REMARK  3 active torsions:
REMARK  status: ('A' for Active; 'I' for Inactive)
REMARK    1  A    between atoms: N2_5  and  C4_6
REMARK    2  A    between atoms: C4_6  and  C5_7
REMARK    3  A    between atoms: C4_6  and  C8_10
ROOT
HETATM    1  N1  UNL     1      32.163 -34.773  29.327  1.00  0.00    -0.197 NA
HETATM    2  C1  UNL     1      32.655 -35.749  28.964  1.00  0.00     0.068 C
HETATM    3  C2  UNL     1      33.269 -36.975  28.511  1.00  0.00     0.146 C
HETATM    4  C3  UNL     1      34.102 -37.655  29.620  1.00  0.00     0.139 C
HETATM    5  N2  UNL     1      34.069 -38.992  29.279  1.00  0.00    -0.401 N
HETATM    6  C10 UNL     1      32.676 -39.242  28.992  1.00  0.00     0.156 C
HETATM    7  C11 UNL     1      32.238 -38.060  28.173  1.00  0.00     0.206 C
HETATM    8  F1  UNL     1      31.014 -37.579  28.615  1.00  0.00    -0.246 F
ENDROOT
BRANCH   5   9
HETATM    9  C4  UNL     1      34.997 -39.728  28.589  1.00  0.00     0.114 C
BRANCH   9  10
HETATM   10  C5  UNL     1      36.278 -39.941  29.304  1.00  0.00     0.011 A
HETATM   11  C6  UNL     1      37.501 -39.145  28.862  1.00  0.00     0.007 A
HETATM   12  C7  UNL     1      37.449 -40.661  28.822  1.00  0.00     0.007 A
ENDBRANCH   9  10
BRANCH   9  13
HETATM   13  C8  UNL     1      34.467 -41.056  28.044  1.00  0.00     0.168 A
HETATM   14  C9  UNL     1      35.148 -41.866  27.080  1.00  0.00     0.202 A
HETATM   15  O1  UNL     1      34.368 -40.841  26.553  1.00  0.00    -0.379 OA
ENDBRANCH   9  13
ENDBRANCH   5   9
TORSDOF 3
ENDMDL