MODEL 2
REMARK VINA RESULT: -5.214329376      2.626      4.131
REMARK  4 active torsions:
REMARK  status: ('A' for Active; 'I' for Inactive)
REMARK    1  A    between atoms: C2_2  and  C3_4
REMARK    2  A    between atoms: C6_9  and  C7_10
REMARK    3  A    between atoms: C7_10  and  N2_11
REMARK    4  A    between atoms: N2_11  and  N3_12
ROOT
HETATM    1  C3  UNL     1      33.362 -37.168  29.030  1.00  0.00     0.095 A
HETATM    2  N1  UNL     1      32.476 -37.855  28.289  1.00  0.00    -0.355 N
ATOM      3  H1  UNL     1      31.621 -37.380  27.999  1.00  0.00     0.166 HD
HETATM    4  C4  UNL     1      32.648 -39.133  27.909  1.00  0.00     0.092 A
HETATM    5  C5  UNL     1      33.830 -39.760  28.323  1.00  0.00     0.049 A
HETATM    6  C6  UNL     1      34.744 -39.074  29.077  1.00  0.00     0.065 A
HETATM    7  N4  UNL     1      34.494 -37.801  29.416  1.00  0.00    -0.343 N
ATOM      8  H4  UNL     1      35.178 -37.295  29.980  1.00  0.00     0.167 HD
ENDROOT
BRANCH   6   9
HETATM    9  C7  UNL     1      35.963 -39.710  29.508  1.00  0.00     0.237 C
BRANCH   9  10
HETATM   10  N2  UNL     1      37.086 -39.232  29.236  1.00  0.00    -0.344 NA
BRANCH  10  11
HETATM   11  N3  UNL     1      38.153 -38.615  29.056  1.00  0.00    -0.281 N
ATOM     12  H32 UNL     1      37.833 -37.989  29.795  1.00  0.00     0.191 HD
ATOM     13  H31 UNL     1      39.055 -38.208  28.807  1.00  0.00     0.191 HD
ENDBRANCH  10  11
ENDBRANCH   9  10
ENDBRANCH   6   9
BRANCH   1  14
HETATM   14  C2  UNL     1      33.042 -35.776  29.374  1.00  0.00     0.121 C
HETATM   15  C1  UNL     1      31.814 -35.281  28.629  1.00  0.00     0.030 C
HETATM   16 BR1  UNL     1      34.497 -34.574  28.873  1.00  0.00    -0.083 Br
ENDBRANCH   1  14
TORSDOF 4
ENDMDL