MODEL 3
REMARK VINA RESULT: -6.358524137      3.085      6.550
REMARK  3 active torsions:
REMARK  status: ('A' for Active; 'I' for Inactive)
REMARK    1  A    between atoms: O1_1  and  N1_3
REMARK    2  A    between atoms: N1_3  and  C7_13
REMARK    3  A    between atoms: C1_4  and  C2_5
ROOT
HETATM    1  N1  UNL     1      33.657 -39.345  28.262  1.00  0.00    -0.216 N
HETATM    2  C1  UNL     1      34.831 -39.668  28.619  1.00  0.00     0.154 C
ENDROOT
BRANCH   1   3
HETATM    3  O1  UNL     1      32.899 -40.261  27.570  1.00  0.00    -0.281 OA
ATOM      4  H1  UNL     1      32.360 -39.958  26.848  1.00  0.00     0.245 HD
ENDBRANCH   1   3
BRANCH   1   5
HETATM    5  C7  UNL     1      33.096 -38.084  28.545  1.00  0.00     0.146 A
HETATM    6  C8  UNL     1      33.739 -37.007  29.098  1.00  0.00     0.053 A
HETATM    7  C9  UNL     1      33.126 -35.789  29.352  1.00  0.00     0.022 A
HETATM    8  C10 UNL     1      31.805 -35.660  29.030  1.00  0.00     0.107 A
HETATM    9  N3  UNL     1      31.193 -36.714  28.494  1.00  0.00    -0.310 N
HETATM   10  N4  UNL     1      31.774 -37.870  28.252  1.00  0.00    -0.284 N
ATOM     11  H3  UNL     1      30.207 -36.619  28.255  1.00  0.00     0.186 HD
ATOM     12  H4  UNL     1      31.228 -38.624  27.838  1.00  0.00     0.188 HD
ENDBRANCH   1   5
BRANCH   2  13
HETATM   13  C2  UNL     1      35.369 -40.982  28.305  1.00  0.00     0.050 A
HETATM   14  C3  UNL     1      36.663 -41.048  27.970  1.00  0.00     0.034 A
HETATM   15  C4  UNL     1      37.312 -42.309  27.635  1.00  0.00     0.046 A
HETATM   16  C5  UNL     1      36.577 -43.406  27.670  1.00  0.00     0.131 A
HETATM   17  F1  UNL     1      37.134 -44.614  27.365  1.00  0.00    -0.205 F
HETATM   18  C6  UNL     1      35.180 -43.279  28.038  1.00  0.00     0.130 A
HETATM   19  N2  UNL     1      34.599 -42.186  28.334  1.00  0.00    -0.362 N
ATOM     20  H2  UNL     1      33.610 -42.170  28.584  1.00  0.00     0.165 HD
ENDBRANCH   2  13
TORSDOF 3
ENDMDL