MODEL 5
REMARK VINA RESULT: -6.705081190      1.164      1.652
REMARK  2 active torsions:
REMARK  status: ('A' for Active; 'I' for Inactive)
REMARK    1  A    between atoms: C5_6  and  C6_7
REMARK    2  A    between atoms: C6_7  and  N2_8
ROOT
HETATM    1  N1  UNL     1      31.170 -37.221  28.698  1.00  0.00    -0.191 NA
HETATM    2  C1  UNL     1      32.090 -37.914  28.595  1.00  0.00     0.099 C
HETATM    3  C2  UNL     1      33.222 -38.789  28.453  1.00  0.00     0.047 A
HETATM    4  C3  UNL     1      33.262 -39.759  27.464  1.00  0.00     0.023 A
HETATM    5  C4  UNL     1      34.330 -40.608  27.309  1.00  0.00     0.013 A
HETATM    6  C5  UNL     1      35.451 -40.536  28.156  1.00  0.00     0.000 A
HETATM    7  C10 UNL     1      35.407 -39.578  29.131  1.00  0.00     0.125 A
HETATM    8  F1  UNL     1      36.438 -39.443  30.011  1.00  0.00    -0.205 F
HETATM    9  C11 UNL     1      34.312 -38.710  29.287  1.00  0.00     0.065 A
ENDROOT
BRANCH   6  10
HETATM   10  C6  UNL     1      36.583 -41.464  27.936  1.00  0.00     0.191 C
BRANCH  10  11
HETATM   11  N2  UNL     1      37.828 -40.893  27.584  1.00  0.00    -0.284 N
HETATM   12  C7  UNL     1      38.985 -41.384  28.004  1.00  0.00     0.200 A
HETATM   13  N3  UNL     1      40.169 -40.794  27.653  1.00  0.00    -0.360 N
HETATM   14  C8  UNL     1      40.189 -39.705  26.873  1.00  0.00     0.107 A
ATOM     15  H3  UNL     1      41.047 -41.189  27.989  1.00  0.00     0.166 HD
HETATM   16  C9  UNL     1      38.980 -39.205  26.441  1.00  0.00     0.124 A
HETATM   17  N4  UNL     1      37.859 -39.809  26.808  1.00  0.00    -0.307 N
ATOM     18  H4  UNL     1      36.973 -39.424  26.480  1.00  0.00     0.186 HD
ENDBRANCH  10  11
ENDBRANCH   6  10
TORSDOF 2
ENDMDL