MODEL 4
REMARK VINA RESULT: -4.942295662      1.304      2.474
REMARK  4 active torsions:
REMARK  status: ('A' for Active; 'I' for Inactive)
REMARK    1  A    between atoms: O1_1  and  C1_3
REMARK    2  A    between atoms: C1_3  and  C2_4
REMARK    3  A    between atoms: C3_5  and  C4_6
REMARK    4  A    between atoms: C4_6  and  C5_7
ROOT
HETATM    1  C5  UNL     1    -108.101  42.988  27.884  1.00  0.00     0.325 C
HETATM    2  N1  UNL     1    -108.726  41.903  27.219  1.00  0.00    -0.373 N
ATOM      3  H1  UNL     1    -109.617  42.095  26.759  1.00  0.00     0.160 HD
HETATM    4  C6  UNL     1    -108.289  40.725  27.140  1.00  0.00     0.059 C
HETATM    5  C7  UNL     1    -106.990  40.426  27.805  1.00  0.00     0.080 C
HETATM    6  C8  UNL     1    -106.119  41.640  27.647  1.00  0.00     0.232 C
HETATM    7  C9  UNL     1    -105.146  41.710  28.831  1.00  0.00     0.066 C
HETATM    8  C10 UNL     1    -106.302  42.494  29.465  1.00  0.00     0.278 C
HETATM    9  N2  UNL     1    -106.721  42.838  28.142  1.00  0.00     0.116 N
ENDROOT
BRANCH   1  10
HETATM   10  C4  UNL     1    -108.920  43.307  29.143  1.00  0.00     0.084 C
BRANCH  10  11
HETATM   11  C3  UNL     1    -108.839  44.778  29.350  1.00  0.00    -0.025 C
HETATM   12  C2  UNL     1    -109.834  45.622  29.192  1.00  0.00    -0.005 C
BRANCH  12  13
HETATM   13  C1  UNL     1    -111.207  45.295  28.785  1.00  0.00     0.191 C
BRANCH  13  14
HETATM   14  O1  UNL     1    -112.046  46.375  29.134  1.00  0.00    -0.397 OA
ATOM     15  H1  UNL     1    -112.692  46.065  29.757  1.00  0.00     0.209 HD
ENDBRANCH  13  14
ENDBRANCH  12  13
ENDBRANCH  10  11
ENDBRANCH   1  10
TORSDOF 4
ENDMDL