MODEL 1
REMARK VINA RESULT: -6.036722992      0.000      0.000
REMARK  3 active torsions:
REMARK  status: ('A' for Active; 'I' for Inactive)
REMARK    1  A    between atoms: C4_4  and  N1_5
REMARK    2  A    between atoms: N1_5  and  C5_8
REMARK    3  A    between atoms: C5_8  and  C6_9
ROOT
HETATM    1  N1  UNL     1    -109.698  43.964  27.998  1.00  0.00    -0.066 N
ATOM      2  H11 UNL     1    -110.013  43.976  27.028  1.00  0.00     0.277 HD
ATOM      3  H12 UNL     1    -109.094  44.786  27.968  1.00  0.00     0.277 HD
ENDROOT
BRANCH   1   4
HETATM    4  C4  UNL     1    -108.951  42.746  28.319  1.00  0.00     0.186 C
HETATM    5  C3  UNL     1    -108.937  41.872  27.118  1.00  0.00     0.033 C
HETATM    6  C2  UNL     1    -107.891  40.783  27.164  1.00  0.00     0.002 C
HETATM    7  C1  UNL     1    -106.553  41.195  27.634  1.00  0.00     0.000 C
HETATM    8  C10 UNL     1    -106.434  42.577  28.195  1.00  0.00     0.002 C
HETATM    9  C9  UNL     1    -107.624  43.083  28.910  1.00  0.00     0.033 C
ENDBRANCH   1   4
BRANCH   1  10
HETATM   10  C5  UNL     1    -110.779  44.128  28.915  1.00  0.00     0.293 C
BRANCH  10  11
HETATM   11  C6  UNL     1    -110.866  45.594  29.368  1.00  0.00     0.285 C
HETATM   12  O1  UNL     1    -109.627  46.199  29.130  1.00  0.00    -0.357 OA
HETATM   13  C7  UNL     1    -109.874  47.480  28.681  1.00  0.00     0.197 C
HETATM   14  C8  UNL     1    -111.384  47.573  28.675  1.00  0.00     0.197 C
HETATM   15  O2  UNL     1    -111.731  46.246  28.489  1.00  0.00    -0.357 OA
ENDBRANCH  10  11
ENDBRANCH   1  10
TORSDOF 3
ENDMDL