MODEL 3
REMARK VINA RESULT: -4.715779276      4.252      5.281
REMARK  4 active torsions:
REMARK  status: ('A' for Active; 'I' for Inactive)
REMARK    1  A    between atoms: O1_1  and  C1_3
REMARK    2  A    between atoms: C1_3  and  C2_4
REMARK    3  A    between atoms: C2_4  and  S1_5
REMARK    4  A    between atoms: S1_5  and  C3_6
ROOT
HETATM    1  C3  UNL     1    -105.177  44.132  27.879  1.00  0.00     0.078 C
HETATM    2  C4  UNL     1    -104.889  43.010  26.884  1.00  0.00     0.049 C
HETATM    3  C5  UNL     1    -105.407  41.835  27.703  1.00  0.00     0.123 C
HETATM    4  C6  UNL     1    -106.832  42.053  28.127  1.00  0.00     0.034 C
HETATM    5  C7  UNL     1    -106.706  42.979  29.333  1.00  0.00     0.035 C
HETATM    6  C8  UNL     1    -105.239  43.359  29.168  1.00  0.00     0.135 C
HETATM    7  O2  UNL     1    -104.710  42.084  28.899  1.00  0.00    -0.379 OA
ENDROOT
BRANCH   1   8
HETATM    8  S1  UNL     1    -103.940  45.423  27.857  1.00  0.00    -0.160 SA
BRANCH   8   9
HETATM    9  C2  UNL     1    -103.105  45.429  29.479  1.00  0.00     0.100 C
BRANCH   9  10
HETATM   10  C1  UNL     1    -102.561  46.801  29.800  1.00  0.00     0.174 C
BRANCH  10  11
HETATM   11  O1  UNL     1    -103.477  47.532  30.545  1.00  0.00    -0.400 OA
ATOM     12  H1  UNL     1    -103.576  48.408  30.193  1.00  0.00     0.209 HD
ENDBRANCH  10  11
ENDBRANCH   9  10
ENDBRANCH   8   9
ENDBRANCH   1   8
TORSDOF 4
ENDMDL