MODEL 1
REMARK VINA RESULT: -5.518137566      0.000      0.000
REMARK  4 active torsions:
REMARK  status: ('A' for Active; 'I' for Inactive)
REMARK    1  A    between atoms: C2_2  and  C3_3
REMARK    2  A    between atoms: C3_3  and  C4_4
REMARK    3  A    between atoms: C7_7  and  C8_8
REMARK    4  A    between atoms: C8_8  and  N1_9
ROOT
HETATM    1  C8  UNL     1    -110.373  47.823  28.797  1.00  0.00     0.295 C
HETATM    2  C9  UNL     1    -108.953  48.131  28.628  1.00  0.00     0.092 C
HETATM    3  N2  UNL     1    -107.838  48.364  28.509  1.00  0.00    -0.195 NA
ENDROOT
BRANCH   1   4
HETATM    4  C7  UNL     1    -110.526  46.421  29.293  1.00  0.00     0.057 C
HETATM    5  C6  UNL     1    -109.277  45.601  29.244  1.00  0.00     0.047 C
HETATM    6  C4  UNL     1    -109.868  44.211  28.925  1.00  0.00     0.061 C
HETATM    7  C5  UNL     1    -110.282  43.655  30.304  1.00  0.00     0.046 C
HETATM    8  O1  UNL     1    -110.927  44.441  28.100  1.00  0.00    -0.380 OA
HETATM    9  C10 UNL     1    -111.547  45.618  28.523  1.00  0.00     0.176 C
BRANCH   6  10
HETATM   10  C3  UNL     1    -108.788  43.343  28.439  1.00  0.00     0.064 C
BRANCH  10  11
HETATM   11  C2  UNL     1    -109.100  42.253  27.531  1.00  0.00    -0.034 C
HETATM   12  C1  UNL     1    -108.425  41.755  26.544  1.00  0.00     0.007 C
ENDBRANCH  10  11
ENDBRANCH   6  10
ENDBRANCH   1   4
BRANCH   1  13
HETATM   13  N1  UNL     1    -111.109  48.088  27.592  1.00  0.00    -0.062 N
ATOM     14  H13 UNL     1    -110.895  47.391  26.878  1.00  0.00     0.275 HD
ATOM     15  H12 UNL     1    -112.102  47.895  27.725  1.00  0.00     0.275 HD
ATOM     16  H11 UNL     1    -110.969  49.030  27.230  1.00  0.00     0.275 HD
ENDBRANCH   1  13
TORSDOF 4
ENDMDL