MODEL 5
REMARK VINA RESULT: -4.721823745      1.319      3.434
REMARK  3 active torsions:
REMARK  status: ('A' for Active; 'I' for Inactive)
REMARK    1  A    between atoms: C3_3  and  N1_4
REMARK    2  A    between atoms: C8_9  and  N2_10
REMARK    3  A    between atoms: N2_10  and  N3_12
ROOT
HETATM    1  C1  UNL     1    -107.518  39.140  27.839  1.00  0.00     0.013 C
HETATM    2  C2  UNL     1    -107.444  40.320  27.633  1.00  0.00    -0.087 C
HETATM    3  C3  UNL     1    -107.332  41.762  27.397  1.00  0.00     0.367 C
ENDROOT
BRANCH   3   4
HETATM    4  N1  UNL     1    -108.134  42.548  28.274  1.00  0.00     0.123 N
HETATM    5  C4  UNL     1    -109.450  42.646  27.755  1.00  0.00     0.276 C
HETATM    6  C5  UNL     1    -110.122  43.966  28.116  1.00  0.00     0.030 C
HETATM    7  C6  UNL     1    -109.908  44.095  29.621  1.00  0.00     0.005 C
HETATM    8  C7  UNL     1    -108.443  44.373  29.830  1.00  0.00     0.059 C
HETATM    9  C8  UNL     1    -107.544  43.720  28.805  1.00  0.00     0.342 C
BRANCH   9  10
HETATM   10  N2  UNL     1    -106.312  43.401  29.487  1.00  0.00    -0.243 N
ATOM     11  H2  UNL     1    -106.362  42.833  30.332  1.00  0.00     0.189 HD
BRANCH  10  12
HETATM   12  N3  UNL     1    -105.057  43.826  29.054  1.00  0.00    -0.042 N
HETATM   13  O1  UNL     1    -104.907  44.518  28.016  1.00  0.00    -0.517 OA
HETATM   14  O2  UNL     1    -103.965  43.464  29.803  1.00  0.00    -0.517 OA
ENDBRANCH  10  12
ENDBRANCH   9  10
ENDBRANCH   3   4
TORSDOF 3
ENDMDL