MODEL 1
REMARK VINA RESULT: -5.923635799      0.000      0.000
REMARK  4 active torsions:
REMARK  status: ('A' for Active; 'I' for Inactive)
REMARK    1  A    between atoms: C3_3  and  C4_4
REMARK    2  A    between atoms: C5_5  and  C7_8
REMARK    3  A    between atoms: C8_9  and  C9_10
REMARK    4  A    between atoms: C10_12  and  O2_13
ROOT
HETATM    1  C4  UNL     1    -109.913  46.782  28.787  1.00  0.00     0.022 C
HETATM    2  C5  UNL     1    -109.917  45.464  29.019  1.00  0.00     0.044 C
HETATM    3  C6  UNL     1    -111.076  44.724  28.514  1.00  0.00     0.099 C
HETATM    4  N1  UNL     1    -112.016  44.169  28.097  1.00  0.00    -0.191 NA
ENDROOT
BRANCH   2   5
HETATM    5  C7  UNL     1    -108.863  44.796  29.717  1.00  0.00     0.021 C
HETATM    6  C8  UNL     1    -108.219  43.725  29.373  1.00  0.00     0.011 C
BRANCH   6   7
HETATM    7  C9  UNL     1    -108.366  42.875  28.183  1.00  0.00     0.202 A
HETATM    8  O1  UNL     1    -107.284  42.485  27.445  1.00  0.00    -0.345 OA
HETATM    9  C10 UNL     1    -107.807  41.478  28.212  1.00  0.00     0.290 A
BRANCH   9  10
HETATM   10  O2  UNL     1    -108.624  40.502  27.696  1.00  0.00    -0.368 OA
ATOM     11  H2  UNL     1    -108.197  39.683  27.479  1.00  0.00     0.212 HD
ENDBRANCH   9  10
ENDBRANCH   6   7
ENDBRANCH   2   5
BRANCH   1  12
HETATM   12  C3  UNL     1    -108.847  47.612  29.225  1.00  0.00    -0.003 C
HETATM   13  C2  UNL     1    -108.320  48.503  28.368  1.00  0.00    -0.031 C
HETATM   14  C1  UNL     1    -108.881  48.575  27.010  1.00  0.00     0.036 C
ENDBRANCH   1  12
TORSDOF 4
ENDMDL