MODEL 4
REMARK VINA RESULT: -5.891667966      2.496      5.698
REMARK  3 active torsions:
REMARK  status: ('A' for Active; 'I' for Inactive)
REMARK    1  A    between atoms: C3_4  and  C4_5
REMARK    2  A    between atoms: C4_5  and  C5_6
REMARK    3  A    between atoms: C5_6  and  C6_7
ROOT
HETATM    1  C5  UNL     1    -109.163  43.010  28.291  1.00  0.00     0.037 C
ENDROOT
BRANCH   1   2
HETATM    2  C4  UNL     1    -108.573  44.120  29.132  1.00  0.00     0.062 C
BRANCH   2   3
HETATM    3  C3  UNL     1    -109.533  45.238  29.340  1.00  0.00     0.259 C
HETATM    4  O1  UNL     1    -108.914  46.485  29.371  1.00  0.00    -0.361 OA
HETATM    5  C2  UNL     1    -109.572  47.446  28.647  1.00  0.00     0.173 C
HETATM    6  C1  UNL     1    -111.065  47.454  28.864  1.00  0.00     0.053 C
HETATM    7  C10 UNL     1    -111.585  46.049  28.958  1.00  0.00     0.173 C
HETATM    8  O2  UNL     1    -110.581  45.209  28.425  1.00  0.00    -0.361 OA
ENDBRANCH   2   3
ENDBRANCH   1   2
BRANCH   1   9
HETATM    9  C6  UNL     1    -108.249  41.830  28.396  1.00  0.00     0.186 C
HETATM   10  C7  UNL     1    -106.869  42.091  27.890  1.00  0.00     0.034 C
HETATM   11  C8  UNL     1    -106.398  40.773  27.263  1.00  0.00     0.029 C
HETATM   12  C9  UNL     1    -107.519  39.844  27.717  1.00  0.00     0.233 C
HETATM   13  N1  UNL     1    -108.674  40.732  27.512  1.00  0.00    -0.071 N
ATOM     14  H12 UNL     1    -109.595  40.333  27.690  1.00  0.00     0.277 HD
ATOM     15  H11 UNL     1    -108.894  40.981  26.548  1.00  0.00     0.277 HD
ENDBRANCH   1   9
TORSDOF 3
ENDMDL