MODEL 3
REMARK VINA RESULT: -5.343306746      1.916      2.863
REMARK  4 active torsions:
REMARK  status: ('A' for Active; 'I' for Inactive)
REMARK    1  A    between atoms: C2_2  and  C3_3
REMARK    2  A    between atoms: C3_3  and  C4_4
REMARK    3  A    between atoms: C4_4  and  C5_5
REMARK    4  A    between atoms: C9_10  and  O1_11
ROOT
HETATM    1  C5  UNL     1    -108.542  41.603  27.166  1.00  0.00     0.124 C
HETATM    2  C6  UNL     1    -109.290  42.653  27.829  1.00  0.00     0.059 C
HETATM    3  N1  UNL     1    -109.900  43.479  28.365  1.00  0.00    -0.197 NA
ENDROOT
BRANCH   1   4
HETATM    4  C4  UNL     1    -107.089  42.034  26.942  1.00  0.00     0.017 C
BRANCH   4   5
HETATM    5  C3  UNL     1    -106.506  42.273  28.313  1.00  0.00     0.038 C
BRANCH   5   6
HETATM    6  C2  UNL     1    -105.077  42.782  28.236  1.00  0.00     0.057 C
HETATM    7  C1  UNL     1    -104.185  41.565  28.463  1.00  0.00     0.046 C
HETATM    8  C7  UNL     1    -104.855  43.385  26.882  1.00  0.00     0.040 C
HETATM    9  C8  UNL     1    -103.776  44.423  26.848  1.00  0.00     0.036 C
HETATM   10  C9  UNL     1    -103.779  45.306  28.077  1.00  0.00     0.142 C
HETATM   11  C10 UNL     1    -103.767  44.383  29.279  1.00  0.00     0.200 C
HETATM   12  O2  UNL     1    -104.913  43.646  29.283  1.00  0.00    -0.378 OA
BRANCH  10  13
HETATM   13  O1  UNL     1    -104.871  46.137  28.137  1.00  0.00    -0.393 OA
ATOM     14  H1  UNL     1    -105.169  46.420  27.282  1.00  0.00     0.210 HD
ENDBRANCH  10  13
ENDBRANCH   5   6
ENDBRANCH   4   5
ENDBRANCH   1   4
TORSDOF 4
ENDMDL