MODEL 1
REMARK VINA RESULT: -7.899390410      0.000      0.000
REMARK  5 active torsions:
REMARK  status: ('A' for Active; 'I' for Inactive)
REMARK    1  A    between atoms: C6_6  and  C7_7
REMARK    2  A    between atoms: N1_11  and  C11_12
REMARK    3  A    between atoms: C13_20  and  C14_21
REMARK    4  A    between atoms: C14_21  and  O2_22
REMARK    5  A    between atoms: C14_21  and  C15_24
ROOT
HETATM    1  C11 UNL     1      -0.250  43.198 -11.121  1.00  0.00     0.138 A
HETATM    2  N2  UNL     1      -0.100  41.819 -10.945  1.00  0.00    -0.242 N
ATOM      3  H2  UNL     1       0.684  41.384 -10.460  1.00  0.00     0.196 HD
HETATM    4  O1  UNL     1      -1.055  41.180 -11.462  1.00  0.00    -0.218 OA
HETATM    5  C12 UNL     1      -1.933  41.993 -12.026  1.00  0.00     0.176 A
HETATM    6  N3  UNL     1      -2.974  41.555 -12.603  1.00  0.00    -0.378 N
ATOM      7  H31 UNL     1      -3.651  42.182 -13.038  1.00  0.00     0.158 HD
ATOM      8  H32 UNL     1      -3.328  40.609 -12.748  1.00  0.00     0.158 HD
HETATM    9  C13 UNL     1      -1.457  43.266 -11.831  1.00  0.00     0.075 A
ENDROOT
BRANCH   1  10
HETATM   10  N1  UNL     1       0.686  44.111 -10.639  1.00  0.00    -0.356 N
HETATM   11  C7  UNL     1       1.701  44.838 -11.316  1.00  0.00     0.126 C
HETATM   12  C8  UNL     1       2.876  43.923 -10.737  1.00  0.00     0.032 C
HETATM   13  C9  UNL     1       2.460  43.933  -9.255  1.00  0.00     0.022 C
HETATM   14  C10 UNL     1       0.977  44.388  -9.243  1.00  0.00     0.125 C
BRANCH  11  15
HETATM   15  C6  UNL     1       2.110  46.180 -10.859  1.00  0.00     0.012 A
HETATM   16  C4  UNL     1       1.510  47.400 -10.765  1.00  0.00    -0.046 A
HETATM   17  C3  UNL     1       2.247  48.447 -10.350  1.00  0.00     0.022 A
HETATM   18  C5  UNL     1       0.038  47.559 -11.122  1.00  0.00     0.049 C
HETATM   19  C2  UNL     1       3.554  48.234 -10.045  1.00  0.00    -0.020 A
HETATM   20  C1  UNL     1       4.569  49.252  -9.568  1.00  0.00     0.056 C
HETATM   21  S1  UNL     1       3.736  46.579 -10.339  1.00  0.00    -0.097 SA
ENDBRANCH  11  15
ENDBRANCH   1  10
BRANCH   9  22
HETATM   22  C14 UNL     1      -2.054  44.533 -12.234  1.00  0.00     0.231 C
BRANCH  22  23
HETATM   23  O2  UNL     1      -3.462  44.432 -12.093  1.00  0.00    -0.385 OA
ATOM     24  H2  UNL     1      -3.804  43.945 -12.833  1.00  0.00     0.210 HD
ENDBRANCH  22  23
BRANCH  22  25
HETATM   25  C15 UNL     1      -1.774  45.079 -13.597  1.00  0.00     0.269 C
HETATM   26  C16 UNL     1      -2.468  44.372 -14.712  1.00  0.00     0.093 C
HETATM   27  F1  UNL     1      -0.370  44.856 -13.840  1.00  0.00    -0.204 F
HETATM   28  F2  UNL     1      -1.845  46.462 -13.661  1.00  0.00    -0.204 F
ENDBRANCH  22  25
ENDBRANCH   9  22
TORSDOF 5
ENDMDL