MODEL 1
REMARK VINA RESULT: -8.148265750      0.000      0.000
REMARK  8 active torsions:
REMARK  status: ('A' for Active; 'I' for Inactive)
REMARK    1  A    between atoms: C5_10  and  C6_11
REMARK    2  A    between atoms: C6_11  and  C7_12
REMARK    3  A    between atoms: C7_12  and  C8_13
REMARK    4  A    between atoms: C8_13  and  O2_15
REMARK    5  A    between atoms: O2_15  and  C9_16
REMARK    6  A    between atoms: N2_18  and  C11_19
REMARK    7  A    between atoms: C17_25  and  O3_26
REMARK    8  A    between atoms: C18_28  and  O4_29
ROOT
HETATM    1  C9  UNL     1      -0.692  48.282 -10.860  1.00  0.00     0.125 A
HETATM    2  C10 UNL     1      -0.550  46.991 -11.419  1.00  0.00     0.133 A
HETATM    3  N2  UNL     1      -1.711  46.502 -11.807  1.00  0.00    -0.328 N
HETATM    4  C17 UNL     1      -2.633  47.432 -11.525  1.00  0.00     0.179 A
HETATM    5  C18 UNL     1      -2.034  48.551 -10.935  1.00  0.00     0.152 A
ENDROOT
BRANCH   1   6
HETATM    6  O2  UNL     1       0.327  49.048 -10.367  1.00  0.00    -0.308 OA
BRANCH   6   7
HETATM    7  C8  UNL     1       1.391  49.572 -11.072  1.00  0.00     0.337 C
HETATM    8  F3  UNL     1       2.109  50.381 -10.171  1.00  0.00    -0.215 F
BRANCH   7   9
HETATM    9  C7  UNL     1       2.315  48.494 -11.583  1.00  0.00     0.039 C
BRANCH   9  10
HETATM   10  C6  UNL     1       3.102  47.901 -10.753  1.00  0.00     0.021 C
BRANCH  10  11
HETATM   11  C5  UNL     1       2.832  46.768  -9.887  1.00  0.00     0.073 A
HETATM   12  C1  UNL     1       2.634  46.886  -8.536  1.00  0.00     0.258 A
HETATM   13  O1  UNL     1       2.670  47.990  -7.937  1.00  0.00    -0.267 OA
HETATM   14  N1  UNL     1       2.389  45.769  -7.810  1.00  0.00    -0.330 N
HETATM   15  C2  UNL     1       2.324  44.536  -8.322  1.00  0.00     0.137 A
ATOM     16  H1  UNL     1       2.245  45.876  -6.806  1.00  0.00     0.168 HD
HETATM   17  C3  UNL     1       2.521  44.401  -9.675  1.00  0.00     0.171 A
HETATM   18  F1  UNL     1       2.456  43.140 -10.202  1.00  0.00    -0.201 F
HETATM   19  C4  UNL     1       2.772  45.488 -10.460  1.00  0.00     0.172 A
HETATM   20  F2  UNL     1       2.961  45.320 -11.784  1.00  0.00    -0.202 F
ENDBRANCH  10  11
ENDBRANCH   9  10
ENDBRANCH   7   9
ENDBRANCH   6   7
ENDBRANCH   1   6
BRANCH   5  21
HETATM   21  O4  UNL     1      -2.712  49.691 -10.523  1.00  0.00    -0.354 OA
ATOM     22  H4  UNL     1      -3.302  50.241 -11.023  1.00  0.00     0.218 HD
ENDBRANCH   5  21
BRANCH   3  23
HETATM   23  C11 UNL     1      -2.050  45.239 -12.424  1.00  0.00     0.091 C
HETATM   24  C12 UNL     1      -1.113  44.123 -12.006  1.00  0.00     0.026 C
HETATM   25  C13 UNL     1      -1.857  42.834 -12.292  1.00  0.00     0.002 C
HETATM   26  C14 UNL     1      -2.877  43.023 -13.379  1.00  0.00     0.000 C
HETATM   27  C15 UNL     1      -2.402  43.963 -14.466  1.00  0.00     0.002 C
HETATM   28  C16 UNL     1      -1.992  45.309 -13.935  1.00  0.00     0.026 C
ENDBRANCH   3  23
BRANCH   4  29
HETATM   29  O3  UNL     1      -4.011  47.347 -11.765  1.00  0.00    -0.344 OA
ATOM     30  H3  UNL     1      -4.668  47.996 -11.540  1.00  0.00     0.219 HD
ENDBRANCH   4  29
TORSDOF 8
ENDMDL