MODEL 5
REMARK VINA RESULT: -6.662667718      1.632      2.066
REMARK  9 active torsions:
REMARK  status: ('A' for Active; 'I' for Inactive)
REMARK    1  A    between atoms: C2_2  and  C4_4
REMARK    2  A    between atoms: C5_5  and  C6_6
REMARK    3  A    between atoms: C7_8  and  N1_9
REMARK    4  A    between atoms: C8_11  and  C9_12
REMARK    5  A    between atoms: C9_12  and  C10_13
REMARK    6  A    between atoms: C10_13  and  O1_14
REMARK    7  A    between atoms: C10_13  and  N2_16
REMARK    8  A    between atoms: N2_16  and  O2_18
REMARK    9  A    between atoms: C11_20  and  C12_21
REMARK       I    between atoms: C12_21  and  N3_23
ROOT
HETATM    1  C6  UNL     1       0.771  48.592 -10.709  1.00  0.00     0.083 A
HETATM    2  S1  UNL     1      -0.523  47.792 -11.457  1.00  0.00    -0.060 SA
HETATM    3  C7  UNL     1       0.001  46.192 -11.305  1.00  0.00     0.092 A
HETATM    4  C11 UNL     1       1.225  46.309 -10.648  1.00  0.00     0.090 A
HETATM    5  C13 UNL     1       1.607  47.566 -10.347  1.00  0.00     0.078 A
HETATM    6 CL2  UNL     1       3.158  47.998  -9.539  1.00  0.00    -0.081 Cl
ENDROOT
BRANCH   3   7
HETATM    7  N1  UNL     1      -0.658  44.985 -11.746  1.00  0.00    -0.363 N
HETATM    8  C8  UNL     1      -1.853  45.085 -12.176  1.00  0.00     0.070 C
ATOM      9  H1  UNL     1      -0.182  44.083 -11.713  1.00  0.00     0.165 HD
BRANCH   8  10
HETATM   10  C9  UNL     1      -2.651  43.926 -12.661  1.00  0.00     0.130 C
BRANCH  10  11
HETATM   11  C10 UNL     1      -2.615  43.899 -14.131  1.00  0.00     0.140 C
BRANCH  11  12
HETATM   12  O1  UNL     1      -2.730  42.701 -14.800  1.00  0.00    -0.348 OA
ATOM     13  H1  UNL     1      -2.953  42.693 -15.723  1.00  0.00     0.219 HD
ENDBRANCH  11  12
BRANCH  11  14
HETATM   14  N2  UNL     1      -2.478  44.983 -14.809  1.00  0.00    -0.251 N
ATOM     15  H2  UNL     1      -1.803  45.689 -14.510  1.00  0.00     0.196 HD
BRANCH  14  16
HETATM   16  O2  UNL     1      -3.250  45.195 -15.949  1.00  0.00    -0.288 OA
ATOM     17  H2  UNL     1      -3.076  45.944 -16.509  1.00  0.00     0.244 HD
ENDBRANCH  14  16
ENDBRANCH  11  14
ENDBRANCH  10  11
ENDBRANCH   8  10
ENDBRANCH   3   7
BRANCH   4  18
HETATM   18  C12 UNL     1       1.982  45.054 -10.385  1.00  0.00     0.270 C
HETATM   19  O3  UNL     1       1.475  44.158  -9.617  1.00  0.00    -0.266 OA
HETATM   20  N3  UNL     1       3.244  44.732 -10.900  1.00  0.00    -0.264 N
HETATM   21 CL1  UNL     1       4.033  43.211 -10.522  1.00  0.00     0.013 Cl
ATOM     22  H3  UNL     1       3.716  45.399 -11.510  1.00  0.00     0.183 HD
ENDBRANCH   4  18
BRANCH   1  23
HETATM   23  C5  UNL     1       0.964  50.030 -10.493  1.00  0.00    -0.057 C
HETATM   24  C4  UNL     1       1.122  51.216 -10.340  1.00  0.00    -0.096 C
BRANCH  24  25
HETATM   25  C2  UNL     1       1.340  52.648 -10.155  1.00  0.00     0.057 C
HETATM   26  C1  UNL     1      -0.022  53.351 -10.144  1.00  0.00     0.023 C
HETATM   27  C3  UNL     1       1.925  52.830  -8.768  1.00  0.00     0.023 C
ENDBRANCH  24  25
ENDBRANCH   1  23
TORSDOF 9
ENDMDL