MODEL 4
REMARK VINA RESULT: -6.986870445      3.200      4.218
REMARK  4 active torsions:
REMARK  status: ('A' for Active; 'I' for Inactive)
REMARK    1  A    between atoms: S1_2  and  C2_3
REMARK    2  A    between atoms: C3_5  and  C4_6
REMARK       I    between atoms: C4_6  and  N1_8
REMARK    3  A    between atoms: N1_8  and  C5_10
REMARK    4  A    between atoms: C5_10  and  C6_11
ROOT
HETATM    1  C4  UNL     1       1.996  45.782 -10.358  1.00  0.00     0.261 C
HETATM    2  O1  UNL     1       2.767  45.355 -11.291  1.00  0.00    -0.267 OA
HETATM    3  N1  UNL     1       0.804  45.094 -10.050  1.00  0.00    -0.356 N
ATOM      4  H1  UNL     1       0.179  45.418  -9.312  1.00  0.00     0.162 HD
ENDROOT
BRANCH   3   5
HETATM    5  C5  UNL     1       0.504  43.905 -10.828  1.00  0.00     0.127 C
BRANCH   5   6
HETATM    6  C6  UNL     1      -0.751  44.056 -11.639  1.00  0.00     0.008 C
HETATM    7  C7  UNL     1      -0.544  44.913 -12.871  1.00  0.00     0.036 C
HETATM    8  C8  UNL     1      -1.891  45.223 -13.426  1.00  0.00     0.019 C
HETATM    9  C9  UNL     1      -2.409  46.460 -12.678  1.00  0.00     0.037 C
HETATM   10  C10 UNL     1      -1.747  45.682 -14.884  1.00  0.00     0.037 C
HETATM   11  N2  UNL     1      -2.862  44.227 -13.365  1.00  0.00    -0.405 N
HETATM   12  C11 UNL     1      -2.620  42.993 -12.777  1.00  0.00     0.019 C
ATOM     13  H2  UNL     1      -3.782  44.410 -13.766  1.00  0.00     0.154 HD
HETATM   14  C12 UNL     1      -2.827  41.895 -13.833  1.00  0.00     0.037 C
HETATM   15  C13 UNL     1      -3.681  42.753 -11.693  1.00  0.00     0.037 C
HETATM   16  C14 UNL     1      -1.289  42.749 -12.156  1.00  0.00     0.036 C
ENDBRANCH   5   6
ENDBRANCH   3   5
BRANCH   1  17
HETATM   17  C3  UNL     1       2.460  47.007  -9.674  1.00  0.00     0.115 A
HETATM   18  S2  UNL     1       1.963  48.608 -10.029  1.00  0.00    -0.071 SA
HETATM   19  C2  UNL     1       2.884  49.450  -8.879  1.00  0.00     0.083 A
HETATM   20  C16 UNL     1       3.569  48.455  -8.234  1.00  0.00     0.180 A
HETATM   21  C15 UNL     1       3.346  47.183  -8.651  1.00  0.00     0.179 A
HETATM   22  F2  UNL     1       4.458  48.753  -7.192  1.00  0.00    -0.201 F
HETATM   23  F1  UNL     1       4.014  46.115  -8.034  1.00  0.00    -0.201 F
BRANCH  19  24
HETATM   24  S1  UNL     1       2.976  51.230  -8.546  1.00  0.00    -0.124 SA
HETATM   25  C1  UNL     1       1.674  52.004  -9.579  1.00  0.00     0.096 C
ENDBRANCH  19  24
ENDBRANCH   1  17
TORSDOF 4
ENDMDL