MODEL 5
REMARK VINA RESULT: -8.250759584      3.603      7.190
REMARK  6 active torsions:
REMARK  status: ('A' for Active; 'I' for Inactive)
REMARK       I    between atoms: C1_2  and  N2_3
REMARK    1  A    between atoms: N3_5  and  C2_7
REMARK    2  A    between atoms: C2_7  and  C9_17
REMARK    3  A    between atoms: N4_8  and  O1_10
REMARK    4  A    between atoms: O1_10  and  C3_11
REMARK    5  A    between atoms: C11_19  and  O2_20
REMARK    6  A    between atoms: N5_27  and  O3_29
ROOT
HETATM    1  C2  UNL     1       0.164  46.251 -11.084  1.00  0.00     0.152 C
HETATM    2  N4  UNL     1      -0.534  45.763 -12.074  1.00  0.00    -0.248 N
ATOM      3  H4  UNL     1      -1.006  46.385 -12.730  1.00  0.00     0.196 HD
ENDROOT
BRANCH   1   4
HETATM    4  N3  UNL     1       0.825  45.388 -10.168  1.00  0.00    -0.281 N
HETATM    5  N2  UNL     1       1.672  44.514 -10.549  1.00  0.00    -0.270 N
HETATM    6  C1  UNL     1       2.280  43.699  -9.574  1.00  0.00     0.227 C
ATOM      7  H2  UNL     1       1.903  44.408 -11.537  1.00  0.00     0.189 HD
HETATM    8  N1  UNL     1       3.450  44.100  -8.889  1.00  0.00    -0.060 NA
HETATM    9  N5  UNL     1       1.758  42.546  -9.292  1.00  0.00    -0.240 N
ATOM     10  H5  UNL     1       2.201  41.958  -8.586  1.00  0.00     0.197 HD
ATOM     11  H3  UNL     1       0.615  45.470  -9.173  1.00  0.00     0.188 HD
BRANCH   9  12
HETATM   12  O3  UNL     1       0.619  42.097  -9.924  1.00  0.00    -0.287 OA
ATOM     13  H3  UNL     1       0.447  41.170 -10.039  1.00  0.00     0.244 HD
ENDBRANCH   9  12
ENDBRANCH   1   4
BRANCH   1  14
HETATM   14  C9  UNL     1       0.253  47.683 -10.938  1.00  0.00     0.035 A
HETATM   15  C10 UNL     1      -0.887  48.428 -10.759  1.00  0.00     0.056 A
HETATM   16  C11 UNL     1      -0.787  49.792 -10.621  1.00  0.00     0.105 A
HETATM   17  C12 UNL     1       0.443  50.389 -10.664  1.00  0.00     0.151 A
HETATM   18  F1  UNL     1       0.504  51.730 -10.526  1.00  0.00    -0.203 F
HETATM   19  C13 UNL     1       1.585  49.646 -10.843  1.00  0.00     0.070 A
HETATM   20  C14 UNL     1       1.474  48.284 -10.979  1.00  0.00     0.051 A
HETATM   21 CL1  UNL     1       2.970  47.384 -11.207  1.00  0.00    -0.083 Cl
BRANCH  16  22
HETATM   22  O2  UNL     1      -1.972  50.505 -10.441  1.00  0.00    -0.358 OA
ATOM     23  H2  UNL     1      -1.910  51.353 -10.018  1.00  0.00     0.217 HD
ENDBRANCH  16  22
ENDBRANCH   1  14
BRANCH   2  24
HETATM   24  O1  UNL     1      -0.623  44.420 -12.218  1.00  0.00    -0.273 OA
BRANCH  24  25
HETATM   25  C3  UNL     1      -1.828  43.754 -12.534  1.00  0.00     0.152 C
HETATM   26  C4  UNL     1      -1.679  42.288 -12.200  1.00  0.00     0.034 C
HETATM   27  C5  UNL     1      -3.032  41.673 -12.462  1.00  0.00     0.002 C
HETATM   28  C6  UNL     1      -3.296  41.694 -13.921  1.00  0.00     0.000 C
HETATM   29  C7  UNL     1      -2.728  42.804 -14.693  1.00  0.00     0.002 C
HETATM   30  C8  UNL     1      -2.248  43.994 -13.948  1.00  0.00     0.034 C
ENDBRANCH  24  25
ENDBRANCH   2  24
TORSDOF 6
ENDMDL