MODEL 4
REMARK VINA RESULT: -6.834686659      2.700      6.140
REMARK  6 active torsions:
REMARK  status: ('A' for Active; 'I' for Inactive)
REMARK    1  A    between atoms: C2_3  and  O1_4
REMARK    2  A    between atoms: C4_8  and  C5_9
REMARK    3  A    between atoms: C5_9  and  C6_10
REMARK    4  A    between atoms: C5_9  and  C12_21
REMARK       I    between atoms: C6_10  and  N2_12
REMARK    5  A    between atoms: N2_12  and  C7_14
REMARK    6  A    between atoms: C15_24  and  O3_25
ROOT
HETATM    1  C5  UNL     1       0.940  45.616 -10.324  1.00  0.00     0.121 C
ENDROOT
BRANCH   1   2
HETATM    2  C4  UNL     1       1.949  44.608  -9.942  1.00  0.00     0.032 A
HETATM    3  C3  UNL     1       2.013  43.888  -8.754  1.00  0.00     0.096 A
HETATM    4  C2  UNL     1       3.079  43.031  -8.838  1.00  0.00     0.166 A
HETATM    5 CL1  UNL     1       0.908  44.082  -7.426  1.00  0.00    -0.079 Cl
HETATM    6  N1  UNL     1       3.680  43.187 -10.028  1.00  0.00    -0.311 N
HETATM    7  C1  UNL     1       4.844  42.457 -10.486  1.00  0.00     0.160 C
HETATM    8  C15 UNL     1       2.983  44.156 -10.704  1.00  0.00     0.152 A
BRANCH   4   9
HETATM    9  O1  UNL     1       3.453  42.140  -7.814  1.00  0.00    -0.345 OA
ATOM     10  H1  UNL     1       3.004  41.342  -7.561  1.00  0.00     0.219 HD
ENDBRANCH   4   9
BRANCH   8  11
HETATM   11  O3  UNL     1       3.404  44.509 -11.984  1.00  0.00    -0.345 OA
ATOM     12  H3  UNL     1       2.953  45.216 -12.431  1.00  0.00     0.219 HD
ENDBRANCH   8  11
ENDBRANCH   1   2
BRANCH   1  13
HETATM   13  C6  UNL     1       0.014  45.020 -11.334  1.00  0.00     0.229 C
HETATM   14  O2  UNL     1       0.450  44.791 -12.491  1.00  0.00    -0.273 OA
HETATM   15  N2  UNL     1      -1.324  44.706 -11.041  1.00  0.00    -0.329 N
ATOM     16  H2  UNL     1      -1.690  44.887 -10.107  1.00  0.00     0.165 HD
BRANCH  15  17
HETATM   17  C7  UNL     1      -2.179  44.137 -12.033  1.00  0.00     0.160 C
HETATM   18 CL2  UNL     1      -3.868  44.030 -11.503  1.00  0.00    -0.083 Cl
HETATM   19  C8  UNL     1      -2.159  44.891 -13.340  1.00  0.00     0.060 C
HETATM   20  C9  UNL     1      -2.166  43.986 -14.548  1.00  0.00     0.005 C
HETATM   21  C10 UNL     1      -3.200  42.898 -14.464  1.00  0.00     0.010 C
HETATM   22  C11 UNL     1      -2.736  41.737 -13.602  1.00  0.00     0.077 C
HETATM   23  S1  UNL     1      -1.611  42.425 -12.357  1.00  0.00    -0.122 SA
ENDBRANCH  15  17
ENDBRANCH   1  13
BRANCH   1  24
HETATM   24  C12 UNL     1       1.591  46.859 -10.818  1.00  0.00     0.003 A
HETATM   25  C13 UNL     1       1.485  48.056  -9.889  1.00  0.00     0.006 A
HETATM   26  C14 UNL     1       0.803  48.044 -11.237  1.00  0.00     0.006 A
ENDBRANCH   1  24
TORSDOF 6
ENDMDL