MODEL 2
REMARK VINA RESULT: -7.173731314      1.432      3.203
REMARK  6 active torsions:
REMARK  status: ('A' for Active; 'I' for Inactive)
REMARK    1  A    between atoms: C2_2  and  C3_3
REMARK    2  A    between atoms: C3_3  and  O1_4
REMARK    3  A    between atoms: C13_17  and  C14_18
REMARK    4  A    between atoms: C14_18  and  O2_19
REMARK    5  A    between atoms: O2_19  and  C15_20
REMARK    6  A    between atoms: C18_27  and  N3_28
ROOT
HETATM    1  C3  UNL     1       2.068  46.626 -10.580  1.00  0.00     0.071 C
HETATM    2  C4  UNL     1       3.602  46.621 -10.790  1.00  0.00     0.078 C
HETATM    3  C5  UNL     1       4.226  45.494 -10.092  1.00  0.00    -0.011 C
HETATM    4  C6  UNL     1       5.341  45.667  -9.398  1.00  0.00     0.194 C
HETATM    5  F1  UNL     1       5.911  46.886  -9.327  1.00  0.00    -0.219 F
HETATM    6  C7  UNL     1       3.531  44.175 -10.221  1.00  0.00     0.130 C
HETATM    7  F2  UNL     1       4.491  43.256 -10.582  1.00  0.00    -0.238 F
HETATM    8  C8  UNL     1       2.874  43.873  -8.925  1.00  0.00     0.057 C
HETATM    9  C9  UNL     1       1.396  43.751  -8.961  1.00  0.00    -0.043 C
HETATM   10  C10 UNL     1       1.043  42.311  -9.342  1.00  0.00     0.015 C
HETATM   11  C11 UNL     1       0.900  43.914  -7.514  1.00  0.00     0.015 C
HETATM   12  C12 UNL     1       0.665  44.736  -9.788  1.00  0.00     0.023 C
HETATM   13  C13 UNL     1       1.462  45.331 -10.931  1.00  0.00     0.017 C
HETATM   14  C19 UNL     1       2.568  44.355 -11.366  1.00  0.00     0.063 C
ENDROOT
BRANCH  13  15
HETATM   15  C14 UNL     1       0.525  45.347 -12.127  1.00  0.00     0.190 C
BRANCH  15  16
HETATM   16  O2  UNL     1      -0.826  45.131 -11.673  1.00  0.00    -0.332 OA
BRANCH  16  17
HETATM   17  C15 UNL     1      -1.486  44.081 -12.302  1.00  0.00     0.187 A
HETATM   18  N1  UNL     1      -1.570  42.834 -11.814  1.00  0.00    -0.343 N
HETATM   19  C16 UNL     1      -2.219  41.837 -12.451  1.00  0.00     0.107 A
ATOM     20  H1  UNL     1      -1.122  42.630 -10.921  1.00  0.00     0.167 HD
HETATM   21  C17 UNL     1      -2.829  42.093 -13.658  1.00  0.00     0.107 A
HETATM   22  N2  UNL     1      -2.763  43.317 -14.165  1.00  0.00    -0.348 N
HETATM   23  C18 UNL     1      -2.116  44.304 -13.526  1.00  0.00     0.151 A
ATOM     24  H2  UNL     1      -3.214  43.512 -15.060  1.00  0.00     0.167 HD
BRANCH  23  25
HETATM   25  N3  UNL     1      -2.090  45.465 -14.073  1.00  0.00    -0.382 N
ATOM     26  H32 UNL     1      -1.277  46.057 -13.907  1.00  0.00     0.157 HD
ATOM     27  H31 UNL     1      -2.865  45.781 -14.657  1.00  0.00     0.157 HD
ENDBRANCH  23  25
ENDBRANCH  16  17
ENDBRANCH  15  16
ENDBRANCH  13  15
BRANCH   1  28
HETATM   28  C2  UNL     1       1.616  47.845 -11.308  1.00  0.00     0.034 C
HETATM   29  C1  UNL     1       0.552  48.653 -10.646  1.00  0.00     0.008 C
ENDBRANCH   1  28
BRANCH   1  30
HETATM   30  O1  UNL     1       1.958  46.941  -9.201  1.00  0.00    -0.389 OA
ATOM     31  H1  UNL     1       2.807  46.741  -8.824  1.00  0.00     0.210 HD
ENDBRANCH   1  30
TORSDOF 6
ENDMDL