MODEL 5
REMARK VINA RESULT: -7.236623263      2.973      4.798
REMARK  7 active torsions:
REMARK  status: ('A' for Active; 'I' for Inactive)
REMARK    1  A    between atoms: C4_6  and  O1_7
REMARK    2  A    between atoms: C6_11  and  O2_12
REMARK    3  A    between atoms: C8_15  and  C9_16
REMARK    4  A    between atoms: C9_16  and  C10_17
REMARK    5  A    between atoms: C10_17  and  C11_18
REMARK    6  A    between atoms: C11_18  and  C12_19
REMARK    7  A    between atoms: C17_25  and  O3_26
ROOT
HETATM    1  C1  UNL     1      -0.101  52.969 -10.346  1.00  0.00     0.071 C
HETATM    2  C2  UNL     1       0.411  51.582 -10.166  1.00  0.00     0.040 A
HETATM    3  N1  UNL     1       1.690  51.335  -9.851  1.00  0.00    -0.353 N
ATOM      4  H1  UNL     1       2.313  52.134  -9.734  1.00  0.00     0.166 HD
HETATM    5  C3  UNL     1       2.201  50.119  -9.678  1.00  0.00     0.099 A
HETATM    6  C4  UNL     1       3.428  49.585  -9.355  1.00  0.00     0.172 A
HETATM    7  N2  UNL     1       3.359  48.248  -9.310  1.00  0.00    -0.310 N
HETATM    8  C5  UNL     1       4.460  47.321  -8.999  1.00  0.00     0.160 C
HETATM    9  C6  UNL     1       2.096  47.904  -9.601  1.00  0.00     0.157 A
HETATM   10  C7  UNL     1       1.340  49.034  -9.839  1.00  0.00     0.055 A
HETATM   11  C8  UNL     1       0.009  49.237 -10.165  1.00  0.00    -0.006 A
HETATM   12  C17 UNL     1      -0.476  50.522 -10.334  1.00  0.00     0.095 A
ENDROOT
BRANCH  11  13
HETATM   13  C9  UNL     1      -0.895  48.092 -10.366  1.00  0.00     0.042 C
BRANCH  13  14
HETATM   14  C10 UNL     1      -0.916  47.674 -11.798  1.00  0.00     0.005 C
BRANCH  14  15
HETATM   15  C11 UNL     1      -0.303  46.288 -11.998  1.00  0.00     0.005 C
BRANCH  15  16
HETATM   16  C12 UNL     1      -1.417  45.397 -12.471  1.00  0.00    -0.013 C
HETATM   17  C13 UNL     1      -1.417  45.226 -13.982  1.00  0.00     0.006 C
HETATM   18  C14 UNL     1      -2.467  44.111 -14.095  1.00  0.00     0.020 C
HETATM   19  C15 UNL     1      -2.141  43.200 -12.912  1.00  0.00     0.082 C
HETATM   20 CL1  UNL     1      -3.604  42.781 -11.994  1.00  0.00    -0.125 Cl
HETATM   21  C16 UNL     1      -1.217  43.971 -12.009  1.00  0.00     0.024 C
ENDBRANCH  15  16
ENDBRANCH  14  15
ENDBRANCH  13  14
ENDBRANCH  11  13
BRANCH  12  22
HETATM   22  O3  UNL     1      -1.808  50.736 -10.660  1.00  0.00    -0.358 OA
ATOM     23  H3  UNL     1      -2.402  51.168 -10.058  1.00  0.00     0.217 HD
ENDBRANCH  12  22
BRANCH   9  24
HETATM   24  O2  UNL     1       1.665  46.573  -9.642  1.00  0.00    -0.345 OA
ATOM     25  H2  UNL     1       2.033  45.933 -10.240  1.00  0.00     0.219 HD
ENDBRANCH   9  24
BRANCH   6  26
HETATM   26  O1  UNL     1       4.591  50.296  -9.105  1.00  0.00    -0.344 OA
ATOM     27  H1  UNL     1       5.431  50.167  -9.529  1.00  0.00     0.219 HD
ENDBRANCH   6  26
TORSDOF 7
ENDMDL