MODEL 2
REMARK VINA RESULT: -7.571819145      3.562      4.370
REMARK  5 active torsions:
REMARK  status: ('A' for Active; 'I' for Inactive)
REMARK    1  A    between atoms: O1_2  and  C2_3
REMARK    2  A    between atoms: C4_5  and  N1_6
REMARK    3  A    between atoms: C5_7  and  O2_8
REMARK    4  A    between atoms: C8_12  and  O3_13
REMARK    5  A    between atoms: C17_25  and  O4_26
ROOT
HETATM    1  N1  UNL     1       1.881  45.873 -10.800  1.00  0.00    -0.270 N
HETATM    2  C5  UNL     1       0.884  46.773 -10.743  1.00  0.00     0.156 A
HETATM    3  C6  UNL     1      -0.168  46.416 -11.561  1.00  0.00     0.005 A
HETATM    4  C7  UNL     1       0.210  45.230 -12.152  1.00  0.00     0.013 A
HETATM    5  C8  UNL     1       1.467  44.930 -11.664  1.00  0.00     0.157 A
HETATM    6  C9  UNL     1      -0.834  44.736 -13.060  1.00  0.00     0.060 A
HETATM    7  C10 UNL     1      -1.744  43.812 -12.382  1.00  0.00    -0.078 A
HETATM    8  C11 UNL     1      -1.640  42.396 -11.924  1.00  0.00     0.044 C
HETATM    9  C12 UNL     1      -2.731  44.694 -12.311  1.00  0.00    -0.018 A
HETATM   10  C13 UNL     1      -1.936  45.734 -12.984  1.00  0.00     0.025 A
HETATM   11  C14 UNL     1      -1.537  46.818 -12.043  1.00  0.00     0.053 A
ENDROOT
BRANCH   1  12
HETATM   12  C4  UNL     1       3.126  45.921 -10.084  1.00  0.00     0.071 A
HETATM   13  C3  UNL     1       4.186  46.654 -10.577  1.00  0.00     0.071 A
HETATM   14  C2  UNL     1       5.398  46.706  -9.887  1.00  0.00     0.106 A
HETATM   15  C17 UNL     1       5.577  46.030  -8.699  1.00  0.00     0.142 A
HETATM   16  C16 UNL     1       4.518  45.295  -8.206  1.00  0.00     0.176 A
HETATM   17  C15 UNL     1       3.328  45.253  -8.894  1.00  0.00     0.102 A
HETATM   18  F1  UNL     1       4.694  44.623  -7.025  1.00  0.00    -0.201 F
HETATM   19 CL1  UNL     1       2.012  44.309  -8.232  1.00  0.00    -0.079 Cl
BRANCH  14  20
HETATM   20  O1  UNL     1       6.482  47.437 -10.361  1.00  0.00    -0.353 OA
HETATM   21  C1  UNL     1       6.532  48.813 -10.046  1.00  0.00     0.210 C
ENDBRANCH  14  20
BRANCH  15  22
HETATM   22  O4  UNL     1       6.802  46.099  -8.031  1.00  0.00    -0.350 OA
HETATM   23  C18 UNL     1       6.938  46.917  -6.889  1.00  0.00     0.210 C
ENDBRANCH  15  22
ENDBRANCH   1  12
BRANCH   2  24
HETATM   24  O2  UNL     1       0.926  47.922  -9.944  1.00  0.00    -0.345 OA
ATOM     25  H2  UNL     1       0.972  47.899  -8.996  1.00  0.00     0.219 HD
ENDBRANCH   2  24
BRANCH   5  26
HETATM   26  O3  UNL     1       2.265  43.819 -11.974  1.00  0.00    -0.345 OA
ATOM     27  H3  UNL     1       2.827  43.414 -11.323  1.00  0.00     0.219 HD
ENDBRANCH   5  26
TORSDOF 5
ENDMDL