MODEL 5
REMARK VINA RESULT: -7.881839950      2.754      4.197
REMARK  4 active torsions:
REMARK  status: ('A' for Active; 'I' for Inactive)
REMARK    1  A    between atoms: C2_2  and  C3_3
REMARK    2  A    between atoms: C6_14  and  S2_15
REMARK    3  A    between atoms: S2_15  and  C7_16
REMARK    4  A    between atoms: C7_16  and  C8_17
ROOT
HETATM    1  C3  UNL     1       0.303  45.185 -12.001  1.00  0.00     0.136 C
HETATM    2  N1  UNL     1      -0.574  44.655 -12.995  1.00  0.00    -0.218 N
ATOM      3  H1  UNL     1      -0.195  44.025 -13.703  1.00  0.00     0.178 HD
HETATM    4  C4  UNL     1      -1.950  44.975 -13.030  1.00  0.00     0.673 C
HETATM    5  N2  UNL     1      -2.795  44.199 -13.597  1.00  0.00    -0.235 N
ATOM      6  H21 UNL     1      -3.788  44.430 -13.622  1.00  0.00     0.174 HD
ATOM      7  H22 UNL     1      -2.532  43.322 -14.048  1.00  0.00     0.174 HD
HETATM    8  N3  UNL     1      -2.315  46.190 -12.406  1.00  0.00    -0.185 N
ATOM      9  H3  UNL     1      -3.287  46.497 -12.398  1.00  0.00     0.185 HD
HETATM   10  C5  UNL     1      -1.286  46.990 -11.778  1.00  0.00     0.101 A
HETATM   11  S1  UNL     1      -1.288  48.611 -11.186  1.00  0.00    -0.063 SA
HETATM   12  C6  UNL     1       0.392  48.802 -10.890  1.00  0.00     0.065 A
HETATM   13  C14 UNL     1       0.904  47.593 -11.257  1.00  0.00     0.079 A
HETATM   14  C15 UNL     1       2.359  47.342 -11.184  1.00  0.00     0.102 C
HETATM   15  N4  UNL     1       3.518  47.118 -11.131  1.00  0.00    -0.191 NA
HETATM   16  C16 UNL     1       0.026  46.655 -11.712  1.00  0.00     0.022 A
ENDROOT
BRANCH  12  17
HETATM   17  S2  UNL     1       1.127  50.289 -10.248  1.00  0.00    -0.116 SA
BRANCH  17  18
HETATM   18  C7  UNL     1       0.012  51.649  -9.991  1.00  0.00     0.118 C
BRANCH  18  19
HETATM   19  C8  UNL     1       0.756  52.913 -10.183  1.00  0.00    -0.043 A
HETATM   20  C9  UNL     1       0.086  54.023 -10.616  1.00  0.00     0.050 A
HETATM   21  C10 UNL     1       0.742  55.243 -10.814  1.00  0.00     0.119 A
HETATM   22  F1  UNL     1       0.057  56.328 -11.244  1.00  0.00    -0.206 F
HETATM   23  C11 UNL     1       2.090  55.313 -10.564  1.00  0.00     0.084 A
HETATM   24  C12 UNL     1       2.777  54.208 -10.129  1.00  0.00     0.119 A
HETATM   25  F2  UNL     1       4.093  54.316  -9.894  1.00  0.00    -0.206 F
HETATM   26  C13 UNL     1       2.098  52.999  -9.938  1.00  0.00     0.050 A
ENDBRANCH  18  19
ENDBRANCH  17  18
ENDBRANCH  12  17
BRANCH   1  27
HETATM   27  C2  UNL     1      -0.059  44.404 -10.718  1.00  0.00     0.026 C
HETATM   28  C1  UNL     1       1.122  44.117  -9.865  1.00  0.00     0.007 C
ENDBRANCH   1  27
TORSDOF 4
ENDMDL