MODEL 1
REMARK VINA RESULT: -6.228184191      0.000      0.000
REMARK  4 active torsions:
REMARK  status: ('A' for Active; 'I' for Inactive)
REMARK    1  A    between atoms: C2_2  and  C3_3
REMARK    2  A    between atoms: C3_3  and  C4_4
REMARK    3  A    between atoms: C7_10  and  C8_11
REMARK    4  A    between atoms: C9_12  and  C10_14
ROOT
HETATM    1  C4  UNL     1      -2.446   1.584  11.246  1.00  0.00     0.013 A
HETATM    2  C5  UNL     1      -3.514   0.730  11.250  1.00  0.00     0.032 A
HETATM    3  C6  UNL     1      -3.658  -0.429  10.317  1.00  0.00     0.070 C
HETATM    4  N1  UNL     1      -4.385   1.130  12.221  1.00  0.00    -0.295 N
ATOM      5  H1  UNL     1      -5.270   0.673  12.444  1.00  0.00     0.187 HD
HETATM    6  N2  UNL     1      -3.902   2.208  12.831  1.00  0.00    -0.220 N
HETATM    7  C7  UNL     1      -4.153   3.114  13.789  1.00  0.00     0.145 A
HETATM    8  N3  UNL     1      -3.118   3.965  13.795  1.00  0.00    -0.282 N
ATOM      9  H3  UNL     1      -3.019   4.766  14.417  1.00  0.00     0.188 HD
HETATM   10  N4  UNL     1      -2.256   3.608  12.881  1.00  0.00    -0.282 N
ATOM     11  H4  UNL     1      -1.377   4.081  12.670  1.00  0.00     0.188 HD
HETATM   12  C12 UNL     1      -2.730   2.508  12.264  1.00  0.00     0.152 A
ENDROOT
BRANCH   7  13
HETATM   13  C8  UNL     1      -5.306   3.207  14.697  1.00  0.00     0.072 C
HETATM   14  C9  UNL     1      -5.464   2.410  15.726  1.00  0.00     0.031 C
HETATM   15 BR1  UNL     1      -4.175   1.059  16.106  1.00  0.00    -0.050 Br
BRANCH  14  16
HETATM   16  C10 UNL     1      -6.629   2.577  16.571  1.00  0.00     0.022 C
HETATM   17  C11 UNL     1      -7.033   3.958  16.941  1.00  0.00     0.062 C
HETATM   18  S1  UNL     1      -7.448   1.257  17.049  1.00  0.00    -0.084 SA
ENDBRANCH  14  16
ENDBRANCH   7  13
BRANCH   1  19
HETATM   19  C3  UNL     1      -1.224   1.674  10.424  1.00  0.00     0.044 C
BRANCH  19  20
HETATM   20  C2  UNL     1      -1.177   3.063   9.823  1.00  0.00     0.000 C
HETATM   21  C1  UNL     1       0.242   3.565   9.752  1.00  0.00     0.005 C
ENDBRANCH  19  20
ENDBRANCH   1  19
TORSDOF 4
ENDMDL