MODEL 2
REMARK VINA RESULT: -7.039169538      1.375      1.610
REMARK  8 active torsions:
REMARK  status: ('A' for Active; 'I' for Inactive)
REMARK    1  A    between atoms: C2_2  and  N1_4
REMARK    2  A    between atoms: N1_4  and  C4_6
REMARK    3  A    between atoms: C4_6  and  O1_7
REMARK    4  A    between atoms: C5_9  and  C6_10
REMARK    5  A    between atoms: C6_10  and  C7_11
REMARK    6  A    between atoms: C7_11  and  C8_12
REMARK    7  A    between atoms: C8_12  and  C9_13
REMARK    8  A    between atoms: C11_15  and  N2_16
ROOT
HETATM    1  C7  UNL     1      -4.917   5.634  12.928  1.00  0.00     0.003 C
ENDROOT
BRANCH   1   2
HETATM    2  C6  UNL     1      -3.577   6.037  12.758  1.00  0.00     0.004 C
BRANCH   2   3
HETATM    3  C5  UNL     1      -2.494   5.359  12.884  1.00  0.00     0.055 C
HETATM    4  C4  UNL     1      -1.974   4.221  12.236  1.00  0.00     0.135 C
BRANCH   4   5
HETATM    5  N1  UNL     1      -2.428   3.399  11.219  1.00  0.00    -0.367 N
ATOM      6  H1  UNL     1      -2.428   3.720  10.250  1.00  0.00     0.162 HD
BRANCH   5   7
HETATM    7  C2  UNL     1      -2.918   2.025  11.574  1.00  0.00     0.075 C
HETATM    8  C1  UNL     1      -2.005   0.983  10.987  1.00  0.00     0.032 C
HETATM    9  C3  UNL     1      -4.327   1.876  11.022  1.00  0.00     0.032 C
ENDBRANCH   5   7
ENDBRANCH   4   5
BRANCH   4  10
HETATM   10  O1  UNL     1      -0.771   3.875  12.730  1.00  0.00    -0.346 OA
ATOM     11  H1  UNL     1      -0.535   4.326  13.532  1.00  0.00     0.219 HD
ENDBRANCH   4  10
ENDBRANCH   2   3
ENDBRANCH   1   2
BRANCH   1  12
HETATM   12  C8  UNL     1      -5.519   5.413  14.057  1.00  0.00     0.037 C
BRANCH  12  13
HETATM   13  C9  UNL     1      -5.630   4.144  14.739  1.00  0.00     0.079 A
HETATM   14  C10 UNL     1      -4.670   3.108  14.668  1.00  0.00     0.076 A
HETATM   15  C11 UNL     1      -5.098   2.058  15.434  1.00  0.00     0.146 A
HETATM   16  C12 UNL     1      -6.301   2.471  15.953  1.00  0.00     0.155 A
HETATM   17 BR1  UNL     1      -7.359   1.369  17.122  1.00  0.00    -0.020 Br
HETATM   18  O4  UNL     1      -6.554   3.663  15.526  1.00  0.00    -0.301 OA
BRANCH  15  19
HETATM   19  N2  UNL     1      -4.456   0.811  15.654  1.00  0.00    -0.112 N
HETATM   20  O2  UNL     1      -3.458   0.756  16.356  1.00  0.00    -0.532 OA
HETATM   21  O3  UNL     1      -4.947  -0.335  15.084  1.00  0.00    -0.532 OA
ENDBRANCH  15  19
ENDBRANCH  12  13
ENDBRANCH   1  12
TORSDOF 8
ENDMDL