MODEL 4
REMARK VINA RESULT: -7.999778159      1.013      1.660
REMARK  4 active torsions:
REMARK  status: ('A' for Active; 'I' for Inactive)
REMARK    1  A    between atoms: C3_4  and  C4_5
REMARK       I    between atoms: C4_5  and  N1_7
REMARK    2  A    between atoms: N1_7  and  C5_9
REMARK    3  A    between atoms: C5_9  and  C6_10
REMARK    4  A    between atoms: C5_9  and  C12_16
ROOT
HETATM    1  C5  UNL     1      -4.477   2.564  14.321  1.00  0.00     0.048 C
ENDROOT
BRANCH   1   2
HETATM    2  N1  UNL     1      -4.127   3.918  14.082  1.00  0.00    -0.323 N
HETATM    3  C4  UNL     1      -2.893   4.467  13.685  1.00  0.00     0.279 C
HETATM    4  O2  UNL     1      -1.864   3.802  13.494  1.00  0.00    -0.265 OA
ATOM      5  H1  UNL     1      -4.880   4.592  14.216  1.00  0.00     0.169 HD
BRANCH   3   6
HETATM    6  C3  UNL     1      -2.753   5.935  13.466  1.00  0.00     0.146 A
HETATM    7  O1  UNL     1      -3.003   6.581  12.349  1.00  0.00    -0.307 OA
HETATM    8  C2  UNL     1      -2.780   7.855  12.491  1.00  0.00     0.088 A
HETATM    9  C1  UNL     1      -2.931   8.955  11.490  1.00  0.00     0.080 C
HETATM   10  C17 UNL     1      -2.355   8.084  13.780  1.00  0.00     0.148 A
HETATM   11  C16 UNL     1      -2.339   6.853  14.399  1.00  0.00     0.087 A
HETATM   12  F1  UNL     1      -2.012   9.283  14.347  1.00  0.00    -0.203 F
ENDBRANCH   3   6
ENDBRANCH   1   2
BRANCH   1  13
HETATM   13  C6  UNL     1      -5.471   2.258  15.377  1.00  0.00     0.036 C
HETATM   14  C7  UNL     1      -5.890   3.403  16.244  1.00  0.00     0.010 C
HETATM   15  C8  UNL     1      -7.126   3.009  17.031  1.00  0.00     0.001 C
HETATM   16  C9  UNL     1      -7.107   1.509  17.305  1.00  0.00     0.000 C
HETATM   17  C10 UNL     1      -5.693   1.127  17.591  1.00  0.00     0.001 C
HETATM   18  C11 UNL     1      -4.934   1.129  16.252  1.00  0.00     0.010 C
ENDBRANCH   1  13
BRANCH   1  19
HETATM   19  C12 UNL     1      -4.709   1.746  13.104  1.00  0.00     0.306 C
HETATM   20  O3  UNL     1      -3.523   1.101  12.670  1.00  0.00    -0.356 OA
HETATM   21  C13 UNL     1      -3.869  -0.020  11.898  1.00  0.00     0.173 C
HETATM   22  C14 UNL     1      -4.721   0.479  10.748  1.00  0.00     0.053 C
HETATM   23  C15 UNL     1      -4.710   1.990  10.799  1.00  0.00     0.173 C
HETATM   24  O4  UNL     1      -5.128   2.498  12.008  1.00  0.00    -0.356 OA
ENDBRANCH   1  19
TORSDOF 4
ENDMDL