MODEL 3
REMARK VINA RESULT: -7.228904902      2.838      5.405
REMARK  7 active torsions:
REMARK  status: ('A' for Active; 'I' for Inactive)
REMARK    1  A    between atoms: C3_6  and  C4_7
REMARK    2  A    between atoms: C7_11  and  C8_12
REMARK    3  A    between atoms: C8_12  and  O2_13
REMARK    4  A    between atoms: C8_12  and  N2_15
REMARK    5  A    between atoms: N2_15  and  C9_17
REMARK    6  A    between atoms: C9_17  and  C10_18
REMARK    7  A    between atoms: N3_20  and  C12_21
ROOT
HETATM    1  C8  UNL     1      -4.920   3.114  14.509  1.00  0.00     0.150 C
ENDROOT
BRANCH   1   2
HETATM    2  C7  UNL     1      -4.701   1.699  14.509  1.00  0.00     0.073 A
HETATM    3  C2  UNL     1      -4.933   0.898  15.662  1.00  0.00     0.089 A
HETATM    4  C1  UNL     1      -5.363   1.432  16.981  1.00  0.00     0.080 C
HETATM    5  O1  UNL     1      -4.696  -0.325  15.315  1.00  0.00    -0.241 OA
HETATM    6  N1  UNL     1      -4.343  -0.407  14.087  1.00  0.00    -0.261 N
HETATM    7  C3  UNL     1      -4.324   0.842  13.507  1.00  0.00     0.088 A
ATOM      8  H1  UNL     1      -4.108  -1.276  13.606  1.00  0.00     0.194 HD
BRANCH   7   9
HETATM    9  C4  UNL     1      -3.966   1.115  12.095  1.00  0.00     0.141 C
HETATM   10  C5  UNL     1      -5.130   1.608  11.264  1.00  0.00     0.058 C
HETATM   11  C6  UNL     1      -3.708  -0.319  11.494  1.00  0.00     0.058 C
HETATM   12  F1  UNL     1      -2.818   1.834  11.921  1.00  0.00    -0.237 F
ENDBRANCH   7   9
ENDBRANCH   1   2
BRANCH   1  13
HETATM   13  O2  UNL     1      -6.124   3.497  14.202  1.00  0.00    -0.346 OA
ATOM     14  H2  UNL     1      -6.359   3.415  13.285  1.00  0.00     0.219 HD
ENDBRANCH   1  13
BRANCH   1  15
HETATM   15  N2  UNL     1      -4.046   4.149  14.791  1.00  0.00    -0.370 N
ATOM     16  H2  UNL     1      -4.180   4.737  15.614  1.00  0.00     0.161 HD
BRANCH  15  17
HETATM   17  C9  UNL     1      -2.916   4.385  13.871  1.00  0.00     0.130 C
BRANCH  17  18
HETATM   18  C10 UNL     1      -3.136   5.553  12.973  1.00  0.00     0.060 A
HETATM   19  C11 UNL     1      -4.367   6.372  13.216  1.00  0.00     0.280 A
HETATM   20  N3  UNL     1      -5.018   5.900  12.022  1.00  0.00     0.094 N
HETATM   21  C17 UNL     1      -3.858   5.123  11.710  1.00  0.00     0.280 A
BRANCH  20  22
HETATM   22  C12 UNL     1      -5.351   6.937  11.063  1.00  0.00     0.223 C
HETATM   23  C13 UNL     1      -5.496   6.403   9.675  1.00  0.00     0.036 C
HETATM   24  C14 UNL     1      -6.901   6.744   9.216  1.00  0.00     0.002 C
HETATM   25  C15 UNL     1      -7.326   7.921  10.067  1.00  0.00     0.002 C
HETATM   26  C16 UNL     1      -6.697   7.540  11.413  1.00  0.00     0.036 C
ENDBRANCH  20  22
ENDBRANCH  17  18
ENDBRANCH  15  17
ENDBRANCH   1  15
TORSDOF 7
ENDMDL