MODEL 3
REMARK VINA RESULT: -7.523498396      3.549      4.375
REMARK  4 active torsions:
REMARK  status: ('A' for Active; 'I' for Inactive)
REMARK    1  A    between atoms: C6_7  and  N1_8
REMARK       I    between atoms: N1_8  and  C7_10
REMARK    2  A    between atoms: C7_10  and  C8_12
REMARK    3  A    between atoms: C11_17  and  O2_18
REMARK    4  A    between atoms: O2_18  and  C12_19
ROOT
HETATM    1  C8  UNL     1      -4.172   3.218  11.159  1.00  0.00     0.118 A
HETATM    2  C9  UNL     1      -3.458   2.113  10.780  1.00  0.00     0.123 A
HETATM    3  N2  UNL     1      -3.411   0.990  11.535  1.00  0.00    -0.369 N
ATOM      4  H2  UNL     1      -2.869   0.183  11.225  1.00  0.00     0.164 HD
HETATM    5  C10 UNL     1      -4.080   0.949  12.690  1.00  0.00     0.143 A
HETATM    6  C11 UNL     1      -4.808   2.042  13.102  1.00  0.00     0.159 A
HETATM    7  N3  UNL     1      -4.840   3.144  12.339  1.00  0.00    -0.330 N
ATOM      8  H3  UNL     1      -5.382   3.949  12.653  1.00  0.00     0.168 HD
ENDROOT
BRANCH   1   9
HETATM    9  C7  UNL     1      -4.246   4.444  10.375  1.00  0.00     0.270 C
HETATM   10  N1  UNL     1      -4.888   5.601  10.831  1.00  0.00    -0.348 N
ATOM     11  H1  UNL     1      -5.327   5.599  11.752  1.00  0.00     0.163 HD
HETATM   12  O1  UNL     1      -3.692   4.446   9.214  1.00  0.00    -0.266 OA
BRANCH  10  13
HETATM   13  C6  UNL     1      -4.940   6.798  10.023  1.00  0.00     0.124 C
HETATM   14  C2  UNL     1      -6.238   6.884   9.253  1.00  0.00     0.120 C
HETATM   15  C1  UNL     1      -5.925   7.084   7.788  1.00  0.00     0.054 C
HETATM   16  F1  UNL     1      -7.031   5.775   9.453  1.00  0.00    -0.241 F
HETATM   17  C3  UNL     1      -6.974   8.102   9.749  1.00  0.00     0.045 C
HETATM   18  C4  UNL     1      -6.381   8.268  11.154  1.00  0.00     0.006 C
HETATM   19  C5  UNL     1      -4.917   8.050  10.869  1.00  0.00     0.028 C
ENDBRANCH  10  13
ENDBRANCH   1   9
BRANCH   6  20
HETATM   20  O2  UNL     1      -5.503   1.983  14.314  1.00  0.00    -0.329 OA
BRANCH  20  21
HETATM   21  C12 UNL     1      -5.074   2.814  15.386  1.00  0.00     0.130 C
HETATM   22  C13 UNL     1      -4.601   1.922  16.499  1.00  0.00     0.032 C
HETATM   23  C14 UNL     1      -5.636   0.857  16.718  1.00  0.00     0.002 C
HETATM   24  C15 UNL     1      -6.957   1.476  17.016  1.00  0.00     0.000 C
HETATM   25  C16 UNL     1      -6.968   2.966  17.022  1.00  0.00     0.002 C
HETATM   26  C17 UNL     1      -6.274   3.591  15.850  1.00  0.00     0.032 C
ENDBRANCH  20  21
ENDBRANCH   6  20
TORSDOF 4
ENDMDL