MODEL 4
REMARK VINA RESULT: -6.679444887      2.932      5.730
REMARK  5 active torsions:
REMARK  status: ('A' for Active; 'I' for Inactive)
REMARK    1  A    between atoms: C4_4  and  C5_5
REMARK    2  A    between atoms: C5_5  and  N1_6
REMARK    3  A    between atoms: C5_5  and  C13_20
REMARK       I    between atoms: N1_6  and  C7_8
REMARK    4  A    between atoms: C7_8  and  C8_10
REMARK    5  A    between atoms: C9_11  and  C10_12
ROOT
HETATM    1  N1  UNL     1      -3.272   4.508  13.257  1.00  0.00    -0.341 N
HETATM    2  C6  UNL     1      -3.816   5.280  12.162  1.00  0.00     0.154 C
HETATM    3  C7  UNL     1      -2.006   4.958  13.765  1.00  0.00     0.258 C
HETATM    4  O1  UNL     1      -1.497   4.326  14.716  1.00  0.00    -0.267 OA
ENDROOT
BRANCH   1   5
HETATM    5  C5  UNL     1      -3.970   3.367  13.787  1.00  0.00     0.153 C
BRANCH   5   6
HETATM    6  C4  UNL     1      -4.379   2.382  12.751  1.00  0.00     0.102 A
HETATM    7  C3  UNL     1      -3.977   1.072  12.601  1.00  0.00     0.063 A
HETATM    8  C2  UNL     1      -4.628   0.575  11.499  1.00  0.00     0.031 A
HETATM    9  C1  UNL     1      -4.514  -0.784  10.952  1.00  0.00     0.070 C
HETATM   10  N4  UNL     1      -5.382   1.549  11.019  1.00  0.00    -0.266 N
HETATM   11  O2  UNL     1      -5.230   2.585  11.748  1.00  0.00    -0.240 OA
ATOM     12  H4  UNL     1      -5.986   1.483  10.200  1.00  0.00     0.194 HD
ENDBRANCH   5   6
BRANCH   5  13
HETATM   13  C13 UNL     1      -5.021   3.646  14.796  1.00  0.00    -0.025 C
HETATM   14  C14 UNL     1      -4.875   5.093  15.244  1.00  0.00     0.017 C
HETATM   15  C15 UNL     1      -6.428   3.369  14.447  1.00  0.00     0.017 C
HETATM   16  C16 UNL     1      -4.691   2.823  16.056  1.00  0.00     0.017 C
ENDBRANCH   5  13
ENDBRANCH   1   5
BRANCH   3  17
HETATM   17  C8  UNL     1      -1.289   6.099  13.237  1.00  0.00     0.082 A
HETATM   18  C9  UNL     1      -0.380   6.108  12.198  1.00  0.00     0.071 A
HETATM   19  N2  UNL     1       0.010   7.402  12.083  1.00  0.00    -0.301 N
HETATM   20  N3  UNL     1      -0.606   8.145  12.981  1.00  0.00    -0.304 N
ATOM     21  H2  UNL     1       0.684   7.750  11.401  1.00  0.00     0.186 HD
HETATM   22  C11 UNL     1      -1.428   7.404  13.733  1.00  0.00     0.039 A
ATOM     23  H3  UNL     1      -0.474   9.151  13.087  1.00  0.00     0.186 HD
HETATM   24  C12 UNL     1      -2.310   7.832  14.851  1.00  0.00     0.071 C
BRANCH  18  25
HETATM   25  C10 UNL     1       0.087   4.960  11.367  1.00  0.00     0.281 C
HETATM   26  F1  UNL     1      -0.977   4.562  10.552  1.00  0.00    -0.249 F
ENDBRANCH  18  25
ENDBRANCH   3  17
TORSDOF 5
ENDMDL