MODEL 5
REMARK VINA RESULT: -7.288608605      2.175      7.260
REMARK  5 active torsions:
REMARK  status: ('A' for Active; 'I' for Inactive)
REMARK    1  A    between atoms: C7_8  and  C8_9
REMARK    2  A    between atoms: C10_14  and  C11_15
REMARK    3  A    between atoms: C11_15  and  N3_16
REMARK       I    between atoms: N3_16  and  C12_18
REMARK    4  A    between atoms: C12_18  and  C13_20
REMARK    5  A    between atoms: C13_20  and  C14_21
ROOT
HETATM    1  C8  UNL     1      -4.320   4.249  11.426  1.00  0.00     0.161 A
HETATM    2  N2  UNL     1      -4.540   3.235  10.579  1.00  0.00    -0.312 N
ATOM      3  H2  UNL     1      -4.691   3.353   9.576  1.00  0.00     0.170 HD
HETATM    4  C9  UNL     1      -4.539   2.077  11.183  1.00  0.00     0.225 A
HETATM    5  F1  UNL     1      -4.720   0.785  10.733  1.00  0.00    -0.183 F
HETATM    6  C10 UNL     1      -4.308   2.413  12.578  1.00  0.00     0.148 A
HETATM    7  O2  UNL     1      -4.201   3.694  12.593  1.00  0.00    -0.289 OA
ENDROOT
BRANCH   6   8
HETATM    8  C11 UNL     1      -4.223   1.383  13.522  1.00  0.00     0.133 C
BRANCH   8   9
HETATM    9  N3  UNL     1      -4.832   0.886  14.654  1.00  0.00    -0.334 N
HETATM   10  C12 UNL     1      -4.492   1.566  15.880  1.00  0.00     0.222 C
HETATM   11  O1  UNL     1      -3.658   2.527  15.784  1.00  0.00    -0.273 OA
ATOM     12  H3  UNL     1      -5.475   0.094  14.627  1.00  0.00     0.168 HD
BRANCH  10  13
HETATM   13  C13 UNL     1      -5.056   1.222  17.158  1.00  0.00     0.111 C
BRANCH  13  14
HETATM   14  C14 UNL     1      -6.380   1.998  17.323  1.00  0.00    -0.043 C
HETATM   15  C15 UNL     1      -6.396   2.406  18.760  1.00  0.00     0.015 C
HETATM   16  C16 UNL     1      -6.508   3.193  16.454  1.00  0.00     0.015 C
HETATM   17  C17 UNL     1      -7.520   1.027  17.051  1.00  0.00     0.015 C
ENDBRANCH  13  14
ENDBRANCH  10  13
ENDBRANCH   8   9
ENDBRANCH   6   8
BRANCH   1  18
HETATM   18  C7  UNL     1      -4.221   5.659  11.000  1.00  0.00     0.303 C
HETATM   19  N1  UNL     1      -3.146   6.483  10.909  1.00  0.00     0.102 N
HETATM   20  C1  UNL     1      -2.001   6.328  11.741  1.00  0.00     0.311 C
HETATM   21  C2  UNL     1      -4.042   7.586  11.375  1.00  0.00     0.230 C
HETATM   22  C3  UNL     1      -5.129   7.990  10.430  1.00  0.00     0.036 C
HETATM   23  C6  UNL     1      -4.672   6.535  12.238  1.00  0.00     0.060 C
HETATM   24  C4  UNL     1      -6.435   7.356  10.908  1.00  0.00     0.003 C
HETATM   25  C5  UNL     1      -6.140   6.711  12.234  1.00  0.00     0.009 C
ENDBRANCH   1  18
TORSDOF 5
ENDMDL