MODEL 2
REMARK VINA RESULT: -7.463659753      2.161      2.849
REMARK  7 active torsions:
REMARK  status: ('A' for Active; 'I' for Inactive)
REMARK    1  A    between atoms: O1_2  and  C2_3
REMARK    2  A    between atoms: C2_3  and  C3_5
REMARK    3  A    between atoms: N2_9  and  C5_10
REMARK    4  A    between atoms: C5_10  and  C6_11
REMARK    5  A    between atoms: C6_11  and  C7_12
REMARK    6  A    between atoms: C13_19  and  N3_20
REMARK    7  A    between atoms: N3_20  and  C14_22
ROOT
HETATM    1  C3  UNL     1      -4.602   1.763  14.615  1.00  0.00     0.101 A
HETATM    2  C4  UNL     1      -4.704   3.078  14.975  1.00  0.00     0.129 A
HETATM    3  N1  UNL     1      -4.605   3.779  13.848  1.00  0.00    -0.307 N
ATOM      4  H1  UNL     1      -4.645   4.796  13.787  1.00  0.00     0.186 HD
HETATM    5  N2  UNL     1      -4.444   2.945  12.798  1.00  0.00    -0.276 N
HETATM    6  C13 UNL     1      -4.434   1.674  13.204  1.00  0.00     0.136 A
ENDROOT
BRANCH   5   7
HETATM    7  C5  UNL     1      -4.270   3.507  11.487  1.00  0.00     0.151 C
BRANCH   7   8
HETATM    8  C6  UNL     1      -3.917   4.972  11.545  1.00  0.00     0.029 C
BRANCH   8   9
HETATM    9  C7  UNL     1      -4.899   5.895  10.938  1.00  0.00     0.021 C
HETATM   10  C8  UNL     1      -4.555   6.384   9.548  1.00  0.00     0.007 C
HETATM   11  C9  UNL     1      -5.846   6.789   8.884  1.00  0.00     0.001 C
HETATM   12  C10 UNL     1      -6.943   7.063   9.857  1.00  0.00     0.003 C
HETATM   13  C11 UNL     1      -6.532   7.732  11.127  1.00  0.00     0.037 C
HETATM   14  C12 UNL     1      -5.312   7.075  11.749  1.00  0.00     0.174 C
HETATM   15  F1  UNL     1      -4.337   8.080  11.797  1.00  0.00    -0.249 F
ENDBRANCH   8   9
ENDBRANCH   7   8
ENDBRANCH   5   7
BRANCH   6  16
HETATM   16  N3  UNL     1      -4.335   0.624  12.585  1.00  0.00    -0.366 N
ATOM     17  H3  UNL     1      -4.874  -0.027  13.155  1.00  0.00     0.162 HD
BRANCH  16  18
HETATM   18  C14 UNL     1      -3.908  -0.153  11.566  1.00  0.00     0.021 C
HETATM   19  C15 UNL     1      -3.811  -1.653  11.767  1.00  0.00     0.037 C
HETATM   20  C16 UNL     1      -4.796   0.032  10.290  1.00  0.00     0.037 C
HETATM   21  C17 UNL     1      -2.514   0.264  11.029  1.00  0.00     0.037 C
ENDBRANCH  16  18
ENDBRANCH   6  16
BRANCH   1  22
HETATM   22  C2  UNL     1      -4.663   0.671  15.565  1.00  0.00     0.298 C
HETATM   23  O2  UNL     1      -4.661  -0.542  15.159  1.00  0.00    -0.259 OA
BRANCH  22  24
HETATM   24  O1  UNL     1      -4.724   0.858  16.928  1.00  0.00    -0.322 OA
HETATM   25  C1  UNL     1      -5.960   0.684  17.587  1.00  0.00     0.213 C
ENDBRANCH  22  24
ENDBRANCH   1  22
TORSDOF 7
ENDMDL