MODEL 4
REMARK VINA RESULT: -7.131687761      3.296      4.785
REMARK  3 active torsions:
REMARK  status: ('A' for Active; 'I' for Inactive)
REMARK    1  A    between atoms: O1_2  and  C2_3
REMARK    2  A    between atoms: C6_9  and  C7_10
REMARK    3  A    between atoms: C14_21  and  C15_22
ROOT
HETATM    1  C15 UNL     1      -4.837   2.465  14.975  1.00  0.00     0.066 C
HETATM    2  C16 UNL     1      -3.693   2.990  15.762  1.00  0.00     0.036 C
HETATM    3  C17 UNL     1      -6.177   3.131  15.262  1.00  0.00     0.036 C
HETATM    4  C18 UNL     1      -5.041   1.071  15.509  1.00  0.00     0.073 C
HETATM    5  N3  UNL     1      -5.225  -0.015  15.934  1.00  0.00    -0.196 NA
ENDROOT
BRANCH   1   6
HETATM    6  C14 UNL     1      -4.685   2.294  13.521  1.00  0.00    -0.043 C
HETATM    7  C4  UNL     1      -4.271   3.352  12.644  1.00  0.00    -0.007 A
HETATM    8  C3  UNL     1      -3.739   4.569  12.911  1.00  0.00     0.052 A
HETATM    9  C5  UNL     1      -4.470   3.068  11.275  1.00  0.00     0.022 A
HETATM   10  C2  UNL     1      -3.407   5.472  11.963  1.00  0.00     0.092 A
HETATM   11  C6  UNL     1      -3.617   5.166  10.647  1.00  0.00     0.049 A
HETATM   12  N1  UNL     1      -4.143   3.977  10.335  1.00  0.00    -0.359 N
ATOM     13  H1  UNL     1      -4.301   3.751   9.353  1.00  0.00     0.165 HD
HETATM   14  C11 UNL     1      -4.960   1.733  10.862  1.00  0.00     0.095 C
HETATM   15  C12 UNL     1      -4.665   0.602  11.767  1.00  0.00     0.179 C
HETATM   16  F1  UNL     1      -3.845  -0.334  11.126  1.00  0.00    -0.249 F
HETATM   17  C13 UNL     1      -3.984   1.035  13.079  1.00  0.00     0.074 C
BRANCH  10  18
HETATM   18  O1  UNL     1      -2.872   6.686  12.379  1.00  0.00    -0.354 OA
HETATM   19  C1  UNL     1      -2.630   7.014  13.711  1.00  0.00     0.210 C
ENDBRANCH  10  18
BRANCH  11  20
HETATM   20  C7  UNL     1      -3.130   6.065   9.581  1.00  0.00     0.065 C
HETATM   21  C8  UNL     1      -4.194   7.075   9.216  1.00  0.00     0.040 C
HETATM   22  C9  UNL     1      -4.926   6.663   7.994  1.00  0.00     0.233 C
HETATM   23  N2  UNL     1      -3.857   5.964   7.276  1.00  0.00    -0.074 N
HETATM   24  C10 UNL     1      -3.116   5.207   8.275  1.00  0.00     0.243 C
ATOM     25  H22 UNL     1      -4.196   5.390   6.504  1.00  0.00     0.277 HD
ATOM     26  H21 UNL     1      -3.267   6.585   6.722  1.00  0.00     0.277 HD
ENDBRANCH  11  20
ENDBRANCH   1   6
TORSDOF 3
ENDMDL