MODEL 1
REMARK VINA RESULT: -7.372560425      0.000      0.000
REMARK  4 active torsions:
REMARK  status: ('A' for Active; 'I' for Inactive)
REMARK    1  A    between atoms: C4_4  and  N1_5
REMARK    2  A    between atoms: C7_8  and  N2_9
REMARK    3  A    between atoms: N2_9  and  C8_11
REMARK    4  A    between atoms: C15_21  and  C16_22
ROOT
HETATM    1  N1  UNL     1      -4.480   5.634  12.309  1.00  0.00    -0.367 N
HETATM    2  C5  UNL     1      -4.148   6.080  13.629  1.00  0.00     0.130 C
HETATM    3  C6  UNL     1      -3.327   5.095  14.434  1.00  0.00     0.072 C
HETATM    4  C7  UNL     1      -3.829   3.693  14.375  1.00  0.00    -0.015 C
HETATM    5  C13 UNL     1      -4.696   3.411  13.138  1.00  0.00     0.072 C
HETATM    6  C14 UNL     1      -4.283   4.260  11.962  1.00  0.00     0.130 C
ENDROOT
BRANCH   1   7
HETATM    7  C4  UNL     1      -5.003   6.564  11.362  1.00  0.00     0.106 A
HETATM    8  C3  UNL     1      -4.557   7.894  11.380  1.00  0.00     0.073 A
HETATM    9  C2  UNL     1      -5.054   8.826  10.494  1.00  0.00     0.010 A
HETATM   10  C1  UNL     1      -4.551  10.228  10.532  1.00  0.00     0.068 C
HETATM   11  N4  UNL     1      -5.983   8.429   9.601  1.00  0.00    -0.349 N
HETATM   12  C15 UNL     1      -6.420   7.137   9.583  1.00  0.00     0.086 A
ATOM     13  H4  UNL     1      -6.362   9.101   8.934  1.00  0.00     0.167 HD
HETATM   14  N3  UNL     1      -5.921   6.256  10.454  1.00  0.00    -0.332 N
ATOM     15  H3  UNL     1      -6.263   5.296  10.419  1.00  0.00     0.168 HD
BRANCH  12  16
HETATM   16  C16 UNL     1      -7.448   6.815   8.551  1.00  0.00     0.045 C
HETATM   17  C17 UNL     1      -6.880   6.745   7.176  1.00  0.00     0.017 C
HETATM   18  C18 UNL     1      -8.609   7.770   8.544  1.00  0.00     0.017 C
ENDBRANCH  12  16
ENDBRANCH   1   7
BRANCH   4  19
HETATM   19  N2  UNL     1      -4.323   3.096  15.513  1.00  0.00    -0.392 N
ATOM     20  H2  UNL     1      -3.871   3.344  16.393  1.00  0.00     0.159 HD
BRANCH  19  21
HETATM   21  C8  UNL     1      -5.370   2.194  15.587  1.00  0.00     0.083 C
HETATM   22  C9  UNL     1      -6.552   2.793  16.370  1.00  0.00     0.028 C
HETATM   23  C10 UNL     1      -7.291   1.591  16.914  1.00  0.00     0.039 C
HETATM   24  C11 UNL     1      -6.178   0.673  17.302  1.00  0.00     0.172 C
HETATM   25  F1  UNL     1      -5.609   0.939  18.518  1.00  0.00    -0.249 F
HETATM   26  C12 UNL     1      -5.192   0.845  16.146  1.00  0.00     0.062 C
ENDBRANCH  19  21
ENDBRANCH   4  19
TORSDOF 4
ENDMDL