MODEL 4
REMARK VINA RESULT: -8.056287425      2.578      5.267
REMARK  15 active torsions:
REMARK  status: ('A' for Active; 'I' for Inactive)
REMARK    1  A    between atoms: O1_2  and  C2_3
REMARK    2  A    between atoms: C4_5  and  C5_6
REMARK    3  A    between atoms: C5_6  and  C6_7
REMARK    4  A    between atoms: C6_7  and  C7_8
REMARK    5  A    between atoms: C7_8  and  O2_9
REMARK    6  A    between atoms: C7_8  and  C8_11
REMARK    7  A    between atoms: C9_12  and  O3_13
REMARK    8  A    between atoms: C12_18  and  N2_19
REMARK    9  A    between atoms: C13_22  and  C14_23
REMARK   10  A    between atoms: C16_26  and  O7_27
REMARK   11  A    between atoms: C18_31  and  O8_32
REMARK   12  A    between atoms: O8_32  and  C19_33
REMARK   13  A    between atoms: C19_33  and  C20_34
REMARK   14  A    between atoms: C20_34  and  O9_36
REMARK   15  A    between atoms: C22_38  and  O10_39
ROOT
HETATM    1  C8  UNL     1      -6.297  26.870 -15.642  1.00  0.00     0.066 A
HETATM    2  C9  UNL     1      -7.359  26.018 -15.536  1.00  0.00     0.104 A
HETATM    3  C10 UNL     1      -7.707  25.094 -16.478  1.00  0.00     0.112 A
HETATM    4  C11 UNL     1      -8.847  24.245 -16.265  1.00  0.00     0.105 C
HETATM    5  N1  UNL     1      -9.758  23.560 -16.083  1.00  0.00    -0.191 NA
HETATM    6  C12 UNL     1      -6.948  24.985 -17.645  1.00  0.00     0.143 A
HETATM    7  C13 UNL     1      -5.889  25.797 -17.808  1.00  0.00     0.078 A
HETATM    8  C16 UNL     1      -5.520  26.758 -16.833  1.00  0.00     0.098 A
ENDROOT
BRANCH   2   9
HETATM    9  O3  UNL     1      -8.145  26.078 -14.403  1.00  0.00    -0.358 OA
ATOM     10  H3  UNL     1      -8.652  25.313 -14.158  1.00  0.00     0.217 HD
ENDBRANCH   2   9
BRANCH   6  11
HETATM   11  N2  UNL     1      -7.386  23.987 -18.541  1.00  0.00    -0.113 N
HETATM   12  O4  UNL     1      -6.886  22.811 -18.477  1.00  0.00    -0.532 OA
HETATM   13  O5  UNL     1      -8.288  24.171 -19.532  1.00  0.00    -0.532 OA
ENDBRANCH   6  11
BRANCH   1  14
HETATM   14  C7  UNL     1      -5.872  27.884 -14.729  1.00  0.00     0.081 C
BRANCH  14  15
HETATM   15  C6  UNL     1      -6.442  28.922 -13.999  1.00  0.00     0.038 C
BRANCH  15  16
HETATM   16  C5  UNL     1      -6.689  30.172 -14.058  1.00  0.00     0.017 C
BRANCH  16  17
HETATM   17  C4  UNL     1      -7.990  30.799 -13.653  1.00  0.00     0.008 A
HETATM   18  C3  UNL     1      -9.097  30.091 -13.329  1.00  0.00     0.054 A
HETATM   19  C2  UNL     1     -10.293  30.734 -12.931  1.00  0.00     0.105 A
HETATM   20  C22 UNL     1     -10.293  32.102 -12.887  1.00  0.00     0.136 A
HETATM   21  C18 UNL     1      -9.179  32.850 -13.213  1.00  0.00     0.144 A
HETATM   22  C17 UNL     1      -8.022  32.196 -13.598  1.00  0.00     0.162 A
HETATM   23  F1  UNL     1      -6.945  32.966 -13.912  1.00  0.00    -0.202 F
BRANCH  19  24
HETATM   24  O1  UNL     1     -11.399  29.987 -12.608  1.00  0.00    -0.353 OA
HETATM   25  C1  UNL     1     -11.525  29.226 -11.428  1.00  0.00     0.210 C
ENDBRANCH  19  24
BRANCH  20  26
HETATM   26  O10 UNL     1     -11.437  32.753 -12.505  1.00  0.00    -0.356 OA
ATOM     27  H10 UNL     1     -11.903  33.279 -13.145  1.00  0.00     0.218 HD
ENDBRANCH  20  26
BRANCH  21  28
HETATM   28  O8  UNL     1      -9.265  34.228 -13.139  1.00  0.00    -0.343 OA
BRANCH  28  29
HETATM   29  C19 UNL     1      -9.576  34.871 -14.379  1.00  0.00     0.207 C
BRANCH  29  30
HETATM   30  C20 UNL     1     -10.834  35.692 -14.294  1.00  0.00     0.138 C
HETATM   31  C21 UNL     1     -10.979  36.465 -13.026  1.00  0.00     0.041 C
BRANCH  30  32
HETATM   32  O9  UNL     1     -11.987  34.954 -14.485  1.00  0.00    -0.394 OA
ATOM     33  H9  UNL     1     -12.596  35.355 -15.094  1.00  0.00     0.210 HD
ENDBRANCH  30  32
ENDBRANCH  29  30
ENDBRANCH  28  29
ENDBRANCH  21  28
ENDBRANCH  16  17
ENDBRANCH  15  16
ENDBRANCH  14  15
BRANCH  14  34
HETATM   34  O2  UNL     1      -4.534  27.824 -14.512  1.00  0.00    -0.360 OA
ATOM     35  H2  UNL     1      -4.065  27.749 -15.334  1.00  0.00     0.217 HD
ENDBRANCH  14  34
ENDBRANCH   1  14
BRANCH   7  36
HETATM   36  C14 UNL     1      -5.057  25.756 -18.985  1.00  0.00     0.161 C
HETATM   37  C15 UNL     1      -5.309  26.305 -20.311  1.00  0.00     0.097 C
HETATM   38  O6  UNL     1      -3.918  25.159 -18.885  1.00  0.00    -0.293 OA
ENDBRANCH   7  36
BRANCH   8  39
HETATM   39  O7  UNL     1      -4.467  27.521 -17.061  1.00  0.00    -0.359 OA
ATOM     40  H7  UNL     1      -4.309  27.927 -17.905  1.00  0.00     0.217 HD
ENDBRANCH   8  39
TORSDOF 15
ENDMDL