MODEL 5
REMARK VINA RESULT: -8.501533571      2.122      3.636
REMARK  13 active torsions:
REMARK  status: ('A' for Active; 'I' for Inactive)
REMARK    1  A    between atoms: O1_2  and  C2_3
REMARK    2  A    between atoms: C4_5  and  C5_6
REMARK    3  A    between atoms: N1_7  and  N2_9
REMARK       I    between atoms: N2_9  and  C6_11
REMARK       I    between atoms: C6_11  and  N4_16
REMARK    4  A    between atoms: N3_12  and  O2_14
REMARK    5  A    between atoms: N4_16  and  N5_18
REMARK    6  A    between atoms: N5_18  and  C7_19
REMARK    7  A    between atoms: C7_19  and  C8_20
REMARK    8  A    between atoms: C10_22  and  O3_23
REMARK    9  A    between atoms: C12_25  and  O4_26
REMARK   10  A    between atoms: C14_28  and  O5_29
REMARK   11  A    between atoms: C18_34  and  O6_35
REMARK   12  A    between atoms: O6_35  and  C19_36
REMARK   13  A    between atoms: C21_39  and  O8_40
ROOT
HETATM    1  N2  UNL     1     -11.059  28.551 -11.510  1.00  0.00    -0.129 N
ATOM      2  H2  UNL     1     -10.785  28.630 -12.489  1.00  0.00     0.205 HD
HETATM    3  C6  UNL     1     -11.879  27.479 -11.101  1.00  0.00     0.741 C
HETATM    4  N3  UNL     1     -12.681  27.600 -10.138  1.00  0.00    -0.095 N
ATOM      5  H3  UNL     1     -12.743  28.489  -9.641  1.00  0.00     0.213 HD
HETATM    6  N4  UNL     1     -11.788  26.224 -11.807  1.00  0.00    -0.062 N
ATOM      7  H4  UNL     1     -12.659  25.753 -12.053  1.00  0.00     0.221 HD
ENDROOT
BRANCH   1   8
HETATM    8  N1  UNL     1     -10.632  29.470 -10.626  1.00  0.00    -0.297 N
HETATM    9  C5  UNL     1      -9.869  30.433 -10.520  1.00  0.00     0.119 C
ATOM     10  H1  UNL     1     -11.104  29.319  -9.735  1.00  0.00     0.186 HD
BRANCH   9  11
HETATM   11  C4  UNL     1      -9.017  30.986 -11.531  1.00  0.00    -0.014 A
HETATM   12  C3  UNL     1      -7.677  30.700 -11.578  1.00  0.00     0.052 A
HETATM   13  C2  UNL     1      -6.887  31.262 -12.574  1.00  0.00     0.104 A
HETATM   14  C21 UNL     1      -7.435  32.097 -13.508  1.00  0.00     0.133 A
HETATM   15  C18 UNL     1      -8.795  32.409 -13.493  1.00  0.00     0.116 A
HETATM   16  C17 UNL     1      -9.562  31.851 -12.507  1.00  0.00     0.053 A
BRANCH  13  17
HETATM   17  O1  UNL     1      -5.551  30.965 -12.602  1.00  0.00    -0.353 OA
HETATM   18  C1  UNL     1      -5.129  29.643 -12.835  1.00  0.00     0.210 C
ENDBRANCH  13  17
BRANCH  14  19
HETATM   19  O8  UNL     1      -6.689  32.681 -14.523  1.00  0.00    -0.356 OA
ATOM     20  H8  UNL     1      -6.134  33.439 -14.381  1.00  0.00     0.218 HD
ENDBRANCH  14  19
BRANCH  15  21
HETATM   21  O6  UNL     1      -9.373  33.254 -14.430  1.00  0.00    -0.276 OA
BRANCH  21  22
HETATM   22  C19 UNL     1      -9.421  34.610 -14.188  1.00  0.00     0.260 C
HETATM   23  C20 UNL     1     -10.586  35.148 -13.435  1.00  0.00     0.126 C
HETATM   24  O7  UNL     1      -8.478  35.318 -14.616  1.00  0.00    -0.265 OA
ENDBRANCH  21  22
ENDBRANCH  15  21
ENDBRANCH   9  11
ENDBRANCH   1   8
BRANCH   4  25
HETATM   25  O2  UNL     1     -13.473  26.550  -9.752  1.00  0.00    -0.276 OA
ATOM     26  H2  UNL     1     -14.418  26.638  -9.734  1.00  0.00     0.245 HD
ENDBRANCH   4  25
BRANCH   6  27
HETATM   27  N5  UNL     1     -10.674  25.654 -12.150  1.00  0.00    -0.323 NA
BRANCH  27  28
HETATM   28  C7  UNL     1      -9.558  25.472 -12.489  1.00  0.00     0.224 C
BRANCH  28  29
HETATM   29  C8  UNL     1      -8.918  25.733 -13.781  1.00  0.00     0.039 A
HETATM   30  C9  UNL     1      -9.002  24.763 -14.766  1.00  0.00     0.057 A
HETATM   31  C10 UNL     1      -8.420  24.948 -15.993  1.00  0.00     0.105 A
HETATM   32  C12 UNL     1      -7.729  26.098 -16.306  1.00  0.00     0.138 A
HETATM   33  C14 UNL     1      -7.658  27.047 -15.315  1.00  0.00     0.144 A
HETATM   34  C16 UNL     1      -8.241  26.887 -14.055  1.00  0.00     0.165 A
HETATM   35  F1  UNL     1      -8.119  27.881 -13.150  1.00  0.00    -0.202 F
BRANCH  31  36
HETATM   36  O3  UNL     1      -8.503  23.969 -16.989  1.00  0.00    -0.353 OA
HETATM   37  C11 UNL     1      -8.783  22.609 -16.685  1.00  0.00     0.210 C
ENDBRANCH  31  36
BRANCH  32  38
HETATM   38  O4  UNL     1      -7.135  26.296 -17.548  1.00  0.00    -0.351 OA
HETATM   39  C13 UNL     1      -7.788  26.805 -18.671  1.00  0.00     0.210 C
ENDBRANCH  32  38
BRANCH  33  40
HETATM   40  O5  UNL     1      -6.980  28.224 -15.563  1.00  0.00    -0.350 OA
HETATM   41  C15 UNL     1      -7.709  29.397 -15.785  1.00  0.00     0.210 C
ENDBRANCH  33  40
ENDBRANCH  28  29
ENDBRANCH  27  28
ENDBRANCH   6  27
TORSDOF 13
ENDMDL