MODEL 3
REMARK VINA RESULT: -7.423937526      1.956      4.032
REMARK  16 active torsions:
REMARK  status: ('A' for Active; 'I' for Inactive)
REMARK    1  A    between atoms: C2_2  and  C3_3
REMARK    2  A    between atoms: C3_3  and  O2_5
REMARK    3  A    between atoms: O2_5  and  C4_6
REMARK    4  A    between atoms: C5_7  and  O3_8
REMARK    5  A    between atoms: C6_10  and  C7_11
REMARK    6  A    between atoms: C7_11  and  O5_13
REMARK    7  A    between atoms: C9_15  and  O6_16
REMARK    8  A    between atoms: C10_18  and  C11_19
REMARK    9  A    between atoms: C12_22  and  C13_23
REMARK   10  A    between atoms: C13_23  and  O9_24
REMARK   11  A    between atoms: O9_24  and  C14_25
REMARK   12  A    between atoms: C14_25  and  C15_27
REMARK   13  A    between atoms: C15_27  and  O11_28
REMARK   14  A    between atoms: C15_27  and  C18_33
REMARK   15  A    between atoms: O11_28  and  C16_29
REMARK   16  A    between atoms: C16_29  and  C17_31
ROOT
HETATM    1  C4  UNL     1      -8.916  29.421 -13.663  1.00  0.00     0.126 A
HETATM    2  C5  UNL     1      -9.838  30.201 -13.007  1.00  0.00     0.119 A
HETATM    3  C6  UNL     1     -10.608  29.616 -12.033  1.00  0.00     0.109 A
HETATM    4  C9  UNL     1     -10.449  28.271 -11.727  1.00  0.00     0.102 A
HETATM    5  C10 UNL     1      -9.468  27.507 -12.447  1.00  0.00     0.089 A
HETATM    6  C12 UNL     1      -8.702  28.052 -13.406  1.00  0.00     0.043 A
ENDROOT
BRANCH   6   7
HETATM    7  C13 UNL     1      -7.690  27.479 -14.233  1.00  0.00     0.161 C
BRANCH   7   8
HETATM    8  O9  UNL     1      -7.844  26.492 -15.150  1.00  0.00    -0.288 OA
BRANCH   8   9
HETATM    9  C14 UNL     1      -7.059  26.442 -16.305  1.00  0.00     0.293 C
HETATM   10  O10 UNL     1      -6.547  27.542 -16.646  1.00  0.00    -0.262 OA
BRANCH   9  11
HETATM   11  C15 UNL     1      -6.806  25.261 -17.099  1.00  0.00     0.239 C
BRANCH  11  12
HETATM   12  O11 UNL     1      -6.003  25.669 -18.234  1.00  0.00    -0.304 OA
BRANCH  12  13
HETATM   13  C16 UNL     1      -4.657  25.368 -18.248  1.00  0.00     0.273 C
HETATM   14  O12 UNL     1      -4.218  24.544 -17.415  1.00  0.00    -0.264 OA
BRANCH  13  15
HETATM   15  C17 UNL     1      -3.793  26.033 -19.244  1.00  0.00     0.225 C
HETATM   16 CL1  UNL     1      -3.018  27.491 -18.593  1.00  0.00    -0.120 Cl
ENDBRANCH  13  15
ENDBRANCH  12  13
ENDBRANCH  11  12
BRANCH  11  17
HETATM   17  C18 UNL     1      -8.016  24.627 -17.746  1.00  0.00    -0.015 C
HETATM   18  C19 UNL     1      -7.450  23.732 -18.861  1.00  0.00     0.018 C
HETATM   19  C20 UNL     1      -8.831  23.754 -16.872  1.00  0.00     0.018 C
HETATM   20  C21 UNL     1      -8.861  25.677 -18.396  1.00  0.00     0.018 C
ENDBRANCH  11  17
ENDBRANCH   9  11
ENDBRANCH   8   9
ENDBRANCH   7   8
ENDBRANCH   6   7
BRANCH   1  21
HETATM   21  O2  UNL     1      -8.158  30.044 -14.642  1.00  0.00    -0.275 OA
BRANCH  21  22
HETATM   22  C3  UNL     1      -7.256  31.034 -14.240  1.00  0.00     0.263 C
HETATM   23  O1  UNL     1      -7.317  32.166 -14.775  1.00  0.00    -0.265 OA
BRANCH  22  24
HETATM   24  C2  UNL     1      -6.227  30.787 -13.203  1.00  0.00     0.107 C
HETATM   25  C1  UNL     1      -6.217  31.920 -12.233  1.00  0.00     0.015 C
ENDBRANCH  22  24
ENDBRANCH  21  22
ENDBRANCH   1  21
BRANCH   5  26
HETATM   26  C11 UNL     1      -9.370  26.146 -12.031  1.00  0.00     0.213 C
HETATM   27  O7  UNL     1      -9.134  25.717 -10.918  1.00  0.00    -0.644 OA
HETATM   28  O8  UNL     1      -9.561  25.124 -12.994  1.00  0.00    -0.644 OA
ENDBRANCH   5  26
BRANCH   2  29
HETATM   29  O3  UNL     1      -9.962  31.528 -13.342  1.00  0.00    -0.357 OA
ATOM     30  H3  UNL     1     -10.098  32.173 -12.658  1.00  0.00     0.218 HD
ENDBRANCH   2  29
BRANCH   4  31
HETATM   31  O6  UNL     1     -11.182  27.682 -10.787  1.00  0.00    -0.358 OA
ATOM     32  H6  UNL     1     -10.794  27.090 -10.153  1.00  0.00     0.217 HD
ENDBRANCH   4  31
BRANCH   3  33
HETATM   33  C7  UNL     1     -11.610  30.375 -11.294  1.00  0.00     0.298 C
HETATM   34  O4  UNL     1     -12.271  31.251 -11.890  1.00  0.00    -0.259 OA
BRANCH  33  35
HETATM   35  O5  UNL     1     -11.903  30.208  -9.962  1.00  0.00    -0.322 OA
HETATM   36  C8  UNL     1     -13.230  30.327  -9.502  1.00  0.00     0.213 C
ENDBRANCH  33  35
ENDBRANCH   3  33
TORSDOF 16
ENDMDL