MODEL 4
REMARK VINA RESULT: -7.794740861      1.735      1.848
REMARK  11 active torsions:
REMARK  status: ('A' for Active; 'I' for Inactive)
REMARK    1  A    between atoms: C3_3  and  C4_4
REMARK    2  A    between atoms: C7_8  and  N1_9
REMARK       I    between atoms: N1_9  and  C8_11
REMARK    3  A    between atoms: C8_11  and  C9_13
REMARK    4  A    between atoms: C9_13  and  N2_14
REMARK    5  A    between atoms: C10_18  and  C11_19
REMARK    6  A    between atoms: C11_19  and  C12_21
REMARK    7  A    between atoms: C12_21  and  S2_22
REMARK    8  A    between atoms: S2_22  and  C13_23
REMARK    9  A    between atoms: N4_26  and  N5_27
REMARK   10  A    between atoms: N6_32  and  N7_33
REMARK       I    between atoms: N7_33  and  C15_35
REMARK   11  A    between atoms: C15_35  and  C16_37
ROOT
HETATM    1  C11 UNL     1      -8.200  27.897 -13.978  1.00  0.00     0.172 C
HETATM    2  O2  UNL     1      -8.661  28.970 -14.533  1.00  0.00    -0.291 OA
ENDROOT
BRANCH   1   3
HETATM    3  C10 UNL     1      -8.321  27.840 -12.505  1.00  0.00     0.052 A
HETATM    4  C2  UNL     1      -9.041  26.931 -11.815  1.00  0.00    -0.028 A
HETATM    5  C1  UNL     1      -9.909  25.844 -12.413  1.00  0.00     0.050 C
HETATM    6  C3  UNL     1      -9.078  27.028 -10.429  1.00  0.00     0.015 A
HETATM    7  S1  UNL     1      -8.118  28.384 -10.135  1.00  0.00    -0.071 SA
HETATM    8  C7  UNL     1      -7.688  28.794 -11.745  1.00  0.00     0.091 A
BRANCH   6   9
HETATM    9  C4  UNL     1      -9.657  26.071  -9.414  1.00  0.00    -0.070 C
HETATM   10  C5  UNL     1      -8.809  25.885  -8.201  1.00  0.00     0.044 C
HETATM   11  C6  UNL     1     -11.110  25.991  -9.274  1.00  0.00     0.044 C
ENDBRANCH   6   9
BRANCH   8  12
HETATM   12  N1  UNL     1      -6.807  29.891 -12.039  1.00  0.00    -0.319 N
HETATM   13  C8  UNL     1      -7.363  31.189 -12.265  1.00  0.00     0.248 C
HETATM   14  O1  UNL     1      -8.622  31.315 -12.176  1.00  0.00    -0.271 OA
ATOM     15  H1  UNL     1      -5.798  29.746 -12.086  1.00  0.00     0.169 HD
BRANCH  13  16
HETATM   16  C9  UNL     1      -6.535  32.336 -12.588  1.00  0.00     0.332 C
BRANCH  16  17
HETATM   17  N2  UNL     1      -6.718  32.618 -14.031  1.00  0.00    -0.071 N
ATOM     18  H23 UNL     1      -5.954  33.162 -14.432  1.00  0.00     0.274 HD
ATOM     19  H22 UNL     1      -6.611  31.789 -14.616  1.00  0.00     0.274 HD
ATOM     20  H21 UNL     1      -7.628  33.067 -14.140  1.00  0.00     0.274 HD
ENDBRANCH  16  17
ENDBRANCH  13  16
ENDBRANCH   8  12
ENDBRANCH   1   3
BRANCH   1  21
HETATM   21  C12 UNL     1      -7.608  26.861 -14.821  1.00  0.00     0.166 C
BRANCH  21  22
HETATM   22  S2  UNL     1      -7.242  27.492 -16.512  1.00  0.00    -0.083 SA
BRANCH  22  23
HETATM   23  C13 UNL     1      -7.766  26.227 -17.687  1.00  0.00     0.185 A
HETATM   24  N3  UNL     1      -8.970  25.675 -17.748  1.00  0.00    -0.255 N
HETATM   25  N4  UNL     1      -8.969  24.745 -18.641  1.00  0.00    -0.171 N
ATOM     26  H3  UNL     1      -9.772  25.944 -17.177  1.00  0.00     0.191 HD
HETATM   27  C14 UNL     1      -7.702  24.702 -19.175  1.00  0.00     0.237 A
HETATM   28  S3  UNL     1      -7.316  23.629 -20.319  1.00  0.00    -0.035 SA
HETATM   29  N6  UNL     1      -6.933  25.614 -18.603  1.00  0.00    -0.200 N
BRANCH  25  30
HETATM   30  N5  UNL     1     -10.005  23.851 -19.041  1.00  0.00    -0.321 N
ATOM     31  H52 UNL     1     -10.145  23.570 -20.012  1.00  0.00     0.179 HD
ATOM     32  H51 UNL     1     -10.701  23.356 -18.484  1.00  0.00     0.179 HD
ENDBRANCH  25  30
BRANCH  29  33
HETATM   33  N7  UNL     1      -5.607  26.007 -18.760  1.00  0.00    -0.258 N
HETATM   34  C15 UNL     1      -4.439  25.479 -18.220  1.00  0.00     0.250 C
HETATM   35  O3  UNL     1      -4.368  24.496 -17.466  1.00  0.00    -0.271 OA
ATOM     36  H7  UNL     1      -5.469  26.812 -19.370  1.00  0.00     0.190 HD
BRANCH  34  37
HETATM   37  C16 UNL     1      -3.120  26.163 -18.575  1.00  0.00     0.219 C
HETATM   38 CL1  UNL     1      -3.377  27.863 -18.903  1.00  0.00    -0.121 Cl
ENDBRANCH  34  37
ENDBRANCH  29  33
ENDBRANCH  22  23
ENDBRANCH  21  22
ENDBRANCH   1  21
TORSDOF 11
ENDMDL