MODEL 2
REMARK VINA RESULT: -8.013231969      1.240      1.675
REMARK  12 active torsions:
REMARK  status: ('A' for Active; 'I' for Inactive)
REMARK    1  A    between atoms: C2_2  and  C3_3
REMARK    2  A    between atoms: C3_3  and  N1_4
REMARK    3  A    between atoms: N1_4  and  C4_5
REMARK    4  A    between atoms: N1_4  and  C6_8
REMARK    5  A    between atoms: C4_5  and  C5_6
REMARK    6  A    between atoms: C7_11  and  O1_12
REMARK    7  A    between atoms: C8_14  and  C9_15
REMARK    8  A    between atoms: C9_15  and  C10_16
REMARK    9  A    between atoms: C9_15  and  C18_33
REMARK   10  A    between atoms: C11_18  and  C12_19
REMARK   11  A    between atoms: C15_28  and  O2_29
REMARK   12  A    between atoms: C18_33  and  O3_34
ROOT
HETATM    1  C18 UNL     1      -6.184  29.510 -13.282  1.00  0.00     0.238 C
HETATM    2  C19 UNL     1      -5.029  28.673 -13.686  1.00  0.00     0.092 C
HETATM    3  N6  UNL     1      -4.114  28.031 -14.013  1.00  0.00    -0.194 NA
ENDROOT
BRANCH   1   4
HETATM    4  C9  UNL     1      -7.446  28.788 -13.541  1.00  0.00     0.113 C
BRANCH   4   5
HETATM    5  C8  UNL     1      -7.577  28.093 -14.835  1.00  0.00     0.049 A
HETATM    6  C7  UNL     1      -7.769  28.565 -16.111  1.00  0.00     0.156 A
HETATM    7  N2  UNL     1      -7.859  27.689 -17.058  1.00  0.00    -0.317 N
HETATM    8  C6  UNL     1      -7.776  26.412 -16.842  1.00  0.00     0.149 A
ATOM      9  H2  UNL     1      -8.002  28.015 -18.014  1.00  0.00     0.170 HD
HETATM   10  S2  UNL     1      -7.541  26.412 -15.109  1.00  0.00    -0.053 SA
BRANCH   6  11
HETATM   11  O1  UNL     1      -7.867  29.957 -16.386  1.00  0.00    -0.345 OA
ATOM     12  H1  UNL     1      -8.163  30.569 -15.722  1.00  0.00     0.219 HD
ENDBRANCH   6  11
BRANCH   8  13
HETATM   13  N1  UNL     1      -7.857  25.236 -17.673  1.00  0.00    -0.360 N
BRANCH  13  14
HETATM   14  C3  UNL     1      -7.807  23.892 -17.135  1.00  0.00     0.124 C
BRANCH  14  15
HETATM   15  C2  UNL     1      -9.014  23.408 -16.442  1.00  0.00     0.015 C
HETATM   16  C1  UNL     1      -9.009  21.928 -16.271  1.00  0.00     0.006 C
ENDBRANCH  14  15
ENDBRANCH  13  14
BRANCH  13  17
HETATM   17  C4  UNL     1      -7.925  25.374 -19.110  1.00  0.00     0.140 C
BRANCH  17  18
HETATM   18  C5  UNL     1      -9.249  25.618 -19.705  1.00  0.00     0.134 C
HETATM   19 CL1  UNL     1     -10.332  24.215 -19.743  1.00  0.00    -0.129 Cl
ENDBRANCH  17  18
ENDBRANCH  13  17
ENDBRANCH   8  13
ENDBRANCH   4   5
BRANCH   4  20
HETATM   20  C10 UNL     1      -8.682  29.571 -13.172  1.00  0.00     0.005 A
HETATM   21  S1  UNL     1      -8.992  31.220 -13.476  1.00  0.00    -0.087 SA
HETATM   22  C11 UNL     1     -10.586  31.342 -12.794  1.00  0.00     0.084 A
HETATM   23  C15 UNL     1     -10.802  30.080 -12.355  1.00  0.00     0.093 A
HETATM   24  C16 UNL     1      -9.812  29.165 -12.555  1.00  0.00    -0.013 A
HETATM   25  C17 UNL     1      -9.946  27.725 -12.079  1.00  0.00     0.052 C
BRANCH  22  26
HETATM   26  C12 UNL     1     -11.357  32.578 -12.811  1.00  0.00     0.141 A
HETATM   27  N3  UNL     1     -10.959  33.719 -13.467  1.00  0.00    -0.283 N
HETATM   28  N4  UNL     1     -11.830  34.684 -13.302  1.00  0.00    -0.288 N
ATOM     29  H3  UNL     1     -10.100  33.803 -14.010  1.00  0.00     0.188 HD
HETATM   30  C13 UNL     1     -12.814  34.226 -12.548  1.00  0.00     0.093 A
ATOM     31  H4  UNL     1     -11.760  35.625 -13.689  1.00  0.00     0.188 HD
HETATM   32  C14 UNL     1     -14.002  34.982 -12.116  1.00  0.00     0.090 C
HETATM   33  N5  UNL     1     -12.511  32.915 -12.249  1.00  0.00    -0.329 N
ATOM     34  H5  UNL     1     -13.088  32.295 -11.680  1.00  0.00     0.168 HD
ENDBRANCH  22  26
BRANCH  23  35
HETATM   35  O2  UNL     1     -12.010  29.720 -11.711  1.00  0.00    -0.359 OA
ATOM     36  H2  UNL     1     -12.658  29.176 -12.144  1.00  0.00     0.217 HD
ENDBRANCH  23  35
ENDBRANCH   4  20
ENDBRANCH   1   4
BRANCH   1  37
HETATM   37  O3  UNL     1      -6.058  29.580 -11.870  1.00  0.00    -0.380 OA
ATOM     38  H3  UNL     1      -5.417  28.920 -11.632  1.00  0.00     0.211 HD
ENDBRANCH   1  37
TORSDOF 12
ENDMDL