MODEL 3
REMARK VINA RESULT: -8.437754749      1.560      2.030
REMARK  10 active torsions:
REMARK  status: ('A' for Active; 'I' for Inactive)
REMARK    1  A    between atoms: N1_2  and  N2_3
REMARK    2  A    between atoms: N1_2  and  C6_19
REMARK    3  A    between atoms: N2_3  and  C2_5
REMARK    4  A    between atoms: C2_5  and  N3_6
REMARK    5  A    between atoms: C2_5  and  C3_10
REMARK    6  A    between atoms: C6_19  and  C7_20
REMARK    7  A    between atoms: C6_19  and  C8_23
REMARK    8  A    between atoms: C9_25  and  C10_26
REMARK    9  A    between atoms: C10_26  and  O4_27
REMARK   10  A    between atoms: O4_27  and  N5_28
ROOT
HETATM    1  C6  UNL     1      -7.128  29.832 -13.559  1.00  0.00     0.259 C
ENDROOT
BRANCH   1   2
HETATM    2  N1  UNL     1      -6.160  29.780 -12.502  1.00  0.00    -0.313 N
HETATM    3  C1  UNL     1      -6.667  29.649 -11.187  1.00  0.00     0.172 C
BRANCH   2   4
HETATM    4  N2  UNL     1      -5.068  29.042 -12.845  1.00  0.00    -0.303 N
ATOM      5  H2  UNL     1      -5.101  28.023 -12.885  1.00  0.00     0.182 HD
BRANCH   4   6
HETATM    6  C2  UNL     1      -3.866  29.771 -13.149  1.00  0.00     0.339 C
BRANCH   6   7
HETATM    7  N3  UNL     1      -2.912  28.834 -13.687  1.00  0.00    -0.052 N
ATOM      8  H33 UNL     1      -2.961  28.758 -14.703  1.00  0.00     0.277 HD
ATOM      9  H32 UNL     1      -1.950  29.166 -13.623  1.00  0.00     0.277 HD
ATOM     10  H31 UNL     1      -3.057  27.942 -13.214  1.00  0.00     0.277 HD
ENDBRANCH   6   7
BRANCH   6  11
HETATM   11  C3  UNL     1      -3.288  30.288 -11.847  1.00  0.00     0.064 A
HETATM   12  S1  UNL     1      -3.319  31.917 -11.373  1.00  0.00    -0.064 SA
HETATM   13  C4  UNL     1      -2.569  32.032  -9.864  1.00  0.00     0.112 A
HETATM   14  N4  UNL     1      -2.352  33.082  -9.095  1.00  0.00    -0.388 N
HETATM   15  S2  UNL     1      -2.156  30.414  -9.588  1.00  0.00    -0.052 SA
ATOM     16  H42 UNL     1      -2.601  34.058  -9.262  1.00  0.00     0.157 HD
ATOM     17  H41 UNL     1      -1.900  33.152  -8.184  1.00  0.00     0.157 HD
HETATM   18  C5  UNL     1      -2.680  29.502 -10.914  1.00  0.00     0.094 A
HETATM   19 CL1  UNL     1      -2.404  27.759 -10.945  1.00  0.00    -0.075 Cl
ENDBRANCH   6  11
ENDBRANCH   4   6
ENDBRANCH   2   4
ENDBRANCH   1   2
BRANCH   1  20
HETATM   20  C7  UNL     1      -7.058  31.091 -14.334  1.00  0.00     0.205 C
HETATM   21  O1  UNL     1      -6.377  32.061 -13.945  1.00  0.00    -0.646 OA
HETATM   22  O2  UNL     1      -7.762  31.195 -15.515  1.00  0.00    -0.646 OA
ENDBRANCH   1  20
BRANCH   1  23
HETATM   23  C8  UNL     1      -7.103  28.627 -14.442  1.00  0.00     0.095 A
HETATM   24  O3  UNL     1      -6.323  28.485 -15.481  1.00  0.00    -0.313 OA
HETATM   25  C9  UNL     1      -6.506  27.331 -16.077  1.00  0.00     0.094 A
HETATM   26  C11 UNL     1      -7.491  26.632 -15.388  1.00  0.00     0.051 A
HETATM   27  C12 UNL     1      -7.852  27.474 -14.359  1.00  0.00    -0.009 A
HETATM   28  C16 UNL     1      -8.104  25.344 -15.565  1.00  0.00     0.162 C
HETATM   29  C13 UNL     1      -8.900  27.051 -13.401  1.00  0.00     0.043 C
HETATM   30  C14 UNL     1      -9.089  25.581 -13.302  1.00  0.00     0.012 C
HETATM   31  C15 UNL     1      -9.146  24.865 -14.623  1.00  0.00     0.084 C
HETATM   32  O7  UNL     1      -7.793  24.573 -16.509  1.00  0.00    -0.292 OA
BRANCH  25  33
HETATM   33  C10 UNL     1      -5.821  26.790 -17.282  1.00  0.00     0.274 C
BRANCH  33  34
HETATM   34  O4  UNL     1      -4.491  27.258 -17.285  1.00  0.00    -0.215 OA
BRANCH  34  35
HETATM   35  N5  UNL     1      -3.779  27.161 -18.447  1.00  0.00     0.005 N
HETATM   36  O5  UNL     1      -3.552  26.041 -18.924  1.00  0.00    -0.511 OA
HETATM   37  O6  UNL     1      -3.335  28.302 -19.051  1.00  0.00    -0.511 OA
ENDBRANCH  34  35
ENDBRANCH  33  34
ENDBRANCH  25  33
ENDBRANCH   1  23
TORSDOF 10
ENDMDL