MODEL 1
REMARK VINA RESULT: -10.083686442      0.000      0.000
REMARK  10 active torsions:
REMARK  status: ('A' for Active; 'I' for Inactive)
REMARK    1  A    between atoms: O1_2  and  C2_3
REMARK    2  A    between atoms: C6_15  and  N5_16
REMARK    3  A    between atoms: N5_16  and  C7_18
REMARK    4  A    between atoms: C12_23  and  O2_24
REMARK    5  A    between atoms: O2_24  and  C13_25
REMARK    6  A    between atoms: C13_25  and  C14_26
REMARK    7  A    between atoms: C14_26  and  O3_27
REMARK    8  A    between atoms: O3_27  and  C15_28
REMARK    9  A    between atoms: C16_31  and  N7_32
REMARK   10  A    between atoms: C17_37  and  N9_38
ROOT
HETATM    1  C2  UNL     1      -7.930  27.101 -14.655  1.00  0.00     0.102 A
HETATM    2  C3  UNL     1      -8.339  25.845 -14.965  1.00  0.00     0.057 A
HETATM    3  C4  UNL     1      -8.317  25.278 -16.252  1.00  0.00     0.040 A
HETATM    4  C5  UNL     1      -8.786  23.924 -16.438  1.00  0.00     0.149 A
HETATM    5  N1  UNL     1      -8.910  23.090 -17.450  1.00  0.00    -0.268 N
ATOM      6  H1  UNL     1      -8.646  23.333 -18.405  1.00  0.00     0.190 HD
HETATM    7  N2  UNL     1      -9.406  21.916 -17.121  1.00  0.00    -0.227 N
ATOM      8  H2  UNL     1      -9.587  21.126 -17.739  1.00  0.00     0.210 HD
HETATM    9  N3  UNL     1      -9.618  21.981 -15.821  1.00  0.00    -0.227 N
ATOM     10  H3  UNL     1     -10.000  21.230 -15.246  1.00  0.00     0.210 HD
HETATM   11  N4  UNL     1      -9.257  23.168 -15.387  1.00  0.00    -0.268 N
ATOM     12  H4  UNL     1      -9.316  23.482 -14.419  1.00  0.00     0.190 HD
HETATM   13  C6  UNL     1      -7.831  26.100 -17.256  1.00  0.00     0.045 A
HETATM   14  C11 UNL     1      -7.397  27.405 -16.979  1.00  0.00     0.069 A
HETATM   15  C12 UNL     1      -7.444  27.903 -15.704  1.00  0.00     0.104 A
ENDROOT
BRANCH  15  16
HETATM   16  O2  UNL     1      -7.048  29.151 -15.370  1.00  0.00    -0.346 OA
BRANCH  16  17
HETATM   17  C13 UNL     1      -7.764  30.303 -15.189  1.00  0.00     0.202 C
BRANCH  17  18
HETATM   18  C14 UNL     1      -7.485  31.056 -13.921  1.00  0.00     0.205 C
BRANCH  18  19
HETATM   19  O3  UNL     1      -8.701  31.348 -13.249  1.00  0.00    -0.319 OA
BRANCH  19  20
HETATM   20  C15 UNL     1      -9.390  32.521 -13.415  1.00  0.00     0.252 A
HETATM   21  N6  UNL     1      -8.933  33.594 -14.063  1.00  0.00    -0.154 N
HETATM   22  C16 UNL     1      -9.630  34.733 -14.211  1.00  0.00     0.693 A
ATOM     23  H6  UNL     1      -7.999  33.547 -14.470  1.00  0.00     0.188 HD
HETATM   24  N8  UNL     1     -10.863  34.753 -13.655  1.00  0.00    -0.022 N
HETATM   25  C17 UNL     1     -11.379  33.707 -12.990  1.00  0.00     0.698 A
ATOM     26  H8  UNL     1     -11.426  35.599 -13.744  1.00  0.00     0.203 HD
HETATM   27  N10 UNL     1     -10.626  32.604 -12.882  1.00  0.00    -0.154 N
ATOM     28  H10 UNL     1     -11.002  31.799 -12.380  1.00  0.00     0.188 HD
BRANCH  22  29
HETATM   29  N7  UNL     1      -9.150  35.740 -14.843  1.00  0.00    -0.234 N
ATOM     30  H72 UNL     1      -8.312  36.229 -14.529  1.00  0.00     0.174 HD
ATOM     31  H71 UNL     1      -9.586  36.097 -15.693  1.00  0.00     0.174 HD
ENDBRANCH  22  29
BRANCH  25  32
HETATM   32  N9  UNL     1     -12.682  33.798 -12.431  1.00  0.00    -0.214 N
HETATM   33  C18 UNL     1     -13.354  32.728 -11.715  1.00  0.00     0.144 C
HETATM   34  C19 UNL     1     -14.382  33.414 -10.834  1.00  0.00     0.059 C
HETATM   35  C20 UNL     1     -14.541  34.817 -11.377  1.00  0.00     0.190 C
HETATM   36  F1  UNL     1     -15.817  35.020 -11.854  1.00  0.00    -0.248 F
HETATM   37  C21 UNL     1     -13.523  34.958 -12.492  1.00  0.00     0.178 C
ENDBRANCH  25  32
ENDBRANCH  19  20
ENDBRANCH  18  19
ENDBRANCH  17  18
ENDBRANCH  16  17
ENDBRANCH  15  16
BRANCH   1  38
HETATM   38  O1  UNL     1      -7.969  27.622 -13.364  1.00  0.00    -0.353 OA
HETATM   39  C1  UNL     1      -9.244  27.804 -12.777  1.00  0.00     0.210 C
ENDBRANCH   1  38
BRANCH  13  40
HETATM   40  N5  UNL     1      -7.772  25.620 -18.580  1.00  0.00    -0.381 N
ATOM     41  H5  UNL     1      -8.646  25.564 -19.103  1.00  0.00     0.160 HD
BRANCH  40  42
HETATM   42  C7  UNL     1      -6.562  25.202 -19.250  1.00  0.00     0.019 C
HETATM   43  C8  UNL     1      -6.917  24.091 -20.273  1.00  0.00     0.037 C
HETATM   44  C9  UNL     1      -5.580  24.558 -18.305  1.00  0.00     0.037 C
HETATM   45  C10 UNL     1      -5.911  26.303 -20.045  1.00  0.00     0.037 C
ENDBRANCH  40  42
ENDBRANCH  13  40
TORSDOF 10
ENDMDL