MODEL 3
REMARK VINA RESULT: -8.505699646      0.806      1.413
REMARK  10 active torsions:
REMARK  status: ('A' for Active; 'I' for Inactive)
REMARK    1  A    between atoms: C4_4  and  N1_5
REMARK    2  A    between atoms: N1_5  and  C6_7
REMARK    3  A    between atoms: C6_7  and  C7_8
REMARK    4  A    between atoms: C9_13  and  C10_14
REMARK    5  A    between atoms: C10_14  and  S1_15
REMARK    6  A    between atoms: S1_15  and  C11_16
REMARK    7  A    between atoms: C12_19  and  N4_20
REMARK    8  A    between atoms: C13_23  and  C14_24
REMARK    9  A    between atoms: N7_31  and  C17_32
REMARK   10  A    between atoms: C18_38  and  N10_39
ROOT
HETATM    1  C1  UNL     1     -10.815  35.653 -13.899  1.00  0.00     0.068 C
HETATM    2  C2  UNL     1     -10.516  34.242 -13.546  1.00  0.00     0.008 A
HETATM    3  C3  UNL     1      -9.252  33.772 -13.889  1.00  0.00     0.056 A
HETATM    4  C4  UNL     1      -8.896  32.471 -13.596  1.00  0.00     0.061 A
HETATM    5  C8  UNL     1      -9.834  31.669 -12.958  1.00  0.00     0.093 A
HETATM    6  N2  UNL     1      -9.514  30.408 -12.666  1.00  0.00    -0.341 N
ATOM      7  H2  UNL     1      -8.588  30.063 -12.917  1.00  0.00     0.167 HD
HETATM    8  C9  UNL     1     -10.391  29.562 -12.038  1.00  0.00     0.103 A
HETATM    9  N7  UNL     1     -11.605  30.013 -11.708  1.00  0.00    -0.245 N
HETATM   10  C19 UNL     1     -11.960  31.306 -11.998  1.00  0.00     0.284 A
HETATM   11  O2  UNL     1     -13.101  31.690 -11.675  1.00  0.00    -0.265 OA
HETATM   12  C20 UNL     1     -11.075  32.136 -12.624  1.00  0.00     0.131 A
HETATM   13  N11 UNL     1     -11.393  33.431 -12.930  1.00  0.00    -0.354 N
ATOM     14  H11 UNL     1     -12.316  33.789 -12.686  1.00  0.00     0.166 HD
ENDROOT
BRANCH   8  15
HETATM   15  C10 UNL     1      -9.888  28.197 -11.754  1.00  0.00     0.159 C
BRANCH  15  16
HETATM   16  S1  UNL     1      -8.233  27.977 -12.430  1.00  0.00    -0.085 SA
BRANCH  16  17
HETATM   17  C11 UNL     1      -8.174  27.068 -13.949  1.00  0.00     0.161 A
HETATM   18  N3  UNL     1      -7.392  27.438 -14.987  1.00  0.00    -0.321 N
HETATM   19  C12 UNL     1      -7.348  26.738 -16.134  1.00  0.00     0.125 A
ATOM     20  H3  UNL     1      -6.816  28.275 -14.897  1.00  0.00     0.169 HD
HETATM   21  C13 UNL     1      -8.106  25.601 -16.308  1.00  0.00     0.072 A
HETATM   22  N5  UNL     1      -8.881  25.244 -15.264  1.00  0.00    -0.299 N
HETATM   23  N6  UNL     1      -8.916  25.940 -14.141  1.00  0.00    -0.280 N
ATOM     24  H5  UNL     1      -9.461  24.408 -15.344  1.00  0.00     0.186 HD
ATOM     25  H6  UNL     1      -9.523  25.620 -13.387  1.00  0.00     0.189 HD
BRANCH  19  26
HETATM   26  N4  UNL     1      -6.588  27.105 -17.128  1.00  0.00    -0.384 N
ATOM     27  H42 UNL     1      -6.202  28.048 -17.095  1.00  0.00     0.157 HD
ATOM     28  H41 UNL     1      -6.388  26.477 -17.906  1.00  0.00     0.157 HD
ENDBRANCH  19  26
BRANCH  21  29
HETATM   29  C14 UNL     1      -8.084  24.802 -17.562  1.00  0.00     0.033 C
HETATM   30  C15 UNL     1      -9.308  25.134 -18.423  1.00  0.00     0.016 C
HETATM   31  C16 UNL     1      -8.086  23.320 -17.327  1.00  0.00     0.016 C
ENDBRANCH  21  29
ENDBRANCH  16  17
ENDBRANCH  15  16
ENDBRANCH   8  15
BRANCH   9  32
HETATM   32  C17 UNL     1     -12.520  29.179 -11.013  1.00  0.00     0.184 A
HETATM   33  N8  UNL     1     -13.487  28.356 -11.421  1.00  0.00    -0.221 N
HETATM   34  O1  UNL     1     -14.077  27.814 -10.410  1.00  0.00    -0.153 OA
ATOM     35  H8  UNL     1     -13.727  28.179 -12.396  1.00  0.00     0.198 HD
HETATM   36  N9  UNL     1     -13.546  28.239  -9.299  1.00  0.00    -0.222 N
HETATM   37  C18 UNL     1     -12.562  29.100  -9.625  1.00  0.00     0.168 A
ATOM     38  H9  UNL     1     -13.825  27.968  -8.355  1.00  0.00     0.198 HD
BRANCH  37  39
HETATM   39  N10 UNL     1     -11.852  29.693  -8.741  1.00  0.00    -0.381 N
ATOM     40 2H10 UNL     1     -11.925  29.475  -7.747  1.00  0.00     0.157 HD
ATOM     41 1H10 UNL     1     -11.151  30.428  -8.843  1.00  0.00     0.157 HD
ENDBRANCH  37  39
ENDBRANCH   9  32
BRANCH   4  42
HETATM   42  N1  UNL     1      -7.613  31.986 -13.943  1.00  0.00    -0.381 N
HETATM   43  C5  UNL     1      -7.463  31.103 -15.057  1.00  0.00     0.150 C
BRANCH  42  44
HETATM   44  C6  UNL     1      -6.472  32.394 -13.163  1.00  0.00     0.154 C
BRANCH  44  45
HETATM   45  C7  UNL     1      -5.925  31.196 -12.413  1.00  0.00     0.241 C
HETATM   46  F1  UNL     1      -6.650  30.911 -11.292  1.00  0.00    -0.254 F
ENDBRANCH  44  45
ENDBRANCH  42  44
ENDBRANCH   4  42
TORSDOF 10
ENDMDL