MODEL 4
REMARK VINA RESULT: -8.512143585      1.681      7.372
REMARK  13 active torsions:
REMARK  status: ('A' for Active; 'I' for Inactive)
REMARK    1  A    between atoms: O1_1  and  C1_3
REMARK    2  A    between atoms: C2_4  and  N1_5
REMARK    3  A    between atoms: N1_5  and  C3_6
REMARK    4  A    between atoms: N1_5  and  N3_16
REMARK    5  A    between atoms: C3_6  and  C4_7
REMARK    6  A    between atoms: C4_7  and  O2_8
REMARK    7  A    between atoms: C4_7  and  N2_10
REMARK    8  A    between atoms: N3_16  and  C9_18
REMARK    9  A    between atoms: C9_18  and  O4_19
REMARK   10  A    between atoms: C9_18  and  C10_21
REMARK   11  A    between atoms: C12_23  and  C13_24
REMARK   12  A    between atoms: N6_34  and  C17_35
REMARK   13  A    between atoms: C17_35  and  C18_36
ROOT
HETATM    1  N1  UNL     1      -6.920  29.204 -13.391  1.00  0.00    -0.271 N
ENDROOT
BRANCH   1   2
HETATM    2  C2  UNL     1      -7.439  28.010 -13.903  1.00  0.00     0.175 A
HETATM    3  C1  UNL     1      -7.019  27.436 -15.119  1.00  0.00     0.190 A
HETATM    4  N6  UNL     1      -7.624  26.289 -15.361  1.00  0.00    -0.320 N
HETATM    5  C16 UNL     1      -8.447  26.096 -14.310  1.00  0.00     0.186 A
HETATM    6  N5  UNL     1      -8.336  27.119 -13.447  1.00  0.00    -0.334 N
ATOM      7  H5  UNL     1      -8.855  27.206 -12.573  1.00  0.00     0.168 HD
BRANCH   3   8
HETATM    8  O1  UNL     1      -6.077  28.031 -15.944  1.00  0.00    -0.343 OA
ATOM      9  H1  UNL     1      -6.313  28.577 -16.685  1.00  0.00     0.219 HD
ENDBRANCH   3   8
BRANCH   4  10
HETATM   10  C17 UNL     1      -7.410  25.472 -16.523  1.00  0.00     0.136 C
BRANCH  10  11
HETATM   11  C18 UNL     1      -8.108  25.973 -17.769  1.00  0.00     0.004 C
HETATM   12  C19 UNL     1      -7.120  26.068 -18.888  1.00  0.00     0.006 C
HETATM   13  C20 UNL     1      -7.725  25.825 -20.249  1.00  0.00     0.000 C
HETATM   14  C21 UNL     1      -8.290  24.404 -20.185  1.00  0.00     0.000 C
HETATM   15  C22 UNL     1      -9.487  24.480 -19.302  1.00  0.00     0.000 C
HETATM   16  C23 UNL     1      -9.353  25.245 -18.049  1.00  0.00     0.006 C
ENDBRANCH  10  11
ENDBRANCH   4  10
ENDBRANCH   1   2
BRANCH   1  17
HETATM   17  C3  UNL     1      -5.756  28.999 -12.512  1.00  0.00     0.214 C
BRANCH  17  18
HETATM   18  C4  UNL     1      -5.407  30.137 -11.648  1.00  0.00     0.376 C
BRANCH  18  19
HETATM   19  O2  UNL     1      -6.470  30.693 -10.951  1.00  0.00    -0.366 OA
ATOM     20  H2  UNL     1      -6.231  31.168 -10.164  1.00  0.00     0.212 HD
ENDBRANCH  18  19
BRANCH  18  21
HETATM   21  N2  UNL     1      -4.293  29.951 -10.754  1.00  0.00     0.122 N
HETATM   22  C5  UNL     1      -3.088  30.592 -11.221  1.00  0.00     0.302 C
HETATM   23  C6  UNL     1      -3.118  32.092 -10.951  1.00  0.00     0.198 C
HETATM   24  O3  UNL     1      -3.069  32.301  -9.597  1.00  0.00    -0.388 OA
HETATM   25  C7  UNL     1      -3.486  31.241  -8.816  1.00  0.00     0.198 C
HETATM   26  C8  UNL     1      -4.649  30.548  -9.480  1.00  0.00     0.302 C
ENDBRANCH  18  21
ENDBRANCH  17  18
ENDBRANCH   1  17
BRANCH   1  27
HETATM   27  N3  UNL     1      -7.362  30.425 -13.674  1.00  0.00    -0.298 N
ATOM     28  H3  UNL     1      -6.665  31.105 -13.977  1.00  0.00     0.183 HD
BRANCH  27  29
HETATM   29  C9  UNL     1      -8.683  30.872 -13.600  1.00  0.00     0.285 C
BRANCH  29  30
HETATM   30  O4  UNL     1      -9.037  30.671 -12.199  1.00  0.00    -0.370 OA
ATOM     31  H4  UNL     1      -8.716  31.457 -11.772  1.00  0.00     0.212 HD
ENDBRANCH  29  30
BRANCH  29  32
HETATM   32  C10 UNL     1      -8.915  32.328 -13.759  1.00  0.00     0.084 A
HETATM   33  C11 UNL     1     -10.047  33.004 -13.280  1.00  0.00     0.067 A
HETATM   34  C12 UNL     1      -9.955  34.350 -13.595  1.00  0.00     0.085 A
HETATM   35  O5  UNL     1      -8.821  34.462 -14.232  1.00  0.00    -0.242 OA
HETATM   36  N4  UNL     1      -8.224  33.315 -14.328  1.00  0.00    -0.261 N
ATOM     37  H4  UNL     1      -7.324  33.182 -14.789  1.00  0.00     0.194 HD
BRANCH  34  38
HETATM   38  C13 UNL     1     -10.932  35.422 -13.275  1.00  0.00     0.082 A
HETATM   39  C14 UNL     1     -11.943  35.826 -14.364  1.00  0.00     0.052 A
HETATM   40  C15 UNL     1     -12.384  35.072 -13.163  1.00  0.00     0.181 A
HETATM   41  F1  UNL     1     -13.183  35.718 -12.265  1.00  0.00    -0.249 F
ENDBRANCH  34  38
ENDBRANCH  29  32
ENDBRANCH  27  29
ENDBRANCH   1  27
TORSDOF 13
ENDMDL