MODEL 1
REMARK VINA RESULT: -8.051046701      0.000      0.000
REMARK  11 active torsions:
REMARK  status: ('A' for Active; 'I' for Inactive)
REMARK    1  A    between atoms: C2_2  and  C3_3
REMARK    2  A    between atoms: C3_3  and  N1_4
REMARK    3  A    between atoms: C6_9  and  C7_10
REMARK    4  A    between atoms: C7_10  and  C8_11
REMARK    5  A    between atoms: C10_18  and  S1_19
REMARK    6  A    between atoms: S1_19  and  C11_20
REMARK    7  A    between atoms: C11_20  and  C12_21
REMARK    8  A    between atoms: C12_21  and  C13_22
REMARK    9  A    between atoms: C13_22  and  C14_23
REMARK   10  A    between atoms: C14_23  and  C15_24
REMARK   11  A    between atoms: C15_24  and  C16_25
ROOT
HETATM    1  C8  UNL     1      -6.991  31.606 -12.239  1.00  0.00     0.162 A
HETATM    2  N3  UNL     1      -6.832  33.000 -12.510  1.00  0.00    -0.099 NA
HETATM    3  N4  UNL     1      -6.337  32.787 -13.780  1.00  0.00    -0.050 NA
HETATM    4  N5  UNL     1      -6.619  31.444 -13.622  1.00  0.00    -0.163 NA
HETATM    5  C9  UNL     1      -7.776  30.971 -14.356  1.00  0.00     0.195 A
HETATM    6  N6  UNL     1      -7.432  29.882 -15.085  1.00  0.00    -0.360 N
ATOM      7  H6  UNL     1      -6.682  29.959 -15.772  1.00  0.00     0.162 HD
HETATM    8  C10 UNL     1      -8.017  28.774 -14.935  1.00  0.00     0.105 A
HETATM    9  S2  UNL     1      -9.254  29.024 -13.667  1.00  0.00    -0.094 SA
HETATM   10  C18 UNL     1      -8.904  30.787 -13.436  1.00  0.00     0.136 A
HETATM   11  C19 UNL     1      -8.415  31.127 -12.082  1.00  0.00     0.154 A
HETATM   12  C20 UNL     1      -8.577  30.058 -11.054  1.00  0.00     0.057 C
HETATM   13  F1  UNL     1      -9.147  32.236 -11.633  1.00  0.00    -0.238 F
ENDROOT
BRANCH   8  14
HETATM   14  S1  UNL     1      -7.558  27.361 -15.892  1.00  0.00    -0.105 SA
BRANCH  14  15
HETATM   15  C11 UNL     1      -5.838  27.069 -15.987  1.00  0.00     0.081 C
BRANCH  15  16
HETATM   16  C12 UNL     1      -5.525  25.623 -16.307  1.00  0.00     0.010 C
BRANCH  16  17
HETATM   17  C13 UNL     1      -4.988  25.327 -17.645  1.00  0.00     0.001 C
BRANCH  17  18
HETATM   18  C14 UNL     1      -5.821  25.611 -18.838  1.00  0.00     0.006 C
BRANCH  18  19
HETATM   19  C15 UNL     1      -6.780  24.657 -19.367  1.00  0.00     0.060 C
BRANCH  19  20
HETATM   20  C16 UNL     1      -7.619  23.860 -18.505  1.00  0.00     0.044 A
HETATM   21  C17 UNL     1      -8.871  24.208 -17.981  1.00  0.00     0.135 A
HETATM   22  N7  UNL     1      -9.272  23.176 -17.247  1.00  0.00    -0.296 N
HETATM   23  N8  UNL     1      -8.376  22.210 -17.265  1.00  0.00    -0.243 N
ATOM     24  H7  UNL     1     -10.154  23.137 -16.737  1.00  0.00     0.187 HD
HETATM   25  N9  UNL     1      -7.382  22.615 -18.020  1.00  0.00    -0.289 N
ATOM     26  H8  UNL     1      -8.442  21.314 -16.782  1.00  0.00     0.208 HD
ATOM     27  H9  UNL     1      -6.544  22.068 -18.215  1.00  0.00     0.188 HD
ENDBRANCH  19  20
ENDBRANCH  18  19
ENDBRANCH  17  18
ENDBRANCH  16  17
ENDBRANCH  15  16
ENDBRANCH  14  15
ENDBRANCH   8  14
BRANCH   1  28
HETATM   28  C7  UNL     1      -6.039  30.982 -11.267  1.00  0.00     0.108 C
BRANCH  28  29
HETATM   29  C6  UNL     1      -4.898  30.364 -12.009  1.00  0.00     0.033 A
HETATM   30  N1  UNL     1      -3.690  30.900 -12.200  1.00  0.00    -0.297 N
HETATM   31  N2  UNL     1      -2.991  30.042 -12.937  1.00  0.00    -0.310 N
HETATM   32  C4  UNL     1      -3.702  28.958 -13.235  1.00  0.00     0.109 A
ATOM     33  H2  UNL     1      -2.028  30.196 -13.236  1.00  0.00     0.186 HD
HETATM   34  C5  UNL     1      -4.931  29.139 -12.651  1.00  0.00     0.045 A
BRANCH  30  35
HETATM   35  C3  UNL     1      -3.121  32.147 -11.719  1.00  0.00     0.148 C
BRANCH  35  36
HETATM   36  C2  UNL     1      -2.189  31.822 -10.546  1.00  0.00     0.017 C
HETATM   37  C1  UNL     1      -2.917  32.175  -9.247  1.00  0.00     0.007 C
ENDBRANCH  35  36
ENDBRANCH  30  35
ENDBRANCH  28  29
ENDBRANCH   1  28
TORSDOF 11
ENDMDL