MODEL 1
REMARK VINA RESULT: -7.184683131      0.000      0.000
REMARK  13 active torsions:
REMARK  status: ('A' for Active; 'I' for Inactive)
REMARK    1  A    between atoms: C2_2  and  O1_4
REMARK    2  A    between atoms: O1_4  and  C4_5
REMARK    3  A    between atoms: C4_5  and  C5_7
REMARK    4  A    between atoms: C6_12  and  N3_13
REMARK    5  A    between atoms: N4_15  and  C7_17
REMARK    6  A    between atoms: C7_17  and  C8_18
REMARK    7  A    between atoms: C8_18  and  C9_19
REMARK    8  A    between atoms: C9_19  and  C10_20
REMARK    9  A    between atoms: C11_21  and  C12_22
REMARK   10  A    between atoms: C12_22  and  C13_24
REMARK   11  A    between atoms: C14_29  and  C15_30
REMARK   12  A    between atoms: C16_32  and  O6_33
REMARK   13  A    between atoms: C17_35  and  C18_36
ROOT
HETATM    1  C5  UNL     1     -16.063  -7.761  10.979  1.00  0.00     0.138 A
HETATM    2  N1  UNL     1     -14.798  -7.217  10.996  1.00  0.00    -0.293 N
ATOM      3  H1  UNL     1     -14.404  -6.954  11.899  1.00  0.00     0.187 HD
HETATM    4  N2  UNL     1     -14.077  -7.018   9.942  1.00  0.00    -0.281 N
ATOM      5  H2  UNL     1     -13.148  -6.610  10.035  1.00  0.00     0.188 HD
HETATM    6  C6  UNL     1     -14.553  -7.352   8.700  1.00  0.00     0.169 A
HETATM    7  C16 UNL     1     -15.801  -7.901   8.568  1.00  0.00     0.126 A
HETATM    8  C17 UNL     1     -16.555  -8.100   9.747  1.00  0.00     0.050 A
ENDROOT
BRANCH   6   9
HETATM    9  N3  UNL     1     -13.789  -7.121   7.739  1.00  0.00    -0.282 N
HETATM   10  N4  UNL     1     -13.242  -7.599   6.686  1.00  0.00    -0.310 N
ATOM     11  H4  UNL     1     -13.976  -8.033   6.125  1.00  0.00     0.186 HD
ATOM     12  H3  UNL     1     -13.472  -6.157   7.832  1.00  0.00     0.188 HD
BRANCH  10  13
HETATM   13  C7  UNL     1     -12.175  -7.739   6.083  1.00  0.00     0.107 C
BRANCH  13  14
HETATM   14  C8  UNL     1     -10.916  -8.274   6.611  1.00  0.00     0.020 C
BRANCH  14  15
HETATM   15  C9  UNL     1     -10.285  -7.727   7.589  1.00  0.00     0.018 C
BRANCH  15  16
HETATM   16  C10 UNL     1      -9.622  -8.435   8.666  1.00  0.00     0.035 A
HETATM   17  C11 UNL     1     -10.147  -9.158   9.691  1.00  0.00     0.115 A
HETATM   18  N5  UNL     1      -9.032  -9.751  10.266  1.00  0.00    -0.256 N
HETATM   19  O4  UNL     1      -7.974  -9.420   9.666  1.00  0.00    -0.233 OA
ATOM     20  H5  UNL     1      -9.065 -10.376  11.071  1.00  0.00     0.195 HD
HETATM   21  C14 UNL     1      -8.202  -8.616   8.669  1.00  0.00     0.148 A
BRANCH  17  22
HETATM   22  C12 UNL     1     -11.484  -9.300  10.220  1.00  0.00     0.192 C
HETATM   23  O3  UNL     1     -11.967  -8.659  11.183  1.00  0.00    -0.289 OA
BRANCH  22  24
HETATM   24  C13 UNL     1     -12.448 -10.284   9.623  1.00  0.00     0.200 C
HETATM   25 CL1  UNL     1     -11.790 -11.878   9.472  1.00  0.00    -0.122 Cl
ENDBRANCH  22  24
ENDBRANCH  17  22
BRANCH  21  26
HETATM   26  C15 UNL     1      -7.274  -8.016   7.746  1.00  0.00     0.298 C
HETATM   27  O5  UNL     1      -6.977  -8.388   6.600  1.00  0.00    -0.299 OA
ENDBRANCH  21  26
ENDBRANCH  15  16
ENDBRANCH  14  15
ENDBRANCH  13  14
ENDBRANCH  10  13
ENDBRANCH   6   9
BRANCH   7  28
HETATM   28  O6  UNL     1     -16.343  -8.259   7.358  1.00  0.00    -0.356 OA
ATOM     29  H6  UNL     1     -17.278  -8.280   7.190  1.00  0.00     0.218 HD
ENDBRANCH   7  28
BRANCH   8  30
HETATM   30  C18 UNL     1     -17.869  -8.676   9.595  1.00  0.00     0.097 C
HETATM   31  N6  UNL     1     -18.137  -9.868   9.434  1.00  0.00    -0.407 N
ATOM     32  H62 UNL     1     -17.336 -10.499   9.408  1.00  0.00     0.155 HD
ATOM     33  H61 UNL     1     -19.066 -10.275   9.326  1.00  0.00     0.155 HD
ENDBRANCH   8  30
BRANCH   1  34
HETATM   34  C4  UNL     1     -16.760  -7.930  12.217  1.00  0.00     0.312 C
HETATM   35  O2  UNL     1     -16.334  -7.229  13.219  1.00  0.00    -0.258 OA
BRANCH  34  36
HETATM   36  O1  UNL     1     -17.812  -8.720  12.515  1.00  0.00    -0.312 OA
BRANCH  36  37
HETATM   37  C2  UNL     1     -18.925  -8.429  13.297  1.00  0.00     0.124 C
HETATM   38  C1  UNL     1     -20.131  -9.106  12.690  1.00  0.00     0.040 C
HETATM   39  C3  UNL     1     -18.800  -8.932  14.718  1.00  0.00     0.040 C
ENDBRANCH  36  37
ENDBRANCH  34  36
ENDBRANCH   1  34
TORSDOF 13
ENDMDL