MODEL 3
REMARK VINA RESULT: -7.539780924      2.032      2.765
REMARK  8 active torsions:
REMARK  status: ('A' for Active; 'I' for Inactive)
REMARK       I    between atoms: N2_3  and  C2_5
REMARK       I    between atoms: C2_5  and  N3_7
REMARK       I    between atoms: N3_7  and  C3_9
REMARK    1  A    between atoms: C3_9  and  C4_11
REMARK    2  A    between atoms: C4_11  and  C5_12
REMARK    3  A    between atoms: C5_12  and  O3_13
REMARK    4  A    between atoms: C7_17  and  N4_18
REMARK    5  A    between atoms: C9_22  and  C10_23
REMARK    6  A    between atoms: C16_29  and  N6_30
REMARK    7  A    between atoms: N6_30  and  C17_32
REMARK    8  A    between atoms: C17_32  and  C18_33
ROOT
HETATM    1  N1  UNL     1     -20.840  -9.442  13.161  1.00  0.00    -0.172 NA
HETATM    2  C1  UNL     1     -19.882  -9.060  12.651  1.00  0.00     0.185 C
HETATM    3  N2  UNL     1     -18.709  -8.572  12.008  1.00  0.00    -0.245 N
ATOM      4  H2  UNL     1     -18.064  -7.990  12.542  1.00  0.00     0.183 HD
HETATM    5  C2  UNL     1     -18.408  -8.858  10.675  1.00  0.00     0.335 C
HETATM    6  O1  UNL     1     -19.284  -9.590  10.075  1.00  0.00    -0.246 OA
HETATM    7  N3  UNL     1     -17.309  -8.462   9.938  1.00  0.00    -0.277 N
ATOM      8  H3  UNL     1     -17.306  -8.761   8.963  1.00  0.00     0.173 HD
HETATM    9  C3  UNL     1     -16.173  -7.693  10.345  1.00  0.00     0.247 C
HETATM   10  O2  UNL     1     -16.063  -7.223  11.477  1.00  0.00    -0.271 OA
ENDROOT
BRANCH   9  11
HETATM   11  C4  UNL     1     -15.096  -7.496   9.297  1.00  0.00     0.121 C
HETATM   12  C6  UNL     1     -13.740  -7.773   9.861  1.00  0.00     0.109 C
HETATM   13  S1  UNL     1     -12.644  -8.228   8.459  1.00  0.00    -0.131 SA
HETATM   14  C7  UNL     1     -13.777  -8.454   7.074  1.00  0.00     0.217 C
HETATM   15  S2  UNL     1     -15.316  -8.679   7.955  1.00  0.00    -0.110 SA
BRANCH  11  16
HETATM   16  C5  UNL     1     -15.178  -6.054   8.807  1.00  0.00     0.195 C
BRANCH  16  17
HETATM   17  O3  UNL     1     -15.149  -5.156   9.817  1.00  0.00    -0.399 OA
ATOM     18  H3  UNL     1     -15.197  -4.257   9.513  1.00  0.00     0.209 HD
ENDBRANCH  16  17
ENDBRANCH  11  16
BRANCH  14  19
HETATM   19  N4  UNL     1     -13.428  -9.515   6.144  1.00  0.00    -0.305 N
HETATM   20  C8  UNL     1     -13.200  -9.234   4.836  1.00  0.00     0.187 A
HETATM   21  N5  UNL     1     -13.010 -10.395   4.204  1.00  0.00    -0.349 N
HETATM   22  C9  UNL     1     -13.105 -11.451   5.070  1.00  0.00     0.080 A
ATOM     23  H5  UNL     1     -12.820 -10.483   3.206  1.00  0.00     0.167 HD
HETATM   24  C16 UNL     1     -13.377 -10.830   6.292  1.00  0.00     0.133 A
BRANCH  22  25
HETATM   25  C10 UNL     1     -12.689 -12.846   4.784  1.00  0.00    -0.049 C
HETATM   26  C11 UNL     1     -11.265 -13.079   4.473  1.00  0.00     0.036 C
HETATM   27  C12 UNL     1     -10.748 -14.414   4.885  1.00  0.00     0.004 C
HETATM   28  C13 UNL     1     -11.871 -15.380   5.087  1.00  0.00     0.001 C
HETATM   29  C14 UNL     1     -13.034 -15.188   4.182  1.00  0.00     0.004 C
HETATM   30  C15 UNL     1     -13.671 -13.796   4.297  1.00  0.00     0.036 C
ENDBRANCH  22  25
BRANCH  24  31
HETATM   31  N6  UNL     1     -13.604 -11.513   7.520  1.00  0.00    -0.372 N
ATOM     32  H6  UNL     1     -14.550 -11.704   7.850  1.00  0.00     0.161 HD
BRANCH  31  33
HETATM   33  C17 UNL     1     -12.442 -11.926   8.287  1.00  0.00     0.152 C
BRANCH  33  34
HETATM   34  C18 UNL     1     -12.342 -13.389   8.515  1.00  0.00     0.241 C
HETATM   35  F1  UNL     1     -13.378 -14.021   7.823  1.00  0.00    -0.254 F
ENDBRANCH  33  34
ENDBRANCH  31  33
ENDBRANCH  24  31
ENDBRANCH  14  19
ENDBRANCH   9  11
TORSDOF 8
ENDMDL