MODEL 4
REMARK VINA RESULT: -7.542242799      3.247      4.145
REMARK  8 active torsions:
REMARK  status: ('A' for Active; 'I' for Inactive)
REMARK    1  A    between atoms: C1_4  and  C2_5
REMARK    2  A    between atoms: C2_5  and  O1_6
REMARK    3  A    between atoms: O1_6  and  C3_7
REMARK    4  A    between atoms: C5_9  and  N2_10
REMARK    5  A    between atoms: N2_10  and  C6_12
REMARK    6  A    between atoms: C8_14  and  N3_15
REMARK    7  A    between atoms: C15_26  and  N5_27
REMARK    8  A    between atoms: C16_30  and  N6_31
ROOT
HETATM    1  N2  UNL     1     -15.991  -8.264   6.665  1.00  0.00    -0.352 N
ATOM      2  H2  UNL     1     -15.682  -7.504   6.059  1.00  0.00     0.166 HD
ENDROOT
BRANCH   1   3
HETATM    3  C5  UNL     1     -16.049  -7.939   8.019  1.00  0.00     0.075 A
HETATM    4  C4  UNL     1     -16.659  -8.694   8.979  1.00  0.00     0.088 A
HETATM    5  C3  UNL     1     -16.639  -8.367  10.342  1.00  0.00     0.147 A
HETATM    6  N7  UNL     1     -15.998  -7.268  10.754  1.00  0.00    -0.302 N
HETATM    7  C17 UNL     1     -15.394  -6.519   9.820  1.00  0.00     0.282 A
ATOM      8  H7  UNL     1     -15.970  -7.009  11.740  1.00  0.00     0.171 HD
HETATM    9  C16 UNL     1     -15.386  -6.797   8.477  1.00  0.00     0.197 A
HETATM   10  O6  UNL     1     -14.782  -5.474  10.209  1.00  0.00    -0.265 OA
BRANCH   5  11
HETATM   11  O1  UNL     1     -17.270  -9.154  11.290  1.00  0.00    -0.331 OA
BRANCH  11  12
HETATM   12  C2  UNL     1     -17.609  -8.631  12.573  1.00  0.00     0.221 C
BRANCH  12  13
HETATM   13  C1  UNL     1     -19.067  -8.744  12.731  1.00  0.00     0.079 C
HETATM   14  N1  UNL     1     -19.809  -7.977  13.417  1.00  0.00    -0.409 N
ATOM     15  H12 UNL     1     -19.334  -7.215  13.899  1.00  0.00     0.155 HD
ATOM     16  H11 UNL     1     -20.821  -8.056  13.527  1.00  0.00     0.155 HD
ENDBRANCH  12  13
ENDBRANCH  11  12
ENDBRANCH   5  11
BRANCH   9  17
HETATM   17  N6  UNL     1     -14.708  -5.932   7.569  1.00  0.00    -0.107 N
HETATM   18  O4  UNL     1     -13.568  -6.145   7.118  1.00  0.00    -0.531 OA
HETATM   19  O5  UNL     1     -15.354  -4.791   7.166  1.00  0.00    -0.531 OA
ENDBRANCH   9  17
ENDBRANCH   1   3
BRANCH   1  20
HETATM   20  C6  UNL     1     -16.286  -9.462   5.994  1.00  0.00     0.068 A
HETATM   21  C7  UNL     1     -17.488  -9.618   5.301  1.00  0.00     0.063 A
HETATM   22  C8  UNL     1     -17.813 -10.750   4.574  1.00  0.00     0.054 A
HETATM   23  C13 UNL     1     -16.884 -11.754   4.552  1.00  0.00     0.063 A
HETATM   24 CL1  UNL     1     -17.205 -13.248   3.643  1.00  0.00    -0.082 Cl
HETATM   25  C14 UNL     1     -15.686 -11.687   5.197  1.00  0.00     0.064 A
HETATM   26  C15 UNL     1     -15.390 -10.508   5.934  1.00  0.00     0.131 A
BRANCH  22  27
HETATM   27  N3  UNL     1     -19.037 -10.889   3.885  1.00  0.00    -0.376 N
HETATM   28  C9  UNL     1     -19.212 -10.629   2.468  1.00  0.00     0.150 C
HETATM   29  C10 UNL     1     -20.443 -11.432   2.018  1.00  0.00     0.252 C
HETATM   30  N4  UNL     1     -21.594 -10.789   2.602  1.00  0.00    -0.072 N
HETATM   31  C11 UNL     1     -21.470 -10.637   4.039  1.00  0.00     0.252 C
ATOM     32  H42 UNL     1     -21.784  -9.893   2.152  1.00  0.00     0.277 HD
ATOM     33  H41 UNL     1     -22.454 -11.279   2.355  1.00  0.00     0.277 HD
HETATM   34  C12 UNL     1     -20.251 -11.332   4.587  1.00  0.00     0.150 C
ENDBRANCH  22  27
BRANCH  26  35
HETATM   35  N5  UNL     1     -14.145 -10.534   6.602  1.00  0.00    -0.113 N
HETATM   36  O2  UNL     1     -13.819 -11.359   7.423  1.00  0.00    -0.532 OA
HETATM   37  O3  UNL     1     -13.241  -9.511   6.325  1.00  0.00    -0.532 OA
ENDBRANCH  26  35
ENDBRANCH   1  20
TORSDOF 8
ENDMDL