MODEL 4
REMARK VINA RESULT: -6.537106145      2.906      4.665
REMARK  11 active torsions:
REMARK  status: ('A' for Active; 'I' for Inactive)
REMARK    1  A    between atoms: O1_2  and  C2_3
REMARK    2  A    between atoms: C4_5  and  N1_6
REMARK       I    between atoms: N1_6  and  C5_8
REMARK       I    between atoms: C5_8  and  N2_10
REMARK    3  A    between atoms: N2_10  and  C6_11
REMARK    4  A    between atoms: C7_12  and  S1_13
REMARK    5  A    between atoms: S1_13  and  C8_14
REMARK    6  A    between atoms: C8_14  and  C9_15
REMARK    7  A    between atoms: C9_15  and  O4_17
REMARK    8  A    between atoms: O4_17  and  C10_18
REMARK    9  A    between atoms: C11_24  and  N4_25
REMARK   10  A    between atoms: C13_29  and  O7_30
REMARK   11  A    between atoms: C15_32  and  O8_33
ROOT
HETATM    1  C6  UNL     1     -15.563  -7.232   8.530  1.00  0.00     0.200 A
HETATM    2  C7  UNL     1     -15.430  -7.348   9.941  1.00  0.00     0.180 A
HETATM    3  O6  UNL     1     -15.118  -6.192  10.437  1.00  0.00    -0.226 OA
HETATM    4  N3  UNL     1     -15.024  -5.316   9.503  1.00  0.00    -0.241 N
ATOM      5  H3  UNL     1     -14.787  -4.335   9.649  1.00  0.00     0.196 HD
HETATM    6  C11 UNL     1     -15.278  -5.864   8.316  1.00  0.00     0.164 A
ENDROOT
BRANCH   1   7
HETATM    7  N2  UNL     1     -15.888  -8.162   7.643  1.00  0.00    -0.344 NA
HETATM    8  C5  UNL     1     -16.208  -9.109   6.739  1.00  0.00     0.399 C
HETATM    9  N1  UNL     1     -17.577  -9.541   6.446  1.00  0.00    -0.297 N
HETATM   10  O2  UNL     1     -15.338  -9.752   6.032  1.00  0.00    -0.230 OA
ATOM     11  H1  UNL     1     -18.388  -9.131   6.909  1.00  0.00     0.172 HD
BRANCH   9  12
HETATM   12  C4  UNL     1     -17.702 -10.583   5.461  1.00  0.00     0.043 A
HETATM   13  C3  UNL     1     -18.055 -10.306   4.146  1.00  0.00     0.069 A
HETATM   14  C2  UNL     1     -18.258 -11.345   3.227  1.00  0.00     0.106 A
HETATM   15  C15 UNL     1     -18.107 -12.667   3.597  1.00  0.00     0.135 A
HETATM   16  C13 UNL     1     -17.751 -12.946   4.904  1.00  0.00     0.106 A
HETATM   17  C12 UNL     1     -17.554 -11.914   5.812  1.00  0.00     0.069 A
BRANCH  14  18
HETATM   18  O1  UNL     1     -18.615 -11.113   1.913  1.00  0.00    -0.353 OA
HETATM   19  C1  UNL     1     -19.950 -10.615   1.672  1.00  0.00     0.210 C
ENDBRANCH  14  18
BRANCH  15  20
HETATM   20  O8  UNL     1     -18.316 -13.686   2.648  1.00  0.00    -0.351 OA
HETATM   21  C16 UNL     1     -19.608 -14.295   2.516  1.00  0.00     0.210 C
ENDBRANCH  15  20
BRANCH  16  22
HETATM   22  O7  UNL     1     -17.602 -14.252   5.243  1.00  0.00    -0.353 OA
HETATM   23  C14 UNL     1     -18.460 -14.968   6.061  1.00  0.00     0.210 C
ENDBRANCH  16  22
ENDBRANCH   9  12
ENDBRANCH   1   7
BRANCH   2  24
HETATM   24  S1  UNL     1     -15.666  -8.897  10.789  1.00  0.00    -0.089 SA
BRANCH  24  25
HETATM   25  C8  UNL     1     -17.270  -8.961  11.533  1.00  0.00     0.193 C
BRANCH  25  26
HETATM   26  C9  UNL     1     -17.377  -7.993  12.670  1.00  0.00     0.277 C
HETATM   27  O3  UNL     1     -16.396  -7.371  13.115  1.00  0.00    -0.264 OA
BRANCH  26  28
HETATM   28  O4  UNL     1     -18.633  -7.774  13.258  1.00  0.00    -0.217 OA
BRANCH  28  29
HETATM   29  C10 UNL     1     -19.235  -8.798  13.960  1.00  0.00     0.452 C
HETATM   30  O5  UNL     1     -20.341  -9.316  13.624  1.00  0.00    -0.224 OA
HETATM   31  F1  UNL     1     -18.583  -9.272  15.075  1.00  0.00    -0.135 F
ENDBRANCH  28  29
ENDBRANCH  26  28
ENDBRANCH  25  26
ENDBRANCH  24  25
ENDBRANCH   2  24
BRANCH   6  32
HETATM   32  N4  UNL     1     -15.308  -5.347   7.128  1.00  0.00    -0.381 N
ATOM     33  H42 UNL     1     -15.968  -4.701   6.695  1.00  0.00     0.157 HD
ATOM     34  H41 UNL     1     -14.599  -5.577   6.431  1.00  0.00     0.157 HD
ENDBRANCH   6  32
TORSDOF 11
ENDMDL