MODEL 5
REMARK VINA RESULT: -7.076279763      2.051      3.295
REMARK  12 active torsions:
REMARK  status: ('A' for Active; 'I' for Inactive)
REMARK    1  A    between atoms: C2_2  and  O1_3
REMARK    2  A    between atoms: C2_2  and  C3_5
REMARK    3  A    between atoms: C3_5  and  N1_6
REMARK    4  A    between atoms: C3_5  and  C10_22
REMARK    5  A    between atoms: N1_6  and  N2_8
REMARK    6  A    between atoms: N2_8  and  C4_10
REMARK    7  A    between atoms: C7_14  and  O2_15
REMARK    8  A    between atoms: C8_17  and  N3_18
REMARK       I    between atoms: C10_22  and  N4_24
REMARK    9  A    between atoms: N4_24  and  C11_26
REMARK   10  A    between atoms: C11_26  and  O6_27
REMARK   11  A    between atoms: C11_26  and  O7_29
REMARK   12  A    between atoms: O7_29  and  C12_30
ROOT
HETATM    1  C3  UNL     1     -14.215  -7.026   9.630  1.00  0.00     0.144 C
ENDROOT
BRANCH   1   2
HETATM    2  C2  UNL     1     -14.821  -6.197   8.624  1.00  0.00     0.073 C
HETATM    3  C1  UNL     1     -14.933  -6.437   7.183  1.00  0.00     0.078 C
BRANCH   2   4
HETATM    4  O1  UNL     1     -15.338  -5.085   9.059  1.00  0.00    -0.363 OA
ATOM      5  H1  UNL     1     -15.664  -4.488   8.395  1.00  0.00     0.217 HD
ENDBRANCH   2   4
ENDBRANCH   1   2
BRANCH   1   6
HETATM    6  N1  UNL     1     -14.577  -6.763  10.854  1.00  0.00    -0.293 N
ATOM      7  H1  UNL     1     -14.353  -5.831  11.203  1.00  0.00     0.187 HD
BRANCH   6   8
HETATM    8  N2  UNL     1     -15.225  -7.599  11.724  1.00  0.00    -0.300 N
ATOM      9  H2  UNL     1     -14.735  -7.863  12.579  1.00  0.00     0.187 HD
BRANCH   8  10
HETATM   10  C4  UNL     1     -16.533  -8.127  11.523  1.00  0.00     0.051 A
HETATM   11  C5  UNL     1     -16.863  -8.735  10.331  1.00  0.00     0.053 A
HETATM   12  C6  UNL     1     -18.131  -9.253  10.101  1.00  0.00     0.048 A
HETATM   13 BR1  UNL     1     -18.515 -10.073   8.444  1.00  0.00    -0.048 Br
HETATM   14  C7  UNL     1     -19.079  -9.152  11.097  1.00  0.00     0.116 A
HETATM   15  C8  UNL     1     -18.777  -8.552  12.290  1.00  0.00     0.139 A
HETATM   16  C9  UNL     1     -17.508  -8.045  12.494  1.00  0.00     0.070 A
BRANCH  14  17
HETATM   17  O2  UNL     1     -20.340  -9.683  10.826  1.00  0.00    -0.357 OA
ATOM     18  H2  UNL     1     -21.014  -9.074  10.549  1.00  0.00     0.217 HD
ENDBRANCH  14  17
BRANCH  15  19
HETATM   19  N3  UNL     1     -19.795  -8.463  13.305  1.00  0.00    -0.113 N
HETATM   20  O3  UNL     1     -20.479  -9.471  13.572  1.00  0.00    -0.532 OA
HETATM   21  O4  UNL     1     -19.991  -7.264  13.963  1.00  0.00    -0.532 OA
ENDBRANCH  15  19
ENDBRANCH   8  10
ENDBRANCH   6   8
ENDBRANCH   1   6
BRANCH   1  22
HETATM   22  C10 UNL     1     -13.275  -8.081   9.405  1.00  0.00     0.275 C
HETATM   23  O5  UNL     1     -13.441  -9.146  10.115  1.00  0.00    -0.266 OA
HETATM   24  N4  UNL     1     -12.184  -8.149   8.523  1.00  0.00    -0.307 N
ATOM     25  H4  UNL     1     -11.956  -7.365   7.911  1.00  0.00     0.167 HD
BRANCH  24  26
HETATM   26  C11 UNL     1     -11.377  -9.385   8.508  1.00  0.00     0.371 C
BRANCH  26  27
HETATM   27  O6  UNL     1     -11.964 -10.209   7.535  1.00  0.00    -0.354 OA
ATOM     28  H6  UNL     1     -11.768 -11.100   7.802  1.00  0.00     0.214 HD
ENDBRANCH  26  27
BRANCH  26  29
HETATM   29  O7  UNL     1     -10.056  -9.194   8.338  1.00  0.00    -0.334 OA
BRANCH  29  30
HETATM   30  C12 UNL     1      -9.243  -9.040   9.415  1.00  0.00     0.055 C
HETATM   31  C13 UNL     1      -8.745  -7.599   9.405  1.00  0.00     0.045 C
HETATM   32  C14 UNL     1      -8.004  -9.912   9.370  1.00  0.00     0.045 C
HETATM   33  C15 UNL     1      -9.894  -9.266  10.745  1.00  0.00     0.045 C
ENDBRANCH  29  30
ENDBRANCH  26  29
ENDBRANCH  24  26
ENDBRANCH   1  22
TORSDOF 12
ENDMDL