MODEL 5
REMARK VINA RESULT: -6.783443046      3.446      7.550
REMARK  11 active torsions:
REMARK  status: ('A' for Active; 'I' for Inactive)
REMARK    1  A    between atoms: C2_2  and  S1_3
REMARK    2  A    between atoms: S1_3  and  C3_4
REMARK    3  A    between atoms: C5_7  and  N2_8
REMARK    4  A    between atoms: C5_7  and  C7_17
REMARK       I    between atoms: N2_8  and  C6_10
REMARK       I    between atoms: C6_10  and  N3_12
REMARK    5  A    between atoms: N3_12  and  N4_14
REMARK    6  A    between atoms: C7_17  and  S2_18
REMARK    7  A    between atoms: S2_18  and  C8_19
REMARK    8  A    between atoms: C10_21  and  C11_22
REMARK    9  A    between atoms: C11_22  and  C12_23
REMARK   10  A    between atoms: C13_25  and  O5_26
REMARK   11  A    between atoms: C14_28  and  O6_29
ROOT
HETATM    1  C3  UNL     1     -12.840 -10.286   6.156  1.00  0.00     0.109 C
HETATM    2  C4  UNL     1     -11.975 -11.401   6.339  1.00  0.00     0.109 C
HETATM    3  N1  UNL     1     -11.271 -12.331   6.450  1.00  0.00    -0.191 NA
HETATM    4  C5  UNL     1     -13.137  -9.336   7.021  1.00  0.00     0.083 C
ENDROOT
BRANCH   1   5
HETATM    5  S1  UNL     1     -13.626 -10.166   4.527  1.00  0.00    -0.117 SA
BRANCH   5   6
HETATM    6  C2  UNL     1     -12.417 -10.465   3.224  1.00  0.00     0.075 C
HETATM    7  C1  UNL     1     -11.113  -9.716   3.466  1.00  0.00     0.016 C
ENDBRANCH   5   6
ENDBRANCH   1   5
BRANCH   4   8
HETATM    8  N2  UNL     1     -14.026  -8.328   6.613  1.00  0.00    -0.304 N
HETATM    9  C6  UNL     1     -14.065  -6.993   7.051  1.00  0.00     0.344 C
HETATM   10  O1  UNL     1     -13.009  -6.352   7.189  1.00  0.00    -0.245 OA
HETATM   11  N3  UNL     1     -15.311  -6.383   7.332  1.00  0.00    -0.191 N
ATOM     12  H3  UNL     1     -16.171  -6.918   7.215  1.00  0.00     0.198 HD
ATOM     13  H2  UNL     1     -14.723  -8.596   5.919  1.00  0.00     0.171 HD
BRANCH  11  14
HETATM   14  N4  UNL     1     -15.378  -5.056   7.768  1.00  0.00    -0.035 N
HETATM   15  O2  UNL     1     -15.420  -4.165   6.898  1.00  0.00    -0.516 OA
HETATM   16  O3  UNL     1     -15.399  -4.674   9.084  1.00  0.00    -0.516 OA
ENDBRANCH  11  14
ENDBRANCH   4   8
BRANCH   4  17
HETATM   17  C7  UNL     1     -12.583  -9.268   8.393  1.00  0.00     0.064 C
HETATM   18  C15 UNL     1     -11.399  -8.758   8.597  1.00  0.00     0.109 C
HETATM   19  C16 UNL     1     -10.447  -8.202   7.616  1.00  0.00     0.084 C
HETATM   20  F1  UNL     1     -10.929  -8.663   9.912  1.00  0.00    -0.210 F
BRANCH  17  21
HETATM   21  S2  UNL     1     -13.594  -9.862   9.733  1.00  0.00    -0.117 SA
BRANCH  21  22
HETATM   22  C8  UNL     1     -15.082  -8.995   9.979  1.00  0.00     0.084 C
HETATM   23  C9  UNL     1     -15.810  -9.283  11.297  1.00  0.00     0.026 C
HETATM   24  C10 UNL     1     -17.038  -8.403  11.027  1.00  0.00     0.024 C
HETATM   25  C13 UNL     1     -17.380  -8.707   9.591  1.00  0.00     0.152 C
HETATM   26  C14 UNL     1     -16.215  -9.517   9.039  1.00  0.00     0.161 C
BRANCH  24  27
HETATM   27  C11 UNL     1     -18.132  -8.623  12.001  1.00  0.00     0.076 C
BRANCH  27  28
HETATM   28  C12 UNL     1     -17.944  -7.971  13.305  1.00  0.00     0.231 C
HETATM   29  O4  UNL     1     -18.411  -8.534  14.293  1.00  0.00    -0.307 OA
ENDBRANCH  27  28
ENDBRANCH  24  27
BRANCH  25  30
HETATM   30  O5  UNL     1     -18.583  -9.391   9.463  1.00  0.00    -0.393 OA
ATOM     31  H5  UNL     1     -18.603  -9.953   8.697  1.00  0.00     0.210 HD
ENDBRANCH  25  30
BRANCH  26  32
HETATM   32  O6  UNL     1     -16.393 -10.865   9.244  1.00  0.00    -0.392 OA
ATOM     33  H6  UNL     1     -15.917 -11.350   8.581  1.00  0.00     0.210 HD
ENDBRANCH  26  32
ENDBRANCH  21  22
ENDBRANCH  17  21
ENDBRANCH   4  17
TORSDOF 11
ENDMDL