MODEL 5
REMARK VINA RESULT: -6.870238626      3.186      5.690
REMARK  14 active torsions:
REMARK  status: ('A' for Active; 'I' for Inactive)
REMARK    1  A    between atoms: C2_2  and  C3_3
REMARK    2  A    between atoms: C3_3  and  C5_5
REMARK    3  A    between atoms: C5_5  and  C8_8
REMARK    4  A    between atoms: C8_8  and  O2_10
REMARK    5  A    between atoms: O2_10  and  C9_11
REMARK    6  A    between atoms: C9_11  and  O3_12
REMARK    7  A    between atoms: O3_12  and  C10_13
REMARK    8  A    between atoms: C10_13  and  C11_15
REMARK    9  A    between atoms: C11_15  and  C12_17
REMARK   10  A    between atoms: C13_20  and  N2_21
REMARK   11  A    between atoms: C17_25  and  N3_26
REMARK   12  A    between atoms: C19_33  and  N5_34
REMARK   13  A    between atoms: C20_37  and  N6_38
REMARK   14  A    between atoms: N6_38  and  O5_40
ROOT
HETATM    1  C12 UNL     1     -18.453  -8.657  11.934  1.00  0.00     0.102 A
HETATM    2  N1  UNL     1     -18.557  -9.209  10.715  1.00  0.00    -0.190 N
ATOM      3  H1  UNL     1     -17.795  -9.047  10.056  1.00  0.00     0.184 HD
HETATM    4  C13 UNL     1     -19.589  -9.959  10.298  1.00  0.00     0.682 A
HETATM    5  N4  UNL     1     -20.584 -10.165  11.173  1.00  0.00    -0.175 N
ATOM      6  H4  UNL     1     -21.379 -10.732  10.881  1.00  0.00     0.186 HD
HETATM    7  C19 UNL     1     -20.580  -9.662  12.408  1.00  0.00     0.145 A
HETATM    8  C20 UNL     1     -19.512  -8.896  12.818  1.00  0.00     0.124 A
ENDROOT
BRANCH   1   9
HETATM    9  C11 UNL     1     -17.334  -7.828  12.380  1.00  0.00     0.322 C
HETATM   10  F1  UNL     1     -17.011  -8.077  13.703  1.00  0.00    -0.232 F
BRANCH   9  11
HETATM   11  C10 UNL     1     -16.090  -7.952  11.601  1.00  0.00     0.301 C
HETATM   12  O4  UNL     1     -15.435  -9.039  11.552  1.00  0.00    -0.261 OA
BRANCH  11  13
HETATM   13  O3  UNL     1     -15.585  -6.900  10.901  1.00  0.00    -0.292 OA
BRANCH  13  14
HETATM   14  C9  UNL     1     -15.578  -6.786   9.494  1.00  0.00     0.358 C
BRANCH  14  15
HETATM   15  O2  UNL     1     -14.251  -6.944   9.029  1.00  0.00    -0.294 OA
BRANCH  15  16
HETATM   16  C8  UNL     1     -13.897  -6.876   7.698  1.00  0.00     0.269 C
HETATM   17  O1  UNL     1     -13.815  -5.749   7.158  1.00  0.00    -0.264 OA
BRANCH  16  18
HETATM   18  C5  UNL     1     -13.607  -8.071   6.871  1.00  0.00     0.044 C
HETATM   19  C6  UNL     1     -14.824  -8.227   5.947  1.00  0.00     0.026 C
HETATM   20  C7  UNL     1     -13.502  -9.341   7.673  1.00  0.00     0.026 C
BRANCH  18  21
HETATM   21  C3  UNL     1     -12.359  -7.888   6.035  1.00  0.00    -0.001 C
HETATM   22  C4  UNL     1     -11.108  -8.092   6.844  1.00  0.00     0.011 C
BRANCH  21  23
HETATM   23  C2  UNL     1     -12.372  -9.013   4.987  1.00  0.00     0.001 C
HETATM   24  C1  UNL     1     -11.051  -9.010   4.220  1.00  0.00     0.005 C
ENDBRANCH  21  23
ENDBRANCH  18  21
ENDBRANCH  16  18
ENDBRANCH  15  16
ENDBRANCH  14  15
ENDBRANCH  13  14
ENDBRANCH  11  13
ENDBRANCH   9  11
ENDBRANCH   1   9
BRANCH   8  25
HETATM   25  N6  UNL     1     -19.489  -8.355  14.132  1.00  0.00    -0.264 N
ATOM     26  H6  UNL     1     -19.600  -7.352  14.276  1.00  0.00     0.194 HD
BRANCH  25  27
HETATM   27  O5  UNL     1     -19.331  -9.125  15.118  1.00  0.00    -0.289 OA
ATOM     28  H5  UNL     1     -18.770  -8.858  15.836  1.00  0.00     0.244 HD
ENDBRANCH  25  27
ENDBRANCH   8  25
BRANCH   4  29
HETATM   29  N2  UNL     1     -19.695 -10.539   9.000  1.00  0.00    -0.216 N
HETATM   30  C14 UNL     1     -20.912 -11.273   8.681  1.00  0.00     0.141 C
HETATM   31  C15 UNL     1     -21.361 -11.098   7.266  1.00  0.00     0.022 C
HETATM   32  C16 UNL     1     -20.183 -11.315   6.333  1.00  0.00     0.036 C
HETATM   33  C17 UNL     1     -19.201 -10.227   6.620  1.00  0.00     0.202 C
HETATM   34  C18 UNL     1     -18.640 -10.409   8.034  1.00  0.00     0.173 C
BRANCH  33  35
HETATM   35  N3  UNL     1     -18.060 -10.356   5.722  1.00  0.00    -0.073 N
ATOM     36  H33 UNL     1     -18.341 -10.382   4.742  1.00  0.00     0.274 HD
ATOM     37  H32 UNL     1     -17.496  -9.507   5.688  1.00  0.00     0.274 HD
ATOM     38  H31 UNL     1     -17.511 -11.174   5.988  1.00  0.00     0.274 HD
ENDBRANCH  33  35
ENDBRANCH   4  29
BRANCH   7  39
HETATM   39  N5  UNL     1     -21.580  -9.900  13.202  1.00  0.00    -0.383 N
ATOM     40  H52 UNL     1     -22.516  -9.554  12.990  1.00  0.00     0.157 HD
ATOM     41  H51 UNL     1     -21.432 -10.443  14.053  1.00  0.00     0.157 HD
ENDBRANCH   7  39
TORSDOF 14
ENDMDL