MODEL 3
REMARK VINA RESULT: -6.840061826      2.917      3.990
REMARK  12 active torsions:
REMARK  status: ('A' for Active; 'I' for Inactive)
REMARK    1  A    between atoms: C2_2  and  O1_3
REMARK    2  A    between atoms: O1_3  and  C3_4
REMARK    3  A    between atoms: C3_4  and  C4_6
REMARK    4  A    between atoms: C5_7  and  N1_8
REMARK    5  A    between atoms: N1_8  and  C6_10
REMARK    6  A    between atoms: C6_10  and  N2_12
REMARK    7  A    between atoms: N2_12  and  N3_14
REMARK       I    between atoms: N3_14  and  C7_16
REMARK    8  A    between atoms: C9_21  and  C10_22
REMARK    9  A    between atoms: C10_22  and  C11_24
REMARK   10  A    between atoms: N5_28  and  C13_29
REMARK   11  A    between atoms: C13_29  and  O6_30
REMARK   12  A    between atoms: O6_30  and  C14_31
ROOT
HETATM    1  C4  UNL     1     -15.992  -8.537   8.322  1.00  0.00     0.103 A
HETATM    2  C5  UNL     1     -17.125  -9.022   7.739  1.00  0.00     0.096 A
HETATM    3  S2  UNL     1     -18.236  -9.128   9.071  1.00  0.00    -0.067 SA
HETATM    4  C8  UNL     1     -17.231  -8.542  10.292  1.00  0.00     0.068 A
HETATM    5  C9  UNL     1     -17.189  -8.233  11.668  1.00  0.00     0.114 A
HETATM    6  N4  UNL     1     -15.991  -7.785  11.851  1.00  0.00    -0.287 N
ATOM      7  H4  UNL     1     -15.628  -7.469  12.750  1.00  0.00     0.188 HD
HETATM    8  N5  UNL     1     -15.267  -7.787  10.690  1.00  0.00    -0.242 N
HETATM    9  C15 UNL     1     -16.029  -8.266   9.678  1.00  0.00     0.096 A
ENDROOT
BRANCH   2  10
HETATM   10  N1  UNL     1     -17.558  -9.150   6.368  1.00  0.00    -0.325 N
ATOM     11  H1  UNL     1     -18.266  -8.493   6.038  1.00  0.00     0.169 HD
BRANCH  10  12
HETATM   12  C6  UNL     1     -17.091 -10.095   5.459  1.00  0.00     0.191 C
HETATM   13  S1  UNL     1     -17.101 -11.718   5.723  1.00  0.00    -0.039 SA
BRANCH  12  14
HETATM   14  N2  UNL     1     -16.420  -9.675   4.279  1.00  0.00    -0.271 N
ATOM     15  H2  UNL     1     -16.866  -9.778   3.366  1.00  0.00     0.189 HD
BRANCH  14  16
HETATM   16  N3  UNL     1     -15.146  -9.122   4.383  1.00  0.00    -0.241 N
HETATM   17  C7  UNL     1     -14.000  -9.885   4.063  1.00  0.00     0.303 C
HETATM   18  O3  UNL     1     -14.128 -11.074   3.678  1.00  0.00    -0.628 OA
HETATM   19  O4  UNL     1     -12.715  -9.360   4.158  1.00  0.00    -0.628 OA
ATOM     20  H3  UNL     1     -15.039  -8.156   4.695  1.00  0.00     0.193 HD
ENDBRANCH  14  16
ENDBRANCH  12  14
ENDBRANCH  10  12
ENDBRANCH   2  10
BRANCH   1  21
HETATM   21  C3  UNL     1     -14.704  -8.642   7.555  1.00  0.00     0.298 C
HETATM   22  O2  UNL     1     -13.935  -9.578   7.566  1.00  0.00    -0.259 OA
BRANCH  21  23
HETATM   23  O1  UNL     1     -14.295  -7.594   6.702  1.00  0.00    -0.318 OA
BRANCH  23  24
HETATM   24  C2  UNL     1     -13.859  -6.337   7.177  1.00  0.00     0.174 C
HETATM   25  C1  UNL     1     -14.929  -5.309   7.310  1.00  0.00     0.034 C
ENDBRANCH  23  24
ENDBRANCH  21  23
ENDBRANCH   1  21
BRANCH   8  26
HETATM   26  C13 UNL     1     -13.936  -7.295  10.750  1.00  0.00     0.254 C
BRANCH  26  27
HETATM   27  O6  UNL     1     -12.999  -8.120  11.341  1.00  0.00    -0.315 OA
BRANCH  27  28
HETATM   28  C14 UNL     1     -11.883  -8.366  10.581  1.00  0.00     0.399 C
HETATM   29  F1  UNL     1     -10.863  -8.750  11.448  1.00  0.00    -0.227 F
ENDBRANCH  27  28
ENDBRANCH  26  27
ENDBRANCH   8  26
BRANCH   5  30
HETATM   30  C10 UNL     1     -18.333  -8.437  12.543  1.00  0.00     0.178 C
HETATM   31  O5  UNL     1     -19.318  -9.143  12.208  1.00  0.00    -0.291 OA
BRANCH  30  32
HETATM   32  C11 UNL     1     -18.376  -7.806  13.885  1.00  0.00     0.081 C
HETATM   33  C12 UNL     1     -18.730  -8.836  14.930  1.00  0.00     0.013 C
ENDBRANCH  30  32
ENDBRANCH   5  30
TORSDOF 12
ENDMDL