MODEL 1
REMARK VINA RESULT: -7.004561993      0.000      0.000
REMARK  11 active torsions:
REMARK  status: ('A' for Active; 'I' for Inactive)
REMARK    1  A    between atoms: S1_2  and  C2_3
REMARK    2  A    between atoms: C2_3  and  C3_4
REMARK    3  A    between atoms: C3_4  and  C4_6
REMARK    4  A    between atoms: C6_11  and  C7_12
REMARK    5  A    between atoms: N3_13  and  C8_15
REMARK    6  A    between atoms: C8_15  and  C9_16
REMARK    7  A    between atoms: C8_15  and  C15_28
REMARK    8  A    between atoms: C9_16  and  C10_17
REMARK    9  A    between atoms: C10_17  and  C11_18
REMARK   10  A    between atoms: C14_25  and  O2_26
REMARK   11  A    between atoms: C16_31  and  O5_32
ROOT
HETATM    1  C7  UNL     1     -16.554  -7.823  11.633  1.00  0.00     0.118 C
HETATM    2  N3  UNL     1     -15.986  -7.679  10.520  1.00  0.00    -0.383 N
ATOM      3  H3  UNL     1     -16.523  -8.032   9.727  1.00  0.00     0.159 HD
ENDROOT
BRANCH   2   4
HETATM    4  C8  UNL     1     -14.737  -7.115  10.173  1.00  0.00     0.183 C
BRANCH   4   5
HETATM    5  C9  UNL     1     -13.771  -8.104   9.583  1.00  0.00     0.042 C
BRANCH   5   6
HETATM    6  C10 UNL     1     -14.462  -9.348   9.112  1.00  0.00     0.064 C
BRANCH   6   7
HETATM    7  C11 UNL     1     -14.532  -9.296   7.609  1.00  0.00     0.063 A
HETATM    8  N4  UNL     1     -13.621  -9.753   6.733  1.00  0.00    -0.333 N
HETATM    9  C12 UNL     1     -14.060  -9.514   5.497  1.00  0.00     0.180 A
ATOM     10  H4  UNL     1     -12.739 -10.206   6.974  1.00  0.00     0.168 HD
HETATM   11  S2  UNL     1     -13.325  -9.875   4.087  1.00  0.00    -0.040 SA
HETATM   12  N5  UNL     1     -15.260  -8.901   5.574  1.00  0.00    -0.307 N
HETATM   13  C13 UNL     1     -16.073  -8.472   4.439  1.00  0.00     0.161 C
HETATM   14  C14 UNL     1     -15.554  -8.766   6.867  1.00  0.00     0.167 A
BRANCH  14  15
HETATM   15  O2  UNL     1     -16.691  -8.189   7.433  1.00  0.00    -0.344 OA
ATOM     16  H2  UNL     1     -17.107  -7.409   7.085  1.00  0.00     0.219 HD
ENDBRANCH  14  15
ENDBRANCH   6   7
ENDBRANCH   5   6
ENDBRANCH   4   5
BRANCH   4  17
HETATM   17  C15 UNL     1     -14.872  -5.918   9.317  1.00  0.00     0.196 C
HETATM   18  O3  UNL     1     -15.376  -4.851   9.774  1.00  0.00    -0.646 OA
HETATM   19  O4  UNL     1     -14.460  -5.913   7.997  1.00  0.00    -0.646 OA
ENDBRANCH   4  17
ENDBRANCH   2   4
BRANCH   1  20
HETATM   20  C6  UNL     1     -17.858  -8.436  11.794  1.00  0.00     0.101 A
HETATM   21  N2  UNL     1     -18.646  -8.419  12.910  1.00  0.00    -0.292 N
HETATM   22  N1  UNL     1     -19.760  -9.083  12.664  1.00  0.00    -0.292 N
HETATM   23  C5  UNL     1     -18.226  -7.745  14.126  1.00  0.00     0.178 C
HETATM   24  C4  UNL     1     -19.765  -9.558  11.409  1.00  0.00     0.130 A
ATOM     25  H1  UNL     1     -20.514  -9.216  13.337  1.00  0.00     0.187 HD
HETATM   26  C16 UNL     1     -18.544  -9.143  10.849  1.00  0.00     0.127 A
BRANCH  24  27
HETATM   27  C3  UNL     1     -20.789 -10.339  10.729  1.00  0.00     0.189 C
HETATM   28  O1  UNL     1     -20.803 -10.398   9.476  1.00  0.00    -0.290 OA
BRANCH  27  29
HETATM   29  C2  UNL     1     -21.835 -11.080  11.466  1.00  0.00     0.159 C
BRANCH  29  30
HETATM   30  S1  UNL     1     -22.059 -12.756  10.812  1.00  0.00    -0.166 SA
HETATM   31  C1  UNL     1     -22.631 -13.881  12.111  1.00  0.00     0.090 C
ENDBRANCH  29  30
ENDBRANCH  27  29
ENDBRANCH  24  27
BRANCH  26  32
HETATM   32  O5  UNL     1     -18.195  -9.452   9.555  1.00  0.00    -0.356 OA
ATOM     33  H5  UNL     1     -18.574  -8.999   8.810  1.00  0.00     0.218 HD
ENDBRANCH  26  32
ENDBRANCH   1  20
TORSDOF 11
ENDMDL