MODEL 2
REMARK VINA RESULT: -6.787531910      2.274      3.025
REMARK  11 active torsions:
REMARK  status: ('A' for Active; 'I' for Inactive)
REMARK    1  A    between atoms: C2_2  and  N1_3
REMARK    2  A    between atoms: N2_6  and  N3_7
REMARK       I    between atoms: N3_7  and  C4_9
REMARK    3  A    between atoms: C4_9  and  C5_11
REMARK    4  A    between atoms: C9_16  and  N4_17
REMARK    5  A    between atoms: C10_22  and  S2_23
REMARK    6  A    between atoms: S2_23  and  C11_24
REMARK    7  A    between atoms: C11_24  and  C12_25
REMARK    8  A    between atoms: C12_25  and  O2_26
REMARK    9  A    between atoms: O2_26  and  C13_27
REMARK   10  A    between atoms: C13_27  and  C14_29
REMARK   11  A    between atoms: C14_29  and  N6_31
ROOT
HETATM    1  N1  UNL     1     -17.305  -9.489   7.746  1.00  0.00    -0.307 N
HETATM    2  C3  UNL     1     -18.116  -9.601   8.778  1.00  0.00     0.202 A
HETATM    3  S1  UNL     1     -19.520 -10.448   8.911  1.00  0.00    -0.038 SA
HETATM    4  N2  UNL     1     -17.554  -8.842   9.813  1.00  0.00    -0.220 N
HETATM    5  C8  UNL     1     -16.426  -8.306   9.336  1.00  0.00     0.147 A
HETATM    6  C9  UNL     1     -15.459  -7.443   9.798  1.00  0.00     0.134 A
HETATM    7  N5  UNL     1     -14.416  -7.046   9.002  1.00  0.00    -0.321 N
ATOM      8  H5  UNL     1     -13.722  -6.407   9.391  1.00  0.00     0.169 HD
HETATM    9  C10 UNL     1     -14.268  -7.455   7.751  1.00  0.00     0.147 A
HETATM   10  N7  UNL     1     -15.194  -8.289   7.267  1.00  0.00    -0.321 N
ATOM     11  H7  UNL     1     -15.107  -8.619   6.306  1.00  0.00     0.169 HD
HETATM   12  C17 UNL     1     -16.250  -8.712   8.015  1.00  0.00     0.145 A
ENDROOT
BRANCH   9  13
HETATM   13  S2  UNL     1     -12.858  -6.881   6.814  1.00  0.00    -0.092 SA
BRANCH  13  14
HETATM   14  C11 UNL     1     -11.514  -8.016   6.769  1.00  0.00     0.109 C
BRANCH  14  15
HETATM   15  C12 UNL     1     -10.585  -7.942   7.915  1.00  0.00     0.189 C
BRANCH  15  16
HETATM   16  O2  UNL     1     -10.686  -8.833   8.935  1.00  0.00    -0.319 OA
BRANCH  16  17
HETATM   17  C13 UNL     1     -11.557  -8.934   9.945  1.00  0.00     0.289 C
HETATM   18  O3  UNL     1     -11.986  -7.991  10.626  1.00  0.00    -0.263 OA
BRANCH  17  19
HETATM   19  C14 UNL     1     -12.069 -10.311  10.296  1.00  0.00     0.280 C
HETATM   20  C15 UNL     1     -11.093 -11.344   9.815  1.00  0.00     0.051 C
BRANCH  19  21
HETATM   21  N6  UNL     1     -13.392 -10.457   9.755  1.00  0.00    -0.066 N
HETATM   22  C16 UNL     1     -13.338 -11.078   8.457  1.00  0.00     0.267 C
ATOM     23  H62 UNL     1     -14.009 -10.961  10.392  1.00  0.00     0.277 HD
ATOM     24  H61 UNL     1     -13.892  -9.569   9.730  1.00  0.00     0.277 HD
ENDBRANCH  19  21
ENDBRANCH  17  19
ENDBRANCH  16  17
ENDBRANCH  15  16
ENDBRANCH  14  15
ENDBRANCH  13  14
ENDBRANCH   9  13
BRANCH   6  25
HETATM   25  N4  UNL     1     -15.560  -6.923  10.940  1.00  0.00    -0.383 N
ATOM     26  H42 UNL     1     -16.209  -7.348  11.603  1.00  0.00     0.157 HD
ATOM     27  H41 UNL     1     -14.955  -6.147  11.211  1.00  0.00     0.157 HD
ENDBRANCH   6  25
BRANCH   1  28
HETATM   28  C2  UNL     1     -17.522 -10.132   6.459  1.00  0.00     0.129 C
HETATM   29  C1  UNL     1     -16.759 -11.418   6.416  1.00  0.00     0.027 C
ENDBRANCH   1  28
BRANCH   4  30
HETATM   30  N3  UNL     1     -18.217  -8.712  11.001  1.00  0.00    -0.258 N
HETATM   31  C4  UNL     1     -17.870  -8.553  12.343  1.00  0.00     0.275 C
HETATM   32  O1  UNL     1     -16.768  -8.517  12.906  1.00  0.00    -0.268 OA
ATOM     33  H3  UNL     1     -19.229  -8.738  10.874  1.00  0.00     0.190 HD
BRANCH  31  34
HETATM   34  C5  UNL     1     -19.020  -8.390  13.369  1.00  0.00     0.178 C
HETATM   35  C6  UNL     1     -18.640  -9.059  14.658  1.00  0.00     0.062 C
HETATM   36  C7  UNL     1     -20.237  -9.116  12.825  1.00  0.00     0.062 C
HETATM   37  F1  UNL     1     -19.226  -7.061  13.565  1.00  0.00    -0.233 F
ENDBRANCH  31  34
ENDBRANCH   4  30
TORSDOF 11
ENDMDL