MODEL 4
REMARK VINA RESULT: -5.019029857      9.504     11.657
REMARK  2 active torsions:
REMARK  status: ('A' for Active; 'I' for Inactive)
REMARK       I    between atoms: C1_2  and  N2_4
REMARK    1  A    between atoms: N3_7  and  C4_8
REMARK       I    between atoms: N4_10  and  C6_11
REMARK    2  A    between atoms: C6_11  and  C7_13
ROOT
HETATM    1  C4  UNL     1     -21.047  -2.225  14.257  1.00  0.00     0.269 C
HETATM    2  C5  UNL     1     -19.870  -1.893  15.139  1.00  0.00     0.165 C
HETATM    3  N4  UNL     1     -20.020  -0.511  14.641  1.00  0.00    -0.338 N
HETATM    4  C6  UNL     1     -19.131   0.581  14.656  1.00  0.00     0.230 C
HETATM    5  O2  UNL     1     -19.492   1.673  14.166  1.00  0.00    -0.273 OA
HETATM    6  C8  UNL     1     -21.396  -0.777  14.170  1.00  0.00     0.068 C
HETATM    7  C9  UNL     1     -22.362  -0.397  15.268  1.00  0.00     0.033 C
HETATM    8  C10 UNL     1     -23.694   0.060  14.724  1.00  0.00     0.002 C
HETATM    9  C11 UNL     1     -23.408   1.313  13.934  1.00  0.00     0.000 C
HETATM   10  C12 UNL     1     -22.524   1.020  12.785  1.00  0.00     0.002 C
HETATM   11  C13 UNL     1     -21.684  -0.207  12.857  1.00  0.00     0.033 C
ENDROOT
BRANCH   1  12
HETATM   12  N3  UNL     1     -20.820  -3.011  13.114  1.00  0.00     0.100 N
HETATM   13  C3  UNL     1     -21.998  -3.893  12.919  1.00  0.00     0.293 C
HETATM   14  C2  UNL     1     -22.022  -4.436  11.523  1.00  0.00     0.157 C
HETATM   15  N2  UNL     1     -20.779  -5.206  11.379  1.00  0.00    -0.333 N
HETATM   16  C1  UNL     1     -20.470  -5.867  10.163  1.00  0.00     0.330 C
HETATM   17  C15 UNL     1     -19.917  -5.245  12.538  1.00  0.00     0.157 C
HETATM   18  N1  UNL     1     -21.378  -5.783   9.093  1.00  0.00    -0.040 NA
HETATM   19  O1  UNL     1     -19.395  -6.505  10.096  1.00  0.00    -0.251 OA
HETATM   20  C14 UNL     1     -19.671  -3.863  13.106  1.00  0.00     0.293 C
ENDBRANCH   1  12
BRANCH   4  21
HETATM   21  C7  UNL     1     -17.790   0.451  15.239  1.00  0.00     0.188 C
HETATM   22 BR1  UNL     1     -16.483   1.233  14.038  1.00  0.00    -0.087 Br
ENDBRANCH   4  21
TORSDOF 2
ENDMDL