MODEL 2
REMARK VINA RESULT: -7.477267648      1.056      1.410
REMARK  4 active torsions:
REMARK  status: ('A' for Active; 'I' for Inactive)
REMARK    1  A    between atoms: C2_2  and  N2_10
REMARK    2  A    between atoms: N1_3  and  C3_5
REMARK       I    between atoms: N2_10  and  C6_12
REMARK       I    between atoms: C6_12  and  N3_14
REMARK    3  A    between atoms: N4_17  and  S1_18
REMARK    4  A    between atoms: S1_18  and  N5_21
ROOT
HETATM    1  N2  UNL     1     -17.222  -6.808  13.144  1.00  0.00    -0.298 N
ATOM      2  H2  UNL     1     -17.352  -7.802  12.957  1.00  0.00     0.172 HD
HETATM    3  C6  UNL     1     -16.052  -6.396  13.807  1.00  0.00     0.323 C
HETATM    4  O1  UNL     1     -15.908  -5.148  14.030  1.00  0.00    -0.247 OA
HETATM    5  N3  UNL     1     -15.047  -7.313  14.226  1.00  0.00    -0.332 N
HETATM    6  C7  UNL     1     -15.155  -8.723  14.001  1.00  0.00     0.143 C
HETATM    7  C8  UNL     1     -13.801  -9.393  14.262  1.00  0.00     0.128 C
HETATM    8  N4  UNL     1     -13.210  -9.029  15.502  1.00  0.00    -0.194 NA
HETATM    9  C13 UNL     1     -13.626  -7.771  16.056  1.00  0.00     0.128 C
HETATM   10  C14 UNL     1     -13.882  -6.816  14.898  1.00  0.00     0.143 C
ENDROOT
BRANCH   1  11
HETATM   11  C2  UNL     1     -18.212  -5.916  12.730  1.00  0.00     0.081 C
HETATM   12  C1  UNL     1     -18.373  -5.460  11.348  1.00  0.00     0.089 C
HETATM   13  N1  UNL     1     -19.074  -5.430  13.597  1.00  0.00    -0.347 N
ATOM     14  H1  UNL     1     -18.996  -5.722  14.571  1.00  0.00     0.167 HD
BRANCH  13  15
HETATM   15  C3  UNL     1     -20.101  -4.525  13.250  1.00  0.00     0.057 C
HETATM   16  C4  UNL     1     -21.122  -4.824  12.206  1.00  0.00     0.072 C
HETATM   17  C5  UNL     1     -20.141  -3.370  13.892  1.00  0.00     0.208 C
HETATM   18  F1  UNL     1     -21.098  -2.490  13.590  1.00  0.00    -0.191 F
HETATM   19 CL1  UNL     1     -18.959  -2.967  15.136  1.00  0.00    -0.050 Cl
ENDBRANCH  13  15
ENDBRANCH   1  11
BRANCH   8  20
HETATM   20  S1  UNL     1     -11.507  -9.101  15.525  1.00  0.00     0.283 S
HETATM   21  O2  UNL     1     -10.915  -7.768  15.885  1.00  0.00    -0.194 OA
HETATM   22  O3  UNL     1     -11.094 -10.075  16.617  1.00  0.00    -0.194 OA
BRANCH  20  23
HETATM   23  N5  UNL     1     -10.843  -9.567  14.004  1.00  0.00    -0.198 NA
HETATM   24  C9  UNL     1     -10.129 -10.832  14.100  1.00  0.00     0.108 C
HETATM   25  C10 UNL     1      -9.208 -10.775  12.904  1.00  0.00     0.017 C
HETATM   26  C11 UNL     1      -9.119  -9.318  12.512  1.00  0.00     0.017 C
HETATM   27  C12 UNL     1      -9.742  -8.639  13.732  1.00  0.00     0.108 C
ENDBRANCH  20  23
ENDBRANCH   8  20
TORSDOF 4
ENDMDL