MODEL 5
REMARK VINA RESULT: -5.190445479      1.461      1.827
REMARK  3 active torsions:
REMARK  status: ('A' for Active; 'I' for Inactive)
REMARK    1  A    between atoms: C2_2  and  N1_3
REMARK       I    between atoms: N1_3  and  C3_5
REMARK       I    between atoms: C3_5  and  N2_7
REMARK    2  A    between atoms: N3_16  and  S1_17
REMARK    3  A    between atoms: S1_17  and  N4_20
ROOT
HETATM    1  N1  UNL     1     -17.431  -6.712  13.150  1.00  0.00    -0.343 N
ATOM      2  H1  UNL     1     -17.790  -7.659  13.269  1.00  0.00     0.164 HD
HETATM    3  C3  UNL     1     -16.174  -6.397  13.669  1.00  0.00     0.318 C
HETATM    4  O1  UNL     1     -15.777  -5.190  13.487  1.00  0.00    -0.247 OA
HETATM    5  N2  UNL     1     -15.343  -7.305  14.361  1.00  0.00    -0.333 N
HETATM    6  C4  UNL     1     -15.692  -8.672  14.621  1.00  0.00     0.127 C
HETATM    7  C5  UNL     1     -14.682  -9.538  13.895  1.00  0.00     0.021 C
HETATM    8  C6  UNL     1     -13.536  -8.729  13.362  1.00  0.00     0.014 C
HETATM    9  C7  UNL     1     -12.963  -7.866  14.465  1.00  0.00    -0.004 C
HETATM   10  C8  UNL     1     -12.547  -8.752  15.602  1.00  0.00     0.055 C
HETATM   11  C9  UNL     1     -11.534  -9.749  15.114  1.00  0.00     0.210 C
HETATM   12  F1  UNL     1     -11.046 -10.425  16.236  1.00  0.00    -0.244 F
HETATM   13  C10 UNL     1     -10.404  -9.088  14.347  1.00  0.00     0.114 C
HETATM   14  N3  UNL     1     -10.531  -7.694  14.457  1.00  0.00    -0.274 N
HETATM   15  C15 UNL     1     -11.737  -7.113  13.997  1.00  0.00     0.152 C
HETATM   16  C16 UNL     1     -14.030  -6.877  14.868  1.00  0.00     0.138 C
ENDROOT
BRANCH  14  17
HETATM   17  S1  UNL     1      -9.177  -6.752  14.595  1.00  0.00     0.304 S
HETATM   18  O2  UNL     1      -8.390  -6.774  13.315  1.00  0.00    -0.188 OA
HETATM   19  O3  UNL     1      -8.255  -7.329  15.661  1.00  0.00    -0.188 OA
BRANCH  17  20
HETATM   20  N4  UNL     1      -9.452  -5.111  15.017  1.00  0.00    -0.193 NA
HETATM   21  C11 UNL     1      -8.826  -4.188  14.103  1.00  0.00     0.109 C
HETATM   22  C12 UNL     1      -7.417  -4.043  14.635  1.00  0.00     0.017 C
HETATM   23  C13 UNL     1      -7.541  -4.221  16.131  1.00  0.00     0.017 C
HETATM   24  C14 UNL     1      -8.927  -4.747  16.289  1.00  0.00     0.109 C
ENDBRANCH  17  20
ENDBRANCH  14  17
BRANCH   1  25
HETATM   25  C2  UNL     1     -18.252  -5.730  12.439  1.00  0.00     0.120 C
HETATM   26  C1  UNL     1     -18.068  -5.786  10.960  1.00  0.00     0.026 C
ENDBRANCH   1  25
TORSDOF 3
ENDMDL