MODEL 3
REMARK VINA RESULT: -4.915330474      2.413      3.290
REMARK  2 active torsions:
REMARK  status: ('A' for Active; 'I' for Inactive)
REMARK    1  A    between atoms: N1_2  and  S1_4
REMARK    2  A    between atoms: S1_4  and  N2_7
REMARK       I    between atoms: N3_14  and  C8_15
REMARK       I    between atoms: C8_15  and  N4_17
ROOT
HETATM    1  N2  UNL     1     -13.136  -8.244  15.643  1.00  0.00    -0.174 NA
HETATM    2  C2  UNL     1     -12.882  -8.756  14.337  1.00  0.00     0.111 C
HETATM    3  C3  UNL     1     -14.134  -8.534  13.511  1.00  0.00     0.029 C
HETATM    4  C4  UNL     1     -15.000  -7.740  14.448  1.00  0.00     0.007 C
HETATM    5  C5  UNL     1     -14.546  -6.297  14.421  1.00  0.00     0.016 C
HETATM    6  C6  UNL     1     -15.769  -5.395  14.409  1.00  0.00     0.021 C
HETATM    7  C7  UNL     1     -16.436  -5.650  13.036  1.00  0.00     0.127 C
HETATM    8  N3  UNL     1     -16.909  -7.010  13.096  1.00  0.00    -0.333 N
HETATM    9  C8  UNL     1     -17.771  -7.541  12.148  1.00  0.00     0.320 C
HETATM   10  O3  UNL     1     -18.118  -8.773  12.330  1.00  0.00    -0.247 OA
HETATM   11  N4  UNL     1     -18.329  -6.927  11.007  1.00  0.00    -0.334 N
HETATM   12  C9  UNL     1     -19.249  -7.716  10.143  1.00  0.00     0.127 C
HETATM   13  C10 UNL     1     -20.486  -6.891   9.929  1.00  0.00     0.020 C
HETATM   14  C11 UNL     1     -20.158  -5.648   9.156  1.00  0.00     0.003 C
HETATM   15  C12 UNL     1     -18.671  -5.448   9.139  1.00  0.00     0.020 C
HETATM   16  C13 UNL     1     -18.113  -5.578  10.557  1.00  0.00     0.127 C
HETATM   17  C14 UNL     1     -16.468  -7.888  14.200  1.00  0.00     0.139 C
HETATM   18  C15 UNL     1     -14.579  -8.305  15.789  1.00  0.00     0.182 C
HETATM   19 CL1  UNL     1     -15.103 -10.004  15.854  1.00  0.00    -0.107 Cl
ENDROOT
BRANCH   1  20
HETATM   20  S1  UNL     1     -12.317  -9.094  16.890  1.00  0.00     0.299 S
HETATM   21  O1  UNL     1     -11.247  -8.240  17.506  1.00  0.00    -0.188 OA
HETATM   22  O2  UNL     1     -13.226  -9.634  17.932  1.00  0.00    -0.188 OA
BRANCH  20  23
HETATM   23  N1  UNL     1     -11.516 -10.442  16.138  1.00  0.00    -0.311 N
HETATM   24  C1  UNL     1     -10.085 -10.350  16.335  1.00  0.00     0.160 C
ATOM     25  H1  UNL     1     -11.987 -11.190  15.630  1.00  0.00     0.172 HD
ENDBRANCH  20  23
ENDBRANCH   1  20
TORSDOF 2
ENDMDL