MODEL 4
REMARK VINA RESULT: -6.313819288      3.705      8.744
REMARK  2 active torsions:
REMARK  status: ('A' for Active; 'I' for Inactive)
REMARK       I    between atoms: C1_2  and  N2_4
REMARK    1  A    between atoms: C5_8  and  C6_9
REMARK       I    between atoms: C6_9  and  N3_11
REMARK    2  A    between atoms: C9_14  and  C10_15
REMARK       I    between atoms: C10_15  and  N4_17
ROOT
HETATM    1  C6  UNL     1     -17.465  -6.440  12.699  1.00  0.00     0.242 C
HETATM    2  O2  UNL     1     -18.324  -7.351  12.946  1.00  0.00    -0.271 OA
HETATM    3  N3  UNL     1     -16.178  -6.539  13.249  1.00  0.00    -0.350 N
HETATM    4  C7  UNL     1     -15.193  -5.537  13.013  1.00  0.00     0.126 C
HETATM    5  C8  UNL     1     -14.116  -5.459  14.053  1.00  0.00     0.034 C
HETATM    6  C9  UNL     1     -13.699  -6.796  14.596  1.00  0.00     0.081 C
HETATM    7  C16 UNL     1     -14.386  -7.941  13.872  1.00  0.00     0.034 C
HETATM    8  C17 UNL     1     -15.873  -7.693  14.071  1.00  0.00     0.126 C
ENDROOT
BRANCH   1   9
HETATM    9  C5  UNL     1     -17.951  -5.349  11.831  1.00  0.00     0.180 C
HETATM   10  N2  UNL     1     -19.298  -4.965  12.078  1.00  0.00    -0.323 N
HETATM   11  C1  UNL     1     -19.789  -4.450  13.301  1.00  0.00     0.331 C
HETATM   12  C2  UNL     1     -20.074  -5.181  10.887  1.00  0.00     0.128 C
HETATM   13  N1  UNL     1     -19.004  -4.243  14.444  1.00  0.00    -0.040 NA
HETATM   14  O1  UNL     1     -21.034  -4.157  13.359  1.00  0.00    -0.251 OA
HETATM   15  C3  UNL     1     -19.375  -6.330  10.232  1.00  0.00     0.022 C
HETATM   16  C4  UNL     1     -17.923  -5.927  10.407  1.00  0.00     0.037 C
ENDBRANCH   1   9
BRANCH   6  17
HETATM   17  C10 UNL     1     -12.230  -6.984  14.554  1.00  0.00     0.224 C
HETATM   18  O3  UNL     1     -11.493  -5.982  14.412  1.00  0.00    -0.273 OA
HETATM   19  N4  UNL     1     -11.640  -8.270  14.672  1.00  0.00    -0.352 N
HETATM   20  C11 UNL     1     -10.191  -8.419  14.637  1.00  0.00     0.127 C
HETATM   21  C15 UNL     1     -12.410  -9.485  14.824  1.00  0.00     0.127 C
HETATM   22  C12 UNL     1      -9.821  -9.611  15.509  1.00  0.00     0.040 C
HETATM   23  C13 UNL     1     -10.382 -10.902  14.919  1.00  0.00     0.085 C
HETATM   24 CL1  UNL     1      -9.152 -11.588  13.840  1.00  0.00    -0.125 Cl
HETATM   25  C14 UNL     1     -11.619 -10.596  14.135  1.00  0.00     0.040 C
ENDBRANCH   6  17
TORSDOF 2
ENDMDL