MODEL 5
REMARK VINA RESULT: -5.560199109      2.533      3.114
REMARK  3 active torsions:
REMARK  status: ('A' for Active; 'I' for Inactive)
REMARK       I    between atoms: C2_2  and  N1_4
REMARK    1  A    between atoms: C8_10  and  C9_11
REMARK       I    between atoms: C9_11  and  N2_13
REMARK    2  A    between atoms: N2_13  and  C10_15
REMARK    3  A    between atoms: N3_18  and  S1_19
ROOT
HETATM    1  C1  UNL     1      -9.491  -2.402  14.582  1.00  0.00     0.117 C
HETATM    2  C2  UNL     1     -10.446  -2.330  15.719  1.00  0.00     0.215 C
HETATM    3  O1  UNL     1     -10.721  -1.183  16.156  1.00  0.00    -0.274 OA
HETATM    4  N1  UNL     1     -11.010  -3.514  16.267  1.00  0.00    -0.352 N
HETATM    5  C3  UNL     1     -11.946  -3.549  17.371  1.00  0.00     0.126 C
HETATM    6  C4  UNL     1     -12.952  -4.585  16.856  1.00  0.00     0.031 C
HETATM    7  C5  UNL     1     -12.232  -5.415  15.852  1.00  0.00    -0.021 C
HETATM    8  C6  UNL     1     -12.715  -5.269  14.435  1.00  0.00     0.014 C
HETATM    9  C7  UNL     1     -14.162  -5.556  14.259  1.00  0.00     0.036 C
HETATM   10  C8  UNL     1     -14.474  -7.038  14.015  1.00  0.00     0.187 C
HETATM   11  N3  UNL     1     -14.162  -7.885  15.087  1.00  0.00    -0.297 N
HETATM   12  C13 UNL     1     -13.676  -7.340  16.297  1.00  0.00     0.137 C
HETATM   13  C14 UNL     1     -12.259  -6.900  16.157  1.00  0.00     0.032 C
HETATM   14  C15 UNL     1     -10.799  -4.892  15.882  1.00  0.00     0.135 C
ENDROOT
BRANCH  10  15
HETATM   15  C9  UNL     1     -15.945  -7.057  13.673  1.00  0.00     0.242 C
HETATM   16  O2  UNL     1     -16.689  -7.987  14.076  1.00  0.00    -0.271 OA
HETATM   17  N2  UNL     1     -16.545  -6.036  12.889  1.00  0.00    -0.342 N
ATOM     18  H2  UNL     1     -15.958  -5.274  12.551  1.00  0.00     0.164 HD
BRANCH  17  19
HETATM   19  C10 UNL     1     -17.940  -6.028  12.550  1.00  0.00     0.177 C
HETATM   20  C11 UNL     1     -18.200  -5.562  11.144  1.00  0.00     0.049 C
HETATM   21 CL1  UNL     1     -18.832  -4.940  13.643  1.00  0.00    -0.103 Cl
ENDBRANCH  17  19
ENDBRANCH  10  15
BRANCH  11  22
HETATM   22  S1  UNL     1     -13.480  -9.396  14.748  1.00  0.00     0.225 S
HETATM   23  C12 UNL     1     -11.786  -9.133  14.187  1.00  0.00     0.186 C
HETATM   24  O3  UNL     1     -14.169 -10.106  13.615  1.00  0.00    -0.206 OA
HETATM   25  O4  UNL     1     -13.477 -10.359  15.906  1.00  0.00    -0.206 OA
ENDBRANCH  11  22
TORSDOF 3
ENDMDL