MODEL 5
REMARK VINA RESULT: -7.525352413      5.368      8.556
REMARK  5 active torsions:
REMARK  status: ('A' for Active; 'I' for Inactive)
REMARK    1  A    between atoms: O1_1  and  C1_3
REMARK    2  A    between atoms: C1_3  and  C2_4
REMARK    3  A    between atoms: C1_3  and  N2_15
REMARK    4  A    between atoms: N3_18  and  S1_19
REMARK    5  A    between atoms: S1_19  and  N4_22
ROOT
HETATM    1  N2  UNL     1     -19.988  -2.943  14.469  1.00  0.00    -0.358 N
HETATM    2  C10 UNL     1     -19.206  -1.999  15.187  1.00  0.00     0.145 C
HETATM    3  C11 UNL     1     -19.885  -0.609  15.259  1.00  0.00     0.156 C
HETATM    4  N3  UNL     1     -20.295  -0.163  13.992  1.00  0.00    -0.295 N
HETATM    5  C16 UNL     1     -21.044  -1.087  13.229  1.00  0.00     0.156 C
HETATM    6  C17 UNL     1     -21.294  -2.379  13.988  1.00  0.00     0.145 C
ENDROOT
BRANCH   1   7
HETATM    7  C1  UNL     1     -19.744  -4.254  14.156  1.00  0.00     0.153 C
BRANCH   7   8
HETATM    8  O1  UNL     1     -20.354  -5.106  14.973  1.00  0.00    -0.345 OA
ATOM      9  H1  UNL     1     -20.387  -5.981  14.604  1.00  0.00     0.219 HD
ENDBRANCH   7   8
BRANCH   7  10
HETATM   10  C2  UNL     1     -18.979  -4.946  13.144  1.00  0.00     0.079 A
HETATM   11  C3  UNL     1     -17.707  -5.458  13.209  1.00  0.00     0.203 A
HETATM   12  F1  UNL     1     -16.775  -5.497  14.184  1.00  0.00    -0.185 F
HETATM   13  N1  UNL     1     -17.410  -6.018  12.004  1.00  0.00    -0.335 N
HETATM   14  C4  UNL     1     -18.439  -5.885  11.174  1.00  0.00     0.019 A
ATOM     15  H1  UNL     1     -16.527  -6.472  11.772  1.00  0.00     0.168 HD
HETATM   16  C5  UNL     1     -19.441  -5.228  11.829  1.00  0.00    -0.016 A
HETATM   17  C9  UNL     1     -18.656  -6.297   9.746  1.00  0.00     0.057 C
HETATM   18  C6  UNL     1     -20.734  -4.926  11.189  1.00  0.00     0.042 C
HETATM   19  C7  UNL     1     -20.973  -5.568   9.879  1.00  0.00     0.005 C
HETATM   20  C8  UNL     1     -20.067  -6.752   9.614  1.00  0.00     0.006 C
ENDBRANCH   7  10
ENDBRANCH   1   7
BRANCH   4  21
HETATM   21  S1  UNL     1     -20.365   1.466  13.641  1.00  0.00     0.300 S
HETATM   22  O2  UNL     1     -21.712   1.890  13.049  1.00  0.00    -0.188 OA
HETATM   23  O3  UNL     1     -20.244   2.242  14.944  1.00  0.00    -0.188 OA
BRANCH  21  24
HETATM   24  N4  UNL     1     -19.194   1.966  12.516  1.00  0.00    -0.193 NA
HETATM   25  C12 UNL     1     -17.846   1.611  12.798  1.00  0.00     0.109 C
HETATM   26  C13 UNL     1     -17.133   1.774  11.463  1.00  0.00     0.017 C
HETATM   27  C14 UNL     1     -18.191   2.204  10.471  1.00  0.00     0.017 C
HETATM   28  C15 UNL     1     -19.482   1.729  11.147  1.00  0.00     0.109 C
ENDBRANCH  21  24
ENDBRANCH   4  21
TORSDOF 5
ENDMDL