MODEL 3
REMARK VINA RESULT: -6.364766892      3.485      5.273
REMARK  6 active torsions:
REMARK  status: ('A' for Active; 'I' for Inactive)
REMARK    1  A    between atoms: C4_8  and  C5_9
REMARK    2  A    between atoms: C5_9  and  C6_10
REMARK    3  A    between atoms: C7_11  and  O2_12
REMARK    4  A    between atoms: N2_17  and  C10_18
REMARK    5  A    between atoms: C10_18  and  C11_19
REMARK    6  A    between atoms: C12_20  and  C13_21
ROOT
HETATM    1  C6  UNL     1     -14.415  -7.631  14.195  1.00  0.00     0.086 A
HETATM    2  C7  UNL     1     -13.705  -6.472  14.433  1.00  0.00     0.112 A
HETATM    3  C8  UNL     1     -14.298  -5.214  14.400  1.00  0.00     0.063 A
HETATM    4 BR1  UNL     1     -13.284  -3.662  14.732  1.00  0.00    -0.046 Br
HETATM    5  C9  UNL     1     -15.661  -5.197  14.112  1.00  0.00     0.133 A
HETATM    6  N2  UNL     1     -16.337  -6.335  13.884  1.00  0.00    -0.289 N
HETATM    7  N3  UNL     1     -15.747  -7.517  13.920  1.00  0.00    -0.291 N
HETATM    8  C15 UNL     1     -16.473  -8.749  13.670  1.00  0.00     0.178 C
ENDROOT
BRANCH   1   9
HETATM    9  C5  UNL     1     -13.730  -8.917  14.242  1.00  0.00     0.051 C
BRANCH   9  10
HETATM   10  C4  UNL     1     -13.054  -9.391  15.252  1.00  0.00     0.041 A
HETATM   11  C2  UNL     1     -11.718  -9.795  15.168  1.00  0.00     0.059 A
HETATM   12  C1  UNL     1     -10.953  -9.766  14.100  1.00  0.00     0.046 C
HETATM   13  N1  UNL     1     -11.378 -10.219  16.400  1.00  0.00    -0.260 N
HETATM   14  O1  UNL     1     -12.385 -10.105  17.210  1.00  0.00    -0.225 OA
ATOM     15  H1  UNL     1     -10.459 -10.579  16.659  1.00  0.00     0.195 HD
HETATM   16  C3  UNL     1     -13.430  -9.604  16.552  1.00  0.00     0.177 A
HETATM   17  S1  UNL     1     -14.909  -9.286  17.156  1.00  0.00    -0.049 SA
ENDBRANCH   9  10
ENDBRANCH   1   9
BRANCH   2  18
HETATM   18  O2  UNL     1     -12.339  -6.603  14.713  1.00  0.00    -0.357 OA
ATOM     19  H2  UNL     1     -11.971  -6.018  15.365  1.00  0.00     0.217 HD
ENDBRANCH   2  18
BRANCH   6  20
HETATM   20  C10 UNL     1     -17.752  -6.276  13.587  1.00  0.00     0.242 C
BRANCH  20  21
HETATM   21  C11 UNL     1     -17.972  -5.947  12.165  1.00  0.00    -0.085 C
HETATM   22  C12 UNL     1     -18.166  -5.689  11.003  1.00  0.00    -0.105 C
BRANCH  22  23
HETATM   23  C13 UNL     1     -18.414  -5.398   9.585  1.00  0.00     0.089 C
HETATM   24  C14 UNL     1     -19.737  -5.943   9.138  1.00  0.00     0.018 C
ENDBRANCH  22  23
ENDBRANCH  20  21
ENDBRANCH   6  20
TORSDOF 6
ENDMDL