MODEL 4
REMARK VINA RESULT: -6.413834846     10.219     12.242
REMARK  2 active torsions:
REMARK  status: ('A' for Active; 'I' for Inactive)
REMARK    1  A    between atoms: C1_2  and  C2_3
REMARK       I    between atoms: C1_2  and  N1_5
REMARK    2  A    between atoms: C5_8  and  C6_9
REMARK       I    between atoms: C6_9  and  N2_11
ROOT
HETATM    1  C6  UNL     1     -10.203  -9.737  15.235  1.00  0.00     0.224 C
HETATM    2  O2  UNL     1      -9.533 -10.055  16.280  1.00  0.00    -0.273 OA
HETATM    3  N2  UNL     1     -11.573  -9.450  15.419  1.00  0.00    -0.351 N
HETATM    4  C7  UNL     1     -12.261  -9.486  16.688  1.00  0.00     0.126 C
HETATM    5  C8  UNL     1     -13.603  -8.878  16.483  1.00  0.00     0.031 C
HETATM    6  C9  UNL     1     -13.749  -8.609  15.027  1.00  0.00    -0.020 C
HETATM    7  C10 UNL     1     -14.927  -9.418  14.471  1.00  0.00     0.039 C
HETATM    8  C11 UNL     1     -16.172  -8.811  15.079  1.00  0.00     0.233 C
HETATM    9  N3  UNL     1     -16.456  -7.592  14.345  1.00  0.00    -0.075 N
ATOM     10  H31 UNL     1     -16.982  -6.930  14.916  1.00  0.00     0.277 HD
ATOM     11  H32 UNL     1     -17.146  -7.755  13.610  1.00  0.00     0.277 HD
HETATM   12  C12 UNL     1     -15.255  -6.989  13.812  1.00  0.00     0.233 C
HETATM   13  C13 UNL     1     -14.058  -7.160  14.722  1.00  0.00     0.039 C
HETATM   14  C14 UNL     1     -12.498  -9.082  14.376  1.00  0.00     0.135 C
ENDROOT
BRANCH   1  15
HETATM   15  C5  UNL     1      -9.507  -9.691  13.917  1.00  0.00     0.081 C
HETATM   16  C4  UNL     1      -9.434 -11.024  13.235  1.00  0.00     0.034 C
HETATM   17  C3  UNL     1      -8.168 -11.276  12.475  1.00  0.00     0.126 C
HETATM   18  N1  UNL     1      -7.572 -10.067  12.004  1.00  0.00    -0.351 N
HETATM   19  C1  UNL     1      -7.081 -10.008  10.670  1.00  0.00     0.229 C
HETATM   20  C16 UNL     1      -7.452  -8.918  12.852  1.00  0.00     0.126 C
HETATM   21  O1  UNL     1      -6.538  -8.950  10.271  1.00  0.00    -0.273 OA
HETATM   22  C15 UNL     1      -8.082  -9.189  14.187  1.00  0.00     0.034 C
BRANCH  19  23
HETATM   23  C2  UNL     1      -7.199 -11.152   9.768  1.00  0.00     0.188 C
HETATM   24 BR1  UNL     1      -7.601 -10.562   7.969  1.00  0.00    -0.087 Br
ENDBRANCH  19  23
ENDBRANCH   1  15
TORSDOF 2
ENDMDL