MODEL 4
REMARK VINA RESULT: -5.054699679      3.630      5.907
REMARK  3 active torsions:
REMARK  status: ('A' for Active; 'I' for Inactive)
REMARK    1  A    between atoms: C2_2  and  C3_3
REMARK    2  A    between atoms: C3_3  and  O1_4
REMARK       I    between atoms: N1_11  and  C9_12
REMARK    3  A    between atoms: C9_12  and  C10_14
REMARK       I    between atoms: N2_17  and  C12_18
REMARK       I    between atoms: C12_18  and  N3_20
ROOT
HETATM    1  C1  UNL     1     -11.388 -10.826  14.183  1.00  0.00     0.041 C
HETATM    2  C2  UNL     1     -11.290  -9.629  15.133  1.00  0.00     0.057 C
HETATM    3  C4  UNL     1     -12.652  -8.950  15.279  1.00  0.00     0.066 C
HETATM    4  C5  UNL     1     -12.380  -7.513  15.255  1.00  0.00     0.054 C
HETATM    5  C6  UNL     1     -12.400  -6.871  16.655  1.00  0.00     0.034 C
HETATM    6  C7  UNL     1     -12.188  -5.419  16.278  1.00  0.00     0.022 C
HETATM    7  C8  UNL     1     -12.711  -5.315  14.841  1.00  0.00     0.127 C
HETATM    8  N1  UNL     1     -13.302  -6.647  14.595  1.00  0.00    -0.340 N
HETATM    9  C9  UNL     1     -14.498  -6.824  13.865  1.00  0.00     0.230 C
HETATM   10  O2  UNL     1     -15.017  -7.945  13.651  1.00  0.00    -0.273 OA
HETATM   11  C11 UNL     1     -10.977  -7.333  14.711  1.00  0.00     0.160 C
HETATM   12  N2  UNL     1     -10.432  -8.662  14.509  1.00  0.00    -0.320 N
HETATM   13  C12 UNL     1      -9.240  -8.911  13.803  1.00  0.00     0.321 C
HETATM   14  O3  UNL     1      -8.844 -10.117  13.681  1.00  0.00    -0.247 OA
HETATM   15  N3  UNL     1      -8.437  -7.919  13.210  1.00  0.00    -0.334 N
HETATM   16  C13 UNL     1      -8.401  -6.461  13.043  1.00  0.00     0.129 C
HETATM   17  C14 UNL     1      -6.872  -6.586  13.082  1.00  0.00     0.040 C
HETATM   18  C15 UNL     1      -7.189  -7.916  12.433  1.00  0.00     0.129 C
ENDROOT
BRANCH   2  19
HETATM   19  C3  UNL     1     -10.761 -10.141  16.443  1.00  0.00     0.195 C
BRANCH  19  20
HETATM   20  O1  UNL     1     -10.120 -11.360  16.237  1.00  0.00    -0.398 OA
ATOM     21  H1  UNL     1      -9.689 -11.629  17.039  1.00  0.00     0.209 HD
ENDBRANCH  19  20
ENDBRANCH   2  19
BRANCH   9  22
HETATM   22  C10 UNL     1     -15.242  -5.654  13.284  1.00  0.00     0.188 C
HETATM   23 BR1  UNL     1     -17.119  -5.964  13.261  1.00  0.00    -0.087 Br
ENDBRANCH   9  22
TORSDOF 3
ENDMDL