MODEL 3
REMARK VINA RESULT: -7.026229294      2.878      5.559
REMARK  7 active torsions:
REMARK  status: ('A' for Active; 'I' for Inactive)
REMARK    1  A    between atoms: S1_2  and  C2_3
REMARK    2  A    between atoms: C3_8  and  C4_9
REMARK    3  A    between atoms: C4_9  and  N3_10
REMARK    4  A    between atoms: N5_20  and  C12_21
REMARK    5  A    between atoms: C12_21  and  C13_22
REMARK    6  A    between atoms: C13_22  and  C14_23
REMARK    7  A    between atoms: C14_23  and  C15_24
ROOT
HETATM    1  C2  UNL     1       8.151 -17.909   3.930  1.00  0.00     0.162 A
HETATM    2  N1  UNL     1       8.357 -17.732   2.614  1.00  0.00    -0.278 N
ATOM      3  H1  UNL     1       7.767 -18.075   1.856  1.00  0.00     0.189 HD
HETATM    4  N2  UNL     1       9.464 -17.033   2.491  1.00  0.00    -0.285 N
ATOM      5  H2  UNL     1       9.879 -16.739   1.607  1.00  0.00     0.188 HD
HETATM    6  C3  UNL     1       9.971 -16.761   3.737  1.00  0.00     0.118 A
HETATM    7  N5  UNL     1       9.137 -17.317   4.624  1.00  0.00    -0.314 N
ENDROOT
BRANCH   6   8
HETATM    8  C4  UNL     1      11.240 -16.032   3.866  1.00  0.00     0.208 C
BRANCH   8   9
HETATM    9  N3  UNL     1      11.046 -14.610   4.001  1.00  0.00    -0.334 N
HETATM   10  C5  UNL     1      10.842 -13.919   5.113  1.00  0.00     0.184 A
HETATM   11  N4  UNL     1      10.721 -12.603   4.783  1.00  0.00    -0.350 N
HETATM   12  C6  UNL     1      10.855 -12.506   3.455  1.00  0.00     0.060 A
ATOM     13  H4  UNL     1      10.559 -11.831   5.429  1.00  0.00     0.166 HD
HETATM   14  C7  UNL     1      10.818 -11.402   2.593  1.00  0.00     0.032 A
HETATM   15  C11 UNL     1      11.058 -13.742   2.947  1.00  0.00     0.062 A
HETATM   16  C8  UNL     1      10.987 -11.553   1.235  1.00  0.00     0.002 A
HETATM   17  C9  UNL     1      11.193 -12.820   0.739  1.00  0.00     0.002 A
HETATM   18  C10 UNL     1      11.231 -13.914   1.582  1.00  0.00     0.032 A
ENDBRANCH   8   9
ENDBRANCH   6   8
BRANCH   7  19
HETATM   19  C12 UNL     1       9.267 -17.357   6.035  1.00  0.00     0.133 C
BRANCH  19  20
HETATM   20  C13 UNL     1       8.528 -16.352   6.833  1.00  0.00     0.022 C
BRANCH  20  21
HETATM   21  C14 UNL     1       9.275 -15.608   7.868  1.00  0.00     0.034 C
BRANCH  21  22
HETATM   22  C15 UNL     1       8.403 -14.991   8.905  1.00  0.00     0.186 C
HETATM   23  C16 UNL     1       6.977 -14.853   8.459  1.00  0.00     0.033 C
HETATM   24  C17 UNL     1       6.140 -14.321   9.601  1.00  0.00     0.004 C
HETATM   25  C18 UNL     1       6.752 -13.076  10.207  1.00  0.00     0.027 C
HETATM   26  C19 UNL     1       8.172 -13.433  10.619  1.00  0.00     0.232 C
HETATM   27  N6  UNL     1       8.917 -13.728   9.407  1.00  0.00    -0.071 N
ATOM     28  H62 UNL     1       9.928 -13.728   9.545  1.00  0.00     0.277 HD
ATOM     29  H61 UNL     1       8.883 -12.975   8.720  1.00  0.00     0.277 HD
ENDBRANCH  21  22
ENDBRANCH  20  21
ENDBRANCH  19  20
ENDBRANCH   7  19
BRANCH   1  30
HETATM   30  S1  UNL     1       6.791 -18.789   4.646  1.00  0.00    -0.097 SA
HETATM   31  C1  UNL     1       5.194 -18.085   4.207  1.00  0.00     0.099 C
ENDBRANCH   1  30
TORSDOF 7
ENDMDL