MODEL 1
REMARK VINA RESULT: -6.360070382      0.000      0.000
REMARK  7 active torsions:
REMARK  status: ('A' for Active; 'I' for Inactive)
REMARK    1  A    between atoms: C2_2  and  C4_4
REMARK    2  A    between atoms: C6_11  and  C7_12
REMARK    3  A    between atoms: C11_17  and  N4_18
REMARK    4  A    between atoms: N4_18  and  C12_20
REMARK    5  A    between atoms: C12_20  and  C13_21
REMARK    6  A    between atoms: C13_21  and  C14_22
REMARK    7  A    between atoms: C14_22  and  N5_23
ROOT
HETATM    1  C4  UNL     1      10.096 -16.642   5.407  1.00  0.00     0.059 A
HETATM    2  N1  UNL     1       8.926 -17.287   5.743  1.00  0.00    -0.335 N
ATOM      3  H1  UNL     1       8.512 -18.086   5.265  1.00  0.00     0.168 HD
HETATM    4  C5  UNL     1       8.437 -16.655   6.826  1.00  0.00     0.175 A
HETATM    5  S1  UNL     1       7.135 -16.682   7.939  1.00  0.00     0.025 SA
HETATM    6  N2  UNL     1       7.614 -15.396   8.868  1.00  0.00    -0.312 N
ATOM      7  H2  UNL     1       7.143 -15.010   9.686  1.00  0.00     0.175 HD
HETATM    8  C6  UNL     1       8.782 -14.966   8.294  1.00  0.00     0.102 A
HETATM    9  N3  UNL     1       9.186 -15.643   7.232  1.00  0.00    -0.263 N
HETATM   10  C11 UNL     1      10.255 -15.636   6.317  1.00  0.00     0.134 A
ENDROOT
BRANCH  10  11
HETATM   11  N4  UNL     1      11.281 -14.659   6.360  1.00  0.00    -0.374 N
ATOM     12  H4  UNL     1      12.140 -14.879   6.865  1.00  0.00     0.161 HD
BRANCH  11  13
HETATM   13  C12 UNL     1      11.170 -13.374   5.730  1.00  0.00     0.123 C
BRANCH  13  14
HETATM   14  C13 UNL     1      11.674 -13.452   4.262  1.00  0.00     0.039 C
BRANCH  14  15
HETATM   15  C14 UNL     1      10.484 -13.442   3.374  1.00  0.00     0.118 C
BRANCH  15  16
HETATM   16  N5  UNL     1      10.471 -12.409   2.390  1.00  0.00    -0.408 N
HETATM   17  C15 UNL     1      10.325 -11.077   2.840  1.00  0.00     0.143 C
HETATM   18  C16 UNL     1      11.542 -10.289   2.343  1.00  0.00     0.187 C
HETATM   19  O1  UNL     1      11.561 -10.236   0.960  1.00  0.00    -0.388 OA
HETATM   20  C17 UNL     1      11.145 -11.390   0.352  1.00  0.00     0.187 C
HETATM   21  C18 UNL     1      11.316 -12.605   1.267  1.00  0.00     0.143 C
ENDBRANCH  15  16
ENDBRANCH  14  15
ENDBRANCH  13  14
ENDBRANCH  11  13
ENDBRANCH  10  11
BRANCH   1  22
HETATM   22  C2  UNL     1      10.959 -17.105   4.291  1.00  0.00     0.031 C
HETATM   23  C1  UNL     1      10.062 -17.233   3.012  1.00  0.00     0.016 C
HETATM   24  C3  UNL     1      11.295 -18.582   4.585  1.00  0.00     0.016 C
ENDBRANCH   1  22
BRANCH   8  25
HETATM   25  C7  UNL     1       9.427 -13.772   8.956  1.00  0.00     0.054 C
HETATM   26  C8  UNL     1       8.695 -13.301  10.204  1.00  0.00     0.012 C
HETATM   27  C9  UNL     1      10.090 -12.967  10.753  1.00  0.00     0.002 C
HETATM   28  C10 UNL     1      10.583 -14.083   9.852  1.00  0.00     0.012 C
ENDBRANCH   8  25
TORSDOF 7
ENDMDL