MODEL 5
REMARK VINA RESULT: -7.538119007      4.391      6.463
REMARK  7 active torsions:
REMARK  status: ('A' for Active; 'I' for Inactive)
REMARK    1  A    between atoms: C2_7  and  C3_8
REMARK    2  A    between atoms: C3_8  and  C4_9
REMARK    3  A    between atoms: C4_9  and  C5_10
REMARK    4  A    between atoms: C5_10  and  C6_11
REMARK    5  A    between atoms: C6_11  and  N3_12
REMARK    6  A    between atoms: C7_17  and  C8_18
REMARK    7  A    between atoms: N7_26  and  C14_27
ROOT
HETATM    1  C4  UNL     1       7.791 -17.855   4.344  1.00  0.00     0.009 C
ENDROOT
BRANCH   1   2
HETATM    2  C3  UNL     1       6.902 -17.754   3.135  1.00  0.00     0.078 C
BRANCH   2   3
HETATM    3  C2  UNL     1       6.059 -18.938   2.926  1.00  0.00     0.105 A
HETATM    4  N2  UNL     1       5.094 -19.409   3.733  1.00  0.00    -0.286 N
HETATM    5  N1  UNL     1       4.544 -20.494   3.227  1.00  0.00    -0.274 N
ATOM      6  H2  UNL     1       4.822 -18.984   4.620  1.00  0.00     0.188 HD
HETATM    7  C1  UNL     1       5.151 -20.757   2.060  1.00  0.00     0.199 A
ATOM      8  H1  UNL     1       3.791 -21.039   3.649  1.00  0.00     0.189 HD
HETATM    9  S1  UNL     1       4.797 -22.027   1.058  1.00  0.00    -0.039 SA
HETATM   10  N7  UNL     1       6.073 -19.806   1.879  1.00  0.00    -0.275 N
BRANCH  10  11
HETATM   11  C14 UNL     1       6.947 -19.699   0.771  1.00  0.00     0.043 A
HETATM   12  C15 UNL     1       8.178 -20.297   0.796  1.00  0.00     0.030 A
HETATM   13  C16 UNL     1       9.006 -20.173  -0.298  1.00  0.00     0.002 A
HETATM   14  C17 UNL     1       8.645 -19.466  -1.426  1.00  0.00     0.000 A
HETATM   15  C18 UNL     1       7.397 -18.883  -1.401  1.00  0.00     0.002 A
HETATM   16  C19 UNL     1       6.545 -18.987  -0.327  1.00  0.00     0.030 A
ENDBRANCH  10  11
ENDBRANCH   2   3
ENDBRANCH   1   2
BRANCH   1  17
HETATM   17  C5  UNL     1       9.181 -18.315   4.087  1.00  0.00     0.024 C
BRANCH  17  18
HETATM   18  C6  UNL     1       9.720 -17.695   2.805  1.00  0.00     0.171 C
BRANCH  18  19
HETATM   19  N3  UNL     1      10.251 -16.393   3.154  1.00  0.00    -0.218 N
HETATM   20  N4  UNL     1      10.898 -16.011   4.241  1.00  0.00    -0.224 N
HETATM   21  N5  UNL     1      11.202 -14.735   4.147  1.00  0.00    -0.268 N
ATOM     22  H4  UNL     1      11.126 -16.614   5.032  1.00  0.00     0.210 HD
HETATM   23  C7  UNL     1      10.739 -14.293   2.973  1.00  0.00     0.147 A
ATOM     24  H5  UNL     1      11.701 -14.182   4.844  1.00  0.00     0.190 HD
HETATM   25  N6  UNL     1      10.152 -15.334   2.368  1.00  0.00    -0.266 N
ATOM     26  H6  UNL     1       9.703 -15.313   1.452  1.00  0.00     0.190 HD
BRANCH  23  27
HETATM   27  C8  UNL     1      10.844 -12.942   2.439  1.00  0.00     0.011 A
HETATM   28  C9  UNL     1      11.090 -12.708   1.119  1.00  0.00     0.015 A
HETATM   29  C10 UNL     1      11.197 -11.440   0.581  1.00  0.00     0.001 A
HETATM   30  C11 UNL     1      11.041 -10.375   1.440  1.00  0.00     0.000 A
HETATM   31  C12 UNL     1      10.791 -10.574   2.780  1.00  0.00     0.001 A
HETATM   32  C13 UNL     1      10.694 -11.847   3.270  1.00  0.00     0.015 A
ENDBRANCH  23  27
ENDBRANCH  18  19
ENDBRANCH  17  18
ENDBRANCH   1  17
TORSDOF 7
ENDMDL