MODEL 2
REMARK VINA RESULT: -7.166306466      3.871      6.663
REMARK  7 active torsions:
REMARK  status: ('A' for Active; 'I' for Inactive)
REMARK    1  A    between atoms: C1_2  and  C2_4
REMARK    2  A    between atoms: C4_7  and  C5_8
REMARK    3  A    between atoms: C5_8  and  N1_9
REMARK    4  A    between atoms: N1_9  and  C6_10
REMARK    5  A    between atoms: N1_9  and  C12_21
REMARK    6  A    between atoms: C6_10  and  C7_11
REMARK    7  A    between atoms: C8_16  and  C9_17
ROOT
HETATM    1  N1  UNL     1      10.676 -13.685   3.701  1.00  0.00    -0.278 NA
ENDROOT
BRANCH   1   2
HETATM    2  C5  UNL     1      11.040 -14.957   3.063  1.00  0.00     0.160 C
BRANCH   2   3
HETATM    3  C4  UNL     1      10.174 -16.097   3.444  1.00  0.00     0.065 A
HETATM    4  S1  UNL     1      10.462 -17.354   4.562  1.00  0.00    -0.085 SA
HETATM    5  C3  UNL     1       8.986 -18.195   4.402  1.00  0.00     0.088 A
HETATM    6  C2  UNL     1       8.330 -17.430   3.460  1.00  0.00     0.117 A
HETATM    7  N4  UNL     1       8.968 -16.388   3.010  1.00  0.00    -0.347 N
ATOM      8  H4  UNL     1       8.527 -15.791   2.312  1.00  0.00     0.166 HD
BRANCH   6   9
HETATM    9  C1  UNL     1       6.976 -17.796   3.002  1.00  0.00     0.227 C
HETATM   10  O1  UNL     1       6.838 -18.376   1.911  1.00  0.00    -0.643 OA
HETATM   11  O2  UNL     1       5.881 -17.502   3.766  1.00  0.00    -0.643 OA
ENDBRANCH   6   9
ENDBRANCH   2   3
ENDBRANCH   1   2
BRANCH   1  12
HETATM   12  C6  UNL     1      11.551 -13.465   4.775  1.00  0.00     0.118 C
BRANCH  12  13
HETATM   13  C7  UNL     1      11.093 -13.748   6.144  1.00  0.00     0.174 A
HETATM   14  N2  UNL     1      11.813 -13.396   7.254  1.00  0.00    -0.277 N
HETATM   15  N3  UNL     1      11.149 -13.783   8.316  1.00  0.00    -0.281 N
ATOM     16  H2  UNL     1      12.712 -12.914   7.255  1.00  0.00     0.189 HD
HETATM   17  C8  UNL     1      10.028 -14.370   7.918  1.00  0.00     0.144 A
ATOM     18  H3  UNL     1      11.445 -13.654   9.284  1.00  0.00     0.189 HD
HETATM   19  O3  UNL     1      10.041 -14.325   6.606  1.00  0.00    -0.277 OA
BRANCH  17  20
HETATM   20  C9  UNL     1       8.922 -14.985   8.724  1.00  0.00     0.062 A
HETATM   21  C10 UNL     1       7.904 -14.093   9.365  1.00  0.00     0.013 A
HETATM   22  C11 UNL     1       7.546 -14.864   8.158  1.00  0.00     0.013 A
ENDBRANCH  17  20
ENDBRANCH  12  13
ENDBRANCH   1  12
BRANCH   1  23
HETATM   23  C12 UNL     1      10.501 -12.748   2.671  1.00  0.00     0.063 C
HETATM   24  C13 UNL     1      10.521 -11.359   3.354  1.00  0.00     0.020 C
HETATM   25  C14 UNL     1      11.268 -10.354   2.509  1.00  0.00     0.002 C
HETATM   26  C15 UNL     1      10.717 -10.390   1.112  1.00  0.00     0.000 C
HETATM   27  C16 UNL     1      11.088 -11.696   0.505  1.00  0.00     0.002 C
HETATM   28  C17 UNL     1      11.447 -12.774   1.523  1.00  0.00     0.020 C
ENDBRANCH   1  23
TORSDOF 7
ENDMDL