MODEL 4
REMARK VINA RESULT: -6.723752196      1.926      2.377
REMARK  7 active torsions:
REMARK  status: ('A' for Active; 'I' for Inactive)
REMARK    1  A    between atoms: C6_11  and  C7_12
REMARK    2  A    between atoms: N4_17  and  C11_18
REMARK    3  A    between atoms: C11_18  and  C12_19
REMARK    4  A    between atoms: C12_19  and  C13_20
REMARK    5  A    between atoms: C13_20  and  C14_21
REMARK    6  A    between atoms: C14_21  and  C15_22
REMARK    7  A    between atoms: C15_22  and  N5_23
ROOT
HETATM    1  N1  UNL     1      10.869 -12.604  -0.308  1.00  0.00    -0.100 NA
HETATM    2  C1  UNL     1      10.877 -12.210   1.043  1.00  0.00     0.078 A
HETATM    3  C2  UNL     1      10.962 -10.871   1.367  1.00  0.00     0.046 A
HETATM    4  C3  UNL     1      10.969 -10.469   2.708  1.00  0.00     0.091 A
HETATM    5  N2  UNL     1      10.894 -11.382   3.693  1.00  0.00    -0.350 N
ATOM      6  H2  UNL     1      10.901 -11.073   4.665  1.00  0.00     0.166 HD
HETATM    7  C4  UNL     1      10.810 -12.700   3.416  1.00  0.00     0.138 A
HETATM    8  C5  UNL     1      10.803 -13.091   2.098  1.00  0.00     0.103 A
HETATM    9  N3  UNL     1      10.716 -14.422   2.135  1.00  0.00    -0.337 N
ATOM     10  H3  UNL     1      10.688 -15.035   1.321  1.00  0.00     0.168 HD
HETATM   11  C6  UNL     1      10.671 -14.837   3.450  1.00  0.00     0.127 A
HETATM   12  N4  UNL     1      10.728 -13.785   4.240  1.00  0.00    -0.316 N
ENDROOT
BRANCH  12  13
HETATM   13  C11 UNL     1      10.702 -13.681   5.682  1.00  0.00     0.132 C
BRANCH  13  14
HETATM   14  C12 UNL     1      12.055 -13.302   6.238  1.00  0.00     0.020 C
BRANCH  14  15
HETATM   15  C13 UNL     1      12.105 -13.275   7.721  1.00  0.00     0.003 C
BRANCH  15  16
HETATM   16  C14 UNL     1      10.857 -13.723   8.423  1.00  0.00     0.030 C
BRANCH  16  17
HETATM   17  C15 UNL     1      11.235 -14.831   9.401  1.00  0.00     0.272 C
BRANCH  17  18
HETATM   18  N5  UNL     1      11.041 -14.386  10.766  1.00  0.00     0.092 N
HETATM   19  C16 UNL     1      10.334 -13.128  10.736  1.00  0.00     0.298 C
HETATM   20  C17 UNL     1      10.671 -12.289  11.954  1.00  0.00     0.198 C
HETATM   21  O1  UNL     1      12.007 -11.964  12.014  1.00  0.00    -0.388 OA
HETATM   22  C18 UNL     1      12.819 -12.845  11.308  1.00  0.00     0.198 C
HETATM   23  C19 UNL     1      12.297 -14.259  11.464  1.00  0.00     0.298 C
ENDBRANCH  17  18
ENDBRANCH  16  17
ENDBRANCH  15  16
ENDBRANCH  14  15
ENDBRANCH  13  14
ENDBRANCH  12  13
BRANCH  11  24
HETATM   24  C7  UNL     1      10.569 -16.274   3.789  1.00  0.00     0.049 A
HETATM   25  C8  UNL     1      11.345 -17.114   4.507  1.00  0.00     0.023 A
HETATM   26  C9  UNL     1      10.947 -18.401   4.637  1.00  0.00     0.009 A
HETATM   27  C10 UNL     1       9.784 -18.768   4.035  1.00  0.00     0.050 A
HETATM   28  S1  UNL     1       9.267 -17.323   3.300  1.00  0.00    -0.098 SA
ENDBRANCH  11  24
TORSDOF 7
ENDMDL