MODEL 3
REMARK VINA RESULT: -7.023503183      3.966      6.987
REMARK  7 active torsions:
REMARK  status: ('A' for Active; 'I' for Inactive)
REMARK    1  A    between atoms: C5_5  and  C6_6
REMARK    2  A    between atoms: C7_11  and  S1_12
REMARK    3  A    between atoms: S1_12  and  C8_13
REMARK    4  A    between atoms: C8_13  and  C9_14
REMARK    5  A    between atoms: C9_14  and  C10_15
REMARK    6  A    between atoms: C10_15  and  C11_16
REMARK    7  A    between atoms: C11_16  and  N3_17
ROOT
HETATM    1  S1  UNL     1      10.272 -17.195   4.898  1.00  0.00    -0.085 SA
ENDROOT
BRANCH   1   2
HETATM    2  C7  UNL     1      10.404 -15.930   3.663  1.00  0.00     0.203 A
HETATM    3  N2  UNL     1      10.326 -16.143   2.341  1.00  0.00    -0.272 N
HETATM    4  N1  UNL     1      10.460 -15.002   1.684  1.00  0.00    -0.276 N
ATOM      5  H2  UNL     1      10.182 -17.055   1.905  1.00  0.00     0.189 HD
HETATM    6  C6  UNL     1      10.625 -14.064   2.641  1.00  0.00     0.182 A
ATOM      7  H1  UNL     1      10.443 -14.862   0.673  1.00  0.00     0.189 HD
HETATM    8  O1  UNL     1      10.588 -14.639   3.795  1.00  0.00    -0.267 OA
BRANCH   6   9
HETATM    9  C5  UNL     1      10.812 -12.633   2.311  1.00  0.00     0.058 A
HETATM   10  C4  UNL     1      10.720 -11.559   3.164  1.00  0.00     0.024 A
HETATM   11  C3  UNL     1      10.928 -10.344   2.642  1.00  0.00     0.015 A
HETATM   12  C2  UNL     1      11.214 -10.267   1.308  1.00  0.00    -0.021 A
HETATM   13  C1  UNL     1      11.491  -9.070   0.452  1.00  0.00     0.056 C
HETATM   14  S2  UNL     1      11.185 -11.898   0.819  1.00  0.00    -0.091 SA
ENDBRANCH   6   9
ENDBRANCH   1   2
BRANCH   1  15
HETATM   15  C8  UNL     1       8.641 -17.256   5.653  1.00  0.00     0.083 C
BRANCH  15  16
HETATM   16  C9  UNL     1       7.670 -18.170   5.037  1.00  0.00     0.012 C
BRANCH  16  17
HETATM   17  C10 UNL     1       7.568 -18.298   3.570  1.00  0.00     0.031 C
BRANCH  17  18
HETATM   18  C11 UNL     1       8.003 -19.591   2.962  1.00  0.00     0.272 C
BRANCH  18  19
HETATM   19  N3  UNL     1       7.701 -19.816   1.585  1.00  0.00     0.092 N
HETATM   20  C12 UNL     1       8.903 -19.525   0.815  1.00  0.00     0.305 C
HETATM   21  C13 UNL     1       8.606 -19.544  -0.670  1.00  0.00     0.214 C
HETATM   22  C14 UNL     1       7.607 -20.605  -1.053  1.00  0.00     0.037 C
HETATM   23  N4  UNL     1       7.842 -18.315  -0.922  1.00  0.00    -0.063 N
HETATM   24  C15 UNL     1       6.239 -19.946  -0.972  1.00  0.00     0.037 C
HETATM   25  C16 UNL     1       6.589 -18.647  -0.277  1.00  0.00     0.214 C
HETATM   26  C17 UNL     1       6.696 -18.842   1.201  1.00  0.00     0.305 C
ATOM     27  H42 UNL     1       8.282 -17.449  -0.612  1.00  0.00     0.278 HD
ATOM     28  H41 UNL     1       7.773 -18.031  -1.899  1.00  0.00     0.278 HD
ENDBRANCH  18  19
ENDBRANCH  17  18
ENDBRANCH  16  17
ENDBRANCH  15  16
ENDBRANCH   1  15
TORSDOF 7
ENDMDL