MODEL 4
REMARK VINA RESULT: -6.717460511      3.913      6.386
REMARK  7 active torsions:
REMARK  status: ('A' for Active; 'I' for Inactive)
REMARK    1  A    between atoms: C2_3  and  C3_4
REMARK    2  A    between atoms: C3_4  and  N2_5
REMARK    3  A    between atoms: C4_6  and  S1_7
REMARK    4  A    between atoms: S1_7  and  C5_8
REMARK    5  A    between atoms: C5_8  and  C6_9
REMARK       I    between atoms: C6_9  and  N3_11
REMARK    6  A    between atoms: N3_11  and  C7_13
REMARK    7  A    between atoms: C13_23  and  C14_24
ROOT
HETATM    1  N1  UNL     1       9.364 -17.087   3.684  1.00  0.00    -0.197 NA
HETATM    2  C1  UNL     1       9.929 -16.665   4.613  1.00  0.00     0.060 C
HETATM    3  C2  UNL     1      10.651 -16.130   5.780  1.00  0.00     0.144 C
ENDROOT
BRANCH   3   4
HETATM    4  C3  UNL     1      10.132 -14.786   6.179  1.00  0.00     0.147 C
BRANCH   4   5
HETATM    5  N2  UNL     1      11.201 -13.822   6.174  1.00  0.00    -0.309 N
HETATM    6  C4  UNL     1      11.783 -13.493   7.379  1.00  0.00     0.163 A
HETATM    7  N4  UNL     1      12.727 -12.594   7.104  1.00  0.00    -0.278 N
HETATM    8  N5  UNL     1      12.738 -12.373   5.814  1.00  0.00    -0.282 N
ATOM      9  H4  UNL     1      13.341 -12.149   7.787  1.00  0.00     0.189 HD
HETATM   10  C13 UNL     1      11.781 -13.141   5.208  1.00  0.00     0.141 A
ATOM     11  H5  UNL     1      13.364 -11.727   5.333  1.00  0.00     0.188 HD
BRANCH   6  12
HETATM   12  S1  UNL     1      11.379 -14.112   9.004  1.00  0.00    -0.083 SA
BRANCH  12  13
HETATM   13  C5  UNL     1      12.290 -13.244  10.299  1.00  0.00     0.185 C
BRANCH  13  14
HETATM   14  C6  UNL     1      13.552 -13.905  10.644  1.00  0.00     0.227 C
HETATM   15  O1  UNL     1      13.549 -14.979  11.284  1.00  0.00    -0.273 OA
HETATM   16  N3  UNL     1      14.788 -13.335  10.259  1.00  0.00    -0.356 N
ATOM     17  H3  UNL     1      14.803 -12.460   9.735  1.00  0.00     0.162 HD
BRANCH  16  18
HETATM   18  C7  UNL     1      16.040 -13.993  10.610  1.00  0.00     0.084 C
HETATM   19  C8  UNL     1      16.922 -12.977  11.283  1.00  0.00     0.025 C
HETATM   20  C9  UNL     1      18.182 -12.675  10.546  1.00  0.00     0.002 C
HETATM   21  C10 UNL     1      18.054 -12.571   9.065  1.00  0.00     0.000 C
HETATM   22  C11 UNL     1      16.996 -13.413   8.440  1.00  0.00     0.002 C
HETATM   23  C12 UNL     1      16.638 -14.553   9.360  1.00  0.00     0.025 C
ENDBRANCH  16  18
ENDBRANCH  13  14
ENDBRANCH  12  13
ENDBRANCH   6  12
BRANCH  10  24
HETATM   24  C14 UNL     1      11.522 -13.139   3.764  1.00  0.00     0.050 A
HETATM   25  C15 UNL     1      11.701 -14.039   2.775  1.00  0.00     0.023 A
HETATM   26  C16 UNL     1      11.329 -13.703   1.523  1.00  0.00     0.009 A
HETATM   27  C17 UNL     1      10.791 -12.463   1.337  1.00  0.00     0.050 A
HETATM   28  S2  UNL     1      10.815 -11.797   2.897  1.00  0.00    -0.098 SA
ENDBRANCH  10  24
ENDBRANCH   4   5
ENDBRANCH   3   4
TORSDOF 7
ENDMDL