MODEL 2
REMARK VINA RESULT: -6.885479237      0.766      1.263
REMARK  8 active torsions:
REMARK  status: ('A' for Active; 'I' for Inactive)
REMARK    1  A    between atoms: C2_3  and  C3_4
REMARK    2  A    between atoms: C3_4  and  C4_5
REMARK    3  A    between atoms: C4_5  and  C5_6
REMARK    4  A    between atoms: C5_6  and  N2_7
REMARK    5  A    between atoms: C6_8  and  O1_9
REMARK    6  A    between atoms: O1_9  and  C7_10
REMARK    7  A    between atoms: C18_23  and  N4_24
REMARK    8  A    between atoms: C19_27  and  N5_28
ROOT
HETATM    1  N1  UNL     1      11.657  -9.613  -0.087  1.00  0.00    -0.197 NA
HETATM    2  C1  UNL     1      11.245 -10.160   0.851  1.00  0.00     0.059 C
HETATM    3  C2  UNL     1      10.734 -10.877   2.032  1.00  0.00     0.124 C
ENDROOT
BRANCH   3   4
HETATM    4  C3  UNL     1      10.923 -12.346   1.768  1.00  0.00     0.016 C
BRANCH   4   5
HETATM    5  C4  UNL     1      10.309 -13.228   2.832  1.00  0.00     0.021 C
BRANCH   5   6
HETATM    6  C5  UNL     1      11.386 -14.065   3.456  1.00  0.00     0.133 C
BRANCH   6   7
HETATM    7  N2  UNL     1      11.161 -14.389   4.826  1.00  0.00    -0.311 N
HETATM    8  C6  UNL     1      10.370 -15.399   5.197  1.00  0.00     0.159 A
HETATM    9  C13 UNL     1      10.155 -15.672   6.578  1.00  0.00     0.044 A
HETATM   10  C14 UNL     1       9.320 -16.735   6.944  1.00  0.00     0.019 A
HETATM   11  C17 UNL     1      10.748 -14.914   7.523  1.00  0.00     0.084 A
HETATM   12  C15 UNL     1       9.136 -16.970   8.285  1.00  0.00     0.018 A
HETATM   13  C16 UNL     1       9.766 -16.165   9.187  1.00  0.00     0.088 A
HETATM   14  N3  UNL     1      10.567 -15.144   8.850  1.00  0.00    -0.363 N
ATOM     15  H3  UNL     1      11.020 -14.566   9.558  1.00  0.00     0.165 HD
HETATM   16  C18 UNL     1      11.572 -13.866   7.120  1.00  0.00     0.174 A
HETATM   17  C19 UNL     1      11.749 -13.640   5.782  1.00  0.00     0.139 A
BRANCH   8  18
HETATM   18  O1  UNL     1       9.743 -16.206   4.364  1.00  0.00    -0.329 OA
BRANCH  18  19
HETATM   19  C7  UNL     1       9.495 -17.316   3.717  1.00  0.00     0.130 C
HETATM   20  C8  UNL     1       9.878 -17.255   2.237  1.00  0.00     0.032 C
HETATM   21  C9  UNL     1       9.625 -18.599   1.595  1.00  0.00     0.002 C
HETATM   22  C10 UNL     1       8.099 -18.753   1.526  1.00  0.00     0.000 C
HETATM   23  C11 UNL     1       7.637 -18.816   2.966  1.00  0.00     0.002 C
HETATM   24  C12 UNL     1       7.950 -17.527   3.688  1.00  0.00     0.032 C
ENDBRANCH  18  19
ENDBRANCH   8  18
BRANCH  16  25
HETATM   25  N4  UNL     1      12.198 -13.068   8.126  1.00  0.00    -0.109 N
HETATM   26  O2  UNL     1      11.482 -12.510   8.979  1.00  0.00    -0.532 OA
HETATM   27  O3  UNL     1      13.579 -12.919   8.155  1.00  0.00    -0.532 OA
ENDBRANCH  16  25
BRANCH  17  28
HETATM   28  N5  UNL     1      12.531 -12.643   5.446  1.00  0.00    -0.383 N
ATOM     29  H52 UNL     1      13.465 -12.632   5.854  1.00  0.00     0.157 HD
ATOM     30  H51 UNL     1      12.195 -11.926   4.804  1.00  0.00     0.157 HD
ENDBRANCH  17  28
ENDBRANCH   6   7
ENDBRANCH   5   6
ENDBRANCH   4   5
ENDBRANCH   3   4
TORSDOF 8
ENDMDL