MODEL 4
REMARK VINA RESULT: -5.219042896      5.683      7.446
REMARK  10 active torsions:
REMARK  status: ('A' for Active; 'I' for Inactive)
REMARK    1  A    between atoms: C4_5  and  C5_6
REMARK    2  A    between atoms: C6_9  and  C7_10
REMARK    3  A    between atoms: C7_10  and  N2_11
REMARK    4  A    between atoms: N2_11  and  C8_12
REMARK    5  A    between atoms: N2_11  and  C10_16
REMARK    6  A    between atoms: C8_12  and  C9_13
REMARK    7  A    between atoms: C9_13  and  O1_14
REMARK    8  A    between atoms: C10_16  and  O2_18
REMARK    9  A    between atoms: O2_18  and  C11_19
REMARK   10  A    between atoms: C11_19  and  C12_20
ROOT
HETATM    1  C5  UNL     1       9.874 -16.696   3.116  1.00  0.00     0.108 A
HETATM    2  N1  UNL     1       9.608 -17.489   2.118  1.00  0.00    -0.350 N
ATOM      3  H1  UNL     1       9.713 -17.148   1.162  1.00  0.00     0.166 HD
HETATM    4  C6  UNL     1       9.211 -18.707   2.327  1.00  0.00     0.034 A
HETATM    5  C15 UNL     1       9.092 -19.100   3.654  1.00  0.00     0.078 A
HETATM    6  S3  UNL     1       9.559 -17.686   4.473  1.00  0.00    -0.079 SA
ENDROOT
BRANCH   4   7
HETATM    7  C7  UNL     1       8.908 -19.679   1.208  1.00  0.00     0.183 C
BRANCH   7   8
HETATM    8  N2  UNL     1       7.669 -19.417   0.569  1.00  0.00    -0.345 N
BRANCH   8   9
HETATM    9  C8  UNL     1       7.570 -18.626  -0.626  1.00  0.00     0.152 C
BRANCH   9  10
HETATM   10  C9  UNL     1       8.095 -19.215  -1.881  1.00  0.00     0.184 C
BRANCH  10  11
HETATM   11  O1  UNL     1       7.128 -18.966  -2.884  1.00  0.00    -0.399 OA
ATOM     12  H1  UNL     1       6.763 -18.108  -2.704  1.00  0.00     0.209 HD
ENDBRANCH  10  11
ENDBRANCH   9  10
ENDBRANCH   8   9
BRANCH   8  13
HETATM   13  C10 UNL     1       6.460 -19.935   1.108  1.00  0.00     0.212 C
HETATM   14  S2  UNL     1       5.711 -21.166   0.376  1.00  0.00    -0.033 SA
BRANCH  13  15
HETATM   15  O2  UNL     1       5.946 -19.374   2.254  1.00  0.00    -0.327 OA
BRANCH  15  16
HETATM   16  C11 UNL     1       5.547 -20.163   3.376  1.00  0.00     0.182 C
BRANCH  16  17
HETATM   17  C12 UNL     1       5.099 -19.301   4.520  1.00  0.00     0.002 C
HETATM   18  C13 UNL     1       3.568 -19.391   4.570  1.00  0.00     0.011 C
HETATM   19  C14 UNL     1       5.506 -17.868   4.199  1.00  0.00     0.011 C
ENDBRANCH  16  17
ENDBRANCH  15  16
ENDBRANCH  13  15
ENDBRANCH   8  13
ENDBRANCH   7   8
ENDBRANCH   4   7
BRANCH   1  20
HETATM   20  C4  UNL     1      10.327 -15.278   3.109  1.00  0.00     0.108 A
HETATM   21  S1  UNL     1      10.748 -14.291   4.429  1.00  0.00    -0.080 SA
HETATM   22  C3  UNL     1      11.128 -12.854   3.549  1.00  0.00     0.076 A
HETATM   23  C2  UNL     1      10.892 -13.265   2.261  1.00  0.00     0.012 A
HETATM   24  C1  UNL     1      11.105 -12.286   1.118  1.00  0.00     0.068 C
HETATM   25  N3  UNL     1      10.493 -14.482   2.082  1.00  0.00    -0.352 N
ATOM     26  H3  UNL     1      10.307 -14.823   1.138  1.00  0.00     0.166 HD
ENDBRANCH   1  20
TORSDOF 10
ENDMDL