MODEL 2
REMARK VINA RESULT: -7.080572204      2.943      4.698
REMARK  8 active torsions:
REMARK  status: ('A' for Active; 'I' for Inactive)
REMARK    1  A    between atoms: N1_10  and  C10_11
REMARK    2  A    between atoms: C13_14  and  O1_15
REMARK    3  A    between atoms: N2_17  and  C14_18
REMARK    4  A    between atoms: C14_18  and  C15_19
REMARK    5  A    between atoms: N3_21  and  C17_22
REMARK    6  A    between atoms: C17_22  and  C18_23
REMARK    7  A    between atoms: C18_23  and  C19_24
REMARK    8  A    between atoms: C19_24  and  C20_25
ROOT
HETATM    1  C1  UNL     1       7.492 -15.063  13.786  1.00  0.00     0.036 C
HETATM    2  C2  UNL     1       8.369 -14.917  12.611  1.00  0.00    -0.023 C
HETATM    3  C3  UNL     1       7.899 -14.214  11.570  1.00  0.00    -0.052 C
HETATM    4  C4  UNL     1       6.563 -13.631  11.631  1.00  0.00     0.039 C
HETATM    5  C5  UNL     1       5.768 -14.133  10.406  1.00  0.00     0.005 C
HETATM    6  C6  UNL     1       6.584 -13.999   9.188  1.00  0.00     0.005 C
HETATM    7  C7  UNL     1       7.959 -14.616   9.147  1.00  0.00     0.043 C
HETATM    8  C8  UNL     1       8.744 -14.168  10.374  1.00  0.00    -0.007 C
HETATM    9  C9  UNL     1       9.928 -13.590  10.314  1.00  0.00     0.122 A
HETATM   10  N1  UNL     1      10.574 -12.857  11.376  1.00  0.00    -0.339 N
HETATM   11  C12 UNL     1      11.908 -12.613  10.991  1.00  0.00     0.149 A
HETATM   12  C13 UNL     1      12.149 -13.115   9.807  1.00  0.00     0.164 A
HETATM   13  N2  UNL     1      10.993 -13.743   9.302  1.00  0.00    -0.285 N
ENDROOT
BRANCH  13  14
HETATM   14  C14 UNL     1      10.842 -14.456   8.097  1.00  0.00     0.133 C
BRANCH  14  15
HETATM   15  C15 UNL     1      11.130 -13.877   6.796  1.00  0.00     0.082 A
HETATM   16  C16 UNL     1      10.429 -14.366   5.658  1.00  0.00     0.144 A
HETATM   17  N3  UNL     1      10.868 -13.677   4.595  1.00  0.00    -0.287 N
HETATM   18  N4  UNL     1      11.770 -12.828   5.038  1.00  0.00    -0.240 N
HETATM   19  N5  UNL     1      11.904 -12.966   6.326  1.00  0.00    -0.284 N
ATOM     20  H4  UNL     1      12.285 -12.164   4.461  1.00  0.00     0.208 HD
ATOM     21  H5  UNL     1      12.547 -12.415   6.894  1.00  0.00     0.188 HD
BRANCH  17  22
HETATM   22  C17 UNL     1      10.393 -13.890   3.221  1.00  0.00     0.150 C
BRANCH  22  23
HETATM   23  C18 UNL     1      11.496 -13.741   2.223  1.00  0.00     0.022 C
BRANCH  23  24
HETATM   24  C19 UNL     1      11.186 -12.695   1.186  1.00  0.00     0.001 C
BRANCH  24  25
HETATM   25  C20 UNL     1      10.520 -11.474   1.811  1.00  0.00    -0.004 C
HETATM   26  C21 UNL     1      11.267 -10.246   1.319  1.00  0.00     0.005 C
ENDBRANCH  24  25
ENDBRANCH  23  24
ENDBRANCH  22  23
ENDBRANCH  17  22
ENDBRANCH  14  15
ENDBRANCH  13  14
BRANCH  12  27
HETATM   27  O1  UNL     1      13.390 -13.028   9.152  1.00  0.00    -0.345 OA
ATOM     28  H1  UNL     1      13.506 -12.688   8.273  1.00  0.00     0.219 HD
ENDBRANCH  12  27
BRANCH  10  29
HETATM   29  C10 UNL     1      10.070 -12.351  12.636  1.00  0.00     0.126 C
HETATM   30  C11 UNL     1      11.010 -11.174  13.050  1.00  0.00     0.027 C
ENDBRANCH  10  29
TORSDOF 8
ENDMDL