MODEL 3
REMARK VINA RESULT: -6.131730556      6.908     10.385
REMARK  6 active torsions:
REMARK  status: ('A' for Active; 'I' for Inactive)
REMARK    1  A    between atoms: C2_2  and  N1_3
REMARK    2  A    between atoms: C4_9  and  C5_10
REMARK    3  A    between atoms: C5_10  and  O1_11
REMARK    4  A    between atoms: C5_10  and  C6_13
REMARK    5  A    between atoms: C5_10  and  C8_15
REMARK    6  A    between atoms: N4_17  and  C10_18
ROOT
HETATM    1  C8  UNL     1       0.619  -2.789  -0.285  1.00  0.00     0.024 A
HETATM    2  C9  UNL     1       1.443  -3.536   0.558  1.00  0.00     0.123 A
HETATM    3  N4  UNL     1       1.671  -4.737   0.013  1.00  0.00    -0.293 N
HETATM    4  N5  UNL     1       1.033  -4.770  -1.113  1.00  0.00    -0.302 N
ATOM      5  H5  UNL     1       1.027  -5.570  -1.747  1.00  0.00     0.186 HD
HETATM    6  C20 UNL     1       0.371  -3.601  -1.344  1.00  0.00     0.033 A
HETATM    7  C21 UNL     1      -0.488  -3.385  -2.528  1.00  0.00     0.070 C
ENDROOT
BRANCH   1   8
HETATM    8  C5  UNL     1       0.248  -1.383   0.008  1.00  0.00     0.147 C
BRANCH   8   9
HETATM    9  C4  UNL     1       1.445  -0.545  -0.477  1.00  0.00     0.139 A
HETATM   10  N1  UNL     1       1.730   0.673  -0.049  1.00  0.00    -0.328 N
HETATM   11  C3  UNL     1       2.840   1.045  -0.722  1.00  0.00     0.201 A
HETATM   12  N2  UNL     1       3.239   0.068  -1.558  1.00  0.00    -0.295 N
HETATM   13  N3  UNL     1       2.361  -0.904  -1.389  1.00  0.00    -0.285 N
ATOM     14  H2  UNL     1       4.043   0.077  -2.185  1.00  0.00     0.187 HD
ATOM     15  H3  UNL     1       2.376  -1.798  -1.880  1.00  0.00     0.188 HD
BRANCH  10  16
HETATM   16  C2  UNL     1       1.078   1.514   0.906  1.00  0.00     0.127 C
HETATM   17  C1  UNL     1       0.433   2.671   0.196  1.00  0.00     0.027 C
ENDBRANCH  10  16
ENDBRANCH   8   9
BRANCH   8  18
HETATM   18  O1  UNL     1       0.039  -1.122   1.320  1.00  0.00    -0.377 OA
ATOM     19  H1  UNL     1      -0.636  -1.707   1.644  1.00  0.00     0.211 HD
ENDBRANCH   8  18
BRANCH   8  20
HETATM   20  C6  UNL     1      -0.892  -0.976  -0.905  1.00  0.00     0.047 C
HETATM   21  C7  UNL     1      -1.932  -0.073  -0.402  1.00  0.00     0.009 C
ENDBRANCH   8  20
ENDBRANCH   1   8
BRANCH   3  22
HETATM   22  C10 UNL     1       2.499  -5.785   0.626  1.00  0.00     0.054 C
HETATM   23  C11 UNL     1       3.234  -5.202   1.808  1.00  0.00     0.038 C
HETATM   24  C12 UNL     1       4.089  -6.272   2.459  1.00  0.00    -0.011 C
HETATM   25  C13 UNL     1       5.043  -6.801   1.443  1.00  0.00     0.009 C
HETATM   26  C17 UNL     1       3.199  -7.386   2.960  1.00  0.00     0.009 C
HETATM   27  C14 UNL     1       4.272  -7.423   0.309  1.00  0.00    -0.011 C
HETATM   28  C15 UNL     1       3.352  -8.520   0.795  1.00  0.00     0.009 C
HETATM   29  C19 UNL     1       3.462  -6.362  -0.384  1.00  0.00     0.038 C
HETATM   30  C16 UNL     1       2.402  -7.951   1.826  1.00  0.00    -0.011 C
HETATM   31  C18 UNL     1       1.591  -6.867   1.156  1.00  0.00     0.038 C
ENDBRANCH   3  22
TORSDOF 6
ENDMDL