MODEL 5
REMARK VINA RESULT: -7.462560947      1.250      1.334
REMARK  7 active torsions:
REMARK  status: ('A' for Active; 'I' for Inactive)
REMARK    1  A    between atoms: C4_5  and  N1_6
REMARK    2  A    between atoms: C8_10  and  C9_11
REMARK    3  A    between atoms: C8_10  and  C10_14
REMARK    4  A    between atoms: C9_11  and  O1_12
REMARK    5  A    between atoms: C10_14  and  C11_15
REMARK    6  A    between atoms: C13_17  and  C14_18
REMARK    7  A    between atoms: C14_18  and  C15_19
ROOT
HETATM    1  N1  UNL     1      -2.070  -3.131  -7.905  1.00  0.00    -0.361 N
HETATM    2  C5  UNL     1      -0.806  -2.450  -7.925  1.00  0.00     0.125 C
HETATM    3  C6  UNL     1      -0.980  -1.082  -7.278  1.00  0.00     0.021 C
HETATM    4  C7  UNL     1      -1.561  -1.153  -5.909  1.00  0.00     0.015 C
HETATM    5  C8  UNL     1      -2.658  -2.144  -5.715  1.00  0.00     0.002 C
HETATM    6  C20 UNL     1      -3.147  -2.620  -7.123  1.00  0.00     0.136 C
ENDROOT
BRANCH   5   7
HETATM    7  C9  UNL     1      -2.298  -3.404  -5.018  1.00  0.00     0.175 C
BRANCH   7   8
HETATM    8  O1  UNL     1      -1.223  -3.374  -4.162  1.00  0.00    -0.400 OA
ATOM      9  H1  UNL     1      -0.593  -4.083  -4.221  1.00  0.00     0.209 HD
ENDBRANCH   7   8
ENDBRANCH   5   7
BRANCH   5  10
HETATM   10  C10 UNL     1      -3.846  -1.402  -5.171  1.00  0.00     0.072 C
BRANCH  10  11
HETATM   11  C11 UNL     1      -4.097  -1.588  -3.737  1.00  0.00     0.036 A
HETATM   12  C12 UNL     1      -5.296  -2.102  -3.267  1.00  0.00     0.061 A
HETATM   13  C13 UNL     1      -5.188  -2.120  -1.897  1.00  0.00     0.078 A
HETATM   14  O2  UNL     1      -3.996  -1.644  -1.615  1.00  0.00    -0.242 OA
HETATM   15  N2  UNL     1      -3.333  -1.323  -2.669  1.00  0.00    -0.265 N
ATOM     16  H2  UNL     1      -2.390  -0.936  -2.689  1.00  0.00     0.194 HD
BRANCH  13  17
HETATM   17  C14 UNL     1      -6.155  -2.565  -0.856  1.00  0.00     0.072 C
BRANCH  17  18
HETATM   18  C15 UNL     1      -7.382  -1.698  -0.868  1.00  0.00    -0.008 C
HETATM   19  C16 UNL     1      -8.646  -2.511  -1.211  1.00  0.00     0.005 C
HETATM   20  C17 UNL     1      -9.697  -1.410  -0.967  1.00  0.00     0.000 C
HETATM   21  C18 UNL     1      -9.185  -0.665   0.243  1.00  0.00     0.000 C
HETATM   22  C19 UNL     1      -7.792  -1.231   0.529  1.00  0.00     0.005 C
ENDBRANCH  17  18
ENDBRANCH  13  17
ENDBRANCH  10  11
ENDBRANCH   5  10
BRANCH   1  23
HETATM   23  C4  UNL     1      -2.252  -4.311  -8.681  1.00  0.00     0.146 A
HETATM   24  S1  UNL     1      -1.094  -5.539  -9.072  1.00  0.00    -0.064 SA
HETATM   25  C3  UNL     1      -2.110  -6.563  -9.990  1.00  0.00     0.077 A
HETATM   26  C2  UNL     1      -3.303  -5.888  -9.939  1.00  0.00     0.014 A
HETATM   27  C1  UNL     1      -4.518  -6.466 -10.640  1.00  0.00     0.068 C
HETATM   28  N3  UNL     1      -3.333  -4.779  -9.284  1.00  0.00    -0.340 N
ATOM     29  H3  UNL     1      -4.205  -4.252  -9.230  1.00  0.00     0.167 HD
ENDBRANCH   1  23
TORSDOF 7
ENDMDL