MODEL 1
REMARK VINA RESULT: -8.015467154      0.000      0.000
REMARK  7 active torsions:
REMARK  status: ('A' for Active; 'I' for Inactive)
REMARK    1  A    between atoms: C2_2  and  C4_4
REMARK    2  A    between atoms: C4_4  and  C5_5
REMARK    3  A    between atoms: C5_5  and  N1_6
REMARK    4  A    between atoms: C8_9  and  C9_10
REMARK    5  A    between atoms: C10_13  and  C11_14
REMARK    6  A    between atoms: C11_14  and  S1_15
REMARK    7  A    between atoms: S1_15  and  C12_16
ROOT
HETATM    1  C9  UNL     1      -1.561  -1.656  -1.887  1.00  0.00     0.152 A
HETATM    2  N2  UNL     1      -2.359  -1.652  -2.997  1.00  0.00    -0.326 N
ATOM      3  H2  UNL     1      -2.115  -2.057  -3.900  1.00  0.00     0.169 HD
HETATM    4  C10 UNL     1      -3.519  -1.029  -2.707  1.00  0.00     0.113 A
HETATM    5  N4  UNL     1      -3.415  -0.661  -1.429  1.00  0.00    -0.246 N
ATOM      6  H4  UNL     1      -4.130  -0.162  -0.898  1.00  0.00     0.196 HD
HETATM    7  O2  UNL     1      -2.249  -1.042  -0.964  1.00  0.00    -0.222 OA
ENDROOT
BRANCH   1   8
HETATM    8  C8  UNL     1      -0.190  -2.261  -1.825  1.00  0.00     0.065 C
HETATM    9  C7  UNL     1       0.377  -2.362  -0.465  1.00  0.00     0.028 C
HETATM   10  C6  UNL     1       0.707  -3.785  -0.025  1.00  0.00     0.095 C
HETATM   11  N1  UNL     1       1.399  -4.537  -1.008  1.00  0.00    -0.293 NA
HETATM   12  C18 UNL     1       0.985  -4.316  -2.358  1.00  0.00     0.095 C
HETATM   13  C17 UNL     1      -0.398  -3.694  -2.358  1.00  0.00     0.028 C
BRANCH  11  14
HETATM   14  C5  UNL     1       1.392  -5.923  -0.718  1.00  0.00     0.059 C
BRANCH  14  15
HETATM   15  C4  UNL     1       1.541  -6.331   0.658  1.00  0.00     0.013 C
BRANCH  15  16
HETATM   16  C2  UNL     1       2.247  -7.285   1.180  1.00  0.00    -0.087 C
HETATM   17  C1  UNL     1       2.677  -8.402   0.210  1.00  0.00     0.043 C
HETATM   18  C3  UNL     1       2.772  -7.410   2.551  1.00  0.00     0.043 C
ENDBRANCH  15  16
ENDBRANCH  14  15
ENDBRANCH  11  14
ENDBRANCH   1   8
BRANCH   4  19
HETATM   19  C11 UNL     1      -4.658  -0.849  -3.640  1.00  0.00     0.160 C
BRANCH  19  20
HETATM   20  S1  UNL     1      -5.848  -2.222  -3.526  1.00  0.00    -0.095 SA
BRANCH  20  21
HETATM   21  C12 UNL     1      -7.325  -2.019  -2.893  1.00  0.00     0.143 A
HETATM   22  O1  UNL     1      -8.458  -1.834  -3.492  1.00  0.00    -0.230 OA
HETATM   23  N3  UNL     1      -9.432  -1.708  -2.650  1.00  0.00    -0.264 N
HETATM   24  C13 UNL     1      -8.959  -1.811  -1.390  1.00  0.00     0.038 A
ATOM     25  H3  UNL     1     -10.409  -1.555  -2.900  1.00  0.00     0.194 HD
HETATM   26  C14 UNL     1      -9.712  -1.727  -0.099  1.00  0.00     0.071 C
HETATM   27  C15 UNL     1      -7.606  -2.011  -1.541  1.00  0.00     0.005 A
HETATM   28  C16 UNL     1      -6.628  -2.186  -0.437  1.00  0.00     0.054 C
ENDBRANCH  20  21
ENDBRANCH  19  20
ENDBRANCH   4  19
TORSDOF 7
ENDMDL