MODEL 2
REMARK VINA RESULT: -6.875403267      0.742      1.187
REMARK  7 active torsions:
REMARK  status: ('A' for Active; 'I' for Inactive)
REMARK    1  A    between atoms: C2_2  and  C3_3
REMARK    2  A    between atoms: C3_3  and  C4_4
REMARK    3  A    between atoms: C3_3  and  C6_6
REMARK    4  A    between atoms: C6_6  and  N1_7
REMARK    5  A    between atoms: N1_7  and  O1_9
REMARK    6  A    between atoms: C8_14  and  N3_15
REMARK    7  A    between atoms: C15_25  and  C16_26
ROOT
HETATM    1  C6  UNL     1      -4.130  -1.531  -2.347  1.00  0.00     0.064 C
HETATM    2  C7  UNL     1      -2.773  -1.650  -2.772  1.00  0.00     0.082 A
HETATM    3  N2  UNL     1      -1.758  -1.542  -1.842  1.00  0.00    -0.189 N
ATOM      4  H2  UNL     1      -2.019  -1.282  -0.891  1.00  0.00     0.184 HD
HETATM    5  C8  UNL     1      -0.475  -1.747  -2.085  1.00  0.00     0.681 A
HETATM    6  N5  UNL     1      -0.120  -2.085  -3.330  1.00  0.00    -0.194 N
ATOM      7  H5  UNL     1       0.868  -2.247  -3.526  1.00  0.00     0.184 HD
HETATM    8  C15 UNL     1      -1.019  -2.226  -4.355  1.00  0.00     0.042 A
HETATM    9  C20 UNL     1      -2.360  -1.994  -4.026  1.00  0.00    -0.009 A
HETATM   10  C21 UNL     1      -3.317  -2.077  -5.123  1.00  0.00     0.052 C
ENDROOT
BRANCH   1  11
HETATM   11  C3  UNL     1      -5.406  -2.026  -2.848  1.00  0.00     0.039 C
BRANCH  11  12
HETATM   12  C2  UNL     1      -6.249  -2.493  -1.651  1.00  0.00     0.006 C
HETATM   13  C1  UNL     1      -7.721  -2.187  -1.863  1.00  0.00     0.006 C
ENDBRANCH  11  12
BRANCH  11  14
HETATM   14  C4  UNL     1      -6.188  -0.924  -3.593  1.00  0.00     0.006 C
HETATM   15  C5  UNL     1      -6.418  -1.277  -5.015  1.00  0.00     0.006 C
ENDBRANCH  11  14
ENDBRANCH   1  11
BRANCH   1  16
HETATM   16  N1  UNL     1      -4.294  -0.976  -1.130  1.00  0.00    -0.271 N
ATOM     17  H1  UNL     1      -4.832  -1.468  -0.417  1.00  0.00     0.194 HD
BRANCH  16  18
HETATM   18  O1  UNL     1      -3.756   0.213  -0.851  1.00  0.00    -0.290 OA
ATOM     19  H1  UNL     1      -3.677   0.506   0.049  1.00  0.00     0.244 HD
ENDBRANCH  16  18
ENDBRANCH   1  16
BRANCH   5  20
HETATM   20  N3  UNL     1       0.547  -1.625  -1.086  1.00  0.00    -0.209 N
HETATM   21  C9  UNL     1       1.977  -1.445  -1.357  1.00  0.00     0.177 C
HETATM   22  C10 UNL     1       2.588  -1.504   0.028  1.00  0.00     0.243 C
HETATM   23  C11 UNL     1       1.500  -0.708   0.782  1.00  0.00     0.065 C
HETATM   24  N4  UNL     1       2.383  -2.814   0.571  1.00  0.00     0.092 N
HETATM   25  C12 UNL     1       0.371  -1.656   0.340  1.00  0.00     0.132 C
HETATM   26  C13 UNL     1       0.959  -2.962   0.822  1.00  0.00     0.298 C
HETATM   27  C14 UNL     1       3.103  -3.011   1.790  1.00  0.00     0.310 C
ENDBRANCH   5  20
BRANCH   8  28
HETATM   28  C16 UNL     1      -0.532  -2.545  -5.687  1.00  0.00    -0.008 C
HETATM   29  C17 UNL     1       1.026  -2.626  -5.546  1.00  0.00     0.021 C
HETATM   30  C18 UNL     1      -0.701  -1.338  -6.594  1.00  0.00     0.021 C
HETATM   31  C19 UNL     1      -0.905  -3.849  -6.277  1.00  0.00     0.021 C
ENDBRANCH   8  28
TORSDOF 7
ENDMDL