MODEL 3
REMARK VINA RESULT: -6.645984432      3.554      6.078
REMARK  9 active torsions:
REMARK  status: ('A' for Active; 'I' for Inactive)
REMARK    1  A    between atoms: C2_2  and  C3_3
REMARK    2  A    between atoms: C3_3  and  C4_4
REMARK    3  A    between atoms: C5_7  and  C6_8
REMARK    4  A    between atoms: C6_8  and  C12_17
REMARK    5  A    between atoms: N2_9  and  C7_11
REMARK    6  A    between atoms: C7_11  and  C8_12
REMARK    7  A    between atoms: C12_17  and  O3_19
REMARK    8  A    between atoms: C14_21  and  O4_22
REMARK    9  A    between atoms: N3_24  and  C15_25
ROOT
HETATM    1  C4  UNL     1      -1.317  -2.358  -4.857  1.00  0.00     0.086 A
HETATM    2  N1  UNL     1      -1.619  -1.937  -3.615  1.00  0.00    -0.340 N
ATOM      3  H1  UNL     1      -0.936  -1.644  -2.917  1.00  0.00     0.167 HD
HETATM    4  C5  UNL     1      -2.956  -1.957  -3.425  1.00  0.00     0.118 A
HETATM    5  C14 UNL     1      -3.470  -2.416  -4.626  1.00  0.00     0.174 A
HETATM    6  N3  UNL     1      -2.469  -2.658  -5.493  1.00  0.00    -0.310 N
ENDROOT
BRANCH   4   7
HETATM    7  C6  UNL     1      -3.697  -1.574  -2.208  1.00  0.00     0.139 C
HETATM    8  N2  UNL     1      -4.835  -2.073  -2.036  1.00  0.00    -0.360 N
ATOM      9  H2  UNL     1      -5.112  -2.704  -2.788  1.00  0.00     0.165 HD
BRANCH   8  10
HETATM   10  C7  UNL     1      -5.811  -1.951  -1.030  1.00  0.00     0.093 C
BRANCH  10  11
HETATM   11  C8  UNL     1      -7.162  -2.301  -1.603  1.00  0.00     0.159 C
HETATM   12  C9  UNL     1      -7.338  -1.681  -2.997  1.00  0.00     0.039 C
HETATM   13  C10 UNL     1      -8.847  -1.912  -3.157  1.00  0.00     0.029 C
HETATM   14  C11 UNL     1      -9.308  -1.805  -1.730  1.00  0.00     0.168 C
HETATM   15  O1  UNL     1      -8.203  -1.713  -0.924  1.00  0.00    -0.381 OA
ENDBRANCH  10  11
ENDBRANCH   8  10
BRANCH   7  16
HETATM   16  C12 UNL     1      -3.071  -0.654  -1.297  1.00  0.00     0.312 C
HETATM   17  O2  UNL     1      -1.922  -0.864  -0.851  1.00  0.00    -0.258 OA
BRANCH  16  18
HETATM   18  O3  UNL     1      -3.677   0.518  -0.850  1.00  0.00    -0.321 OA
HETATM   19  C13 UNL     1      -2.979   1.475  -0.062  1.00  0.00     0.213 C
ENDBRANCH  16  18
ENDBRANCH   7  16
ENDBRANCH   4   7
BRANCH   5  20
HETATM   20  O4  UNL     1      -4.832  -2.592  -4.872  1.00  0.00    -0.344 OA
ATOM     21  H4  UNL     1      -5.179  -3.186  -5.526  1.00  0.00     0.219 HD
ENDBRANCH   5  20
BRANCH   1  22
HETATM   22  C3  UNL     1       0.025  -2.482  -5.451  1.00  0.00     0.076 C
BRANCH  22  23
HETATM   23  C2  UNL     1       0.401  -1.296  -6.314  1.00  0.00     0.003 C
HETATM   24  C1  UNL     1       0.542  -1.663  -7.758  1.00  0.00     0.005 C
ENDBRANCH  22  23
ENDBRANCH   1  22
BRANCH   6  25
HETATM   25  C15 UNL     1      -2.598  -3.142  -6.833  1.00  0.00     0.093 C
HETATM   26  C16 UNL     1      -3.679  -2.403  -7.609  1.00  0.00     0.026 C
HETATM   27  C17 UNL     1      -3.920  -3.147  -8.888  1.00  0.00     0.002 C
HETATM   28  C18 UNL     1      -2.781  -4.067  -9.263  1.00  0.00     0.000 C
HETATM   29  C19 UNL     1      -2.508  -5.123  -8.243  1.00  0.00     0.002 C
HETATM   30  C20 UNL     1      -2.970  -4.617  -6.894  1.00  0.00     0.026 C
ENDBRANCH   6  25
TORSDOF 9
ENDMDL