MODEL 2
REMARK VINA RESULT: -6.464962931      2.006      3.158
REMARK  8 active torsions:
REMARK  status: ('A' for Active; 'I' for Inactive)
REMARK    1  A    between atoms: C2_2  and  C3_3
REMARK    2  A    between atoms: C3_3  and  C4_4
REMARK    3  A    between atoms: C4_4  and  C6_6
REMARK    4  A    between atoms: C6_6  and  C8_8
REMARK    5  A    between atoms: C8_8  and  S1_9
REMARK    6  A    between atoms: S1_9  and  C9_10
REMARK       I    between atoms: N2_15  and  C11_17
REMARK    7  A    between atoms: C11_17  and  O2_19
REMARK    8  A    between atoms: O2_19  and  C12_20
ROOT
HETATM    1  C9  UNL     1      -3.550  -1.989  -4.398  1.00  0.00     0.099 A
HETATM    2  N1  UNL     1      -3.581  -2.612  -5.579  1.00  0.00    -0.318 N
ATOM      3  H1  UNL     1      -4.345  -2.628  -6.254  1.00  0.00     0.175 HD
HETATM    4  S2  UNL     1      -2.094  -3.356  -5.704  1.00  0.00     0.006 SA
HETATM    5  C10 UNL     1      -1.402  -2.855  -4.193  1.00  0.00     0.118 A
HETATM    6  N2  UNL     1      -0.240  -3.159  -3.770  1.00  0.00    -0.294 N
ATOM      7  H2  UNL     1       0.259  -3.748  -4.437  1.00  0.00     0.172 HD
HETATM    8  C11 UNL     1       0.512  -2.906  -2.666  1.00  0.00     0.366 C
HETATM    9  O1  UNL     1       1.420  -1.997  -2.742  1.00  0.00    -0.238 OA
HETATM   10  C16 UNL     1      -2.416  -2.106  -3.661  1.00  0.00     0.113 A
HETATM   11  C17 UNL     1      -2.237  -1.470  -2.331  1.00  0.00     0.105 C
HETATM   12  N3  UNL     1      -2.077  -0.966  -1.299  1.00  0.00    -0.191 NA
ENDROOT
BRANCH   1  13
HETATM   13  S1  UNL     1      -4.979  -1.007  -3.795  1.00  0.00    -0.110 SA
BRANCH  13  14
HETATM   14  C8  UNL     1      -6.376  -2.065  -3.538  1.00  0.00     0.089 C
BRANCH  14  15
HETATM   15  C6  UNL     1      -7.437  -1.597  -2.615  1.00  0.00     0.019 C
HETATM   16  C7  UNL     1      -8.774  -1.994  -3.285  1.00  0.00     0.015 C
BRANCH  15  17
HETATM   17  C4  UNL     1      -7.417  -2.110  -1.244  1.00  0.00    -0.081 C
HETATM   18  C5  UNL     1      -6.374  -2.695  -0.723  1.00  0.00     0.015 C
BRANCH  17  19
HETATM   19  C3  UNL     1      -8.644  -1.951  -0.409  1.00  0.00     0.060 C
BRANCH  19  20
HETATM   20  C2  UNL     1      -8.621  -0.658   0.319  1.00  0.00    -0.033 C
HETATM   21  C1  UNL     1      -8.003  -0.581   1.480  1.00  0.00     0.007 C
ENDBRANCH  19  20
ENDBRANCH  17  19
ENDBRANCH  15  17
ENDBRANCH  14  15
ENDBRANCH  13  14
ENDBRANCH   1  13
BRANCH   8  22
HETATM   22  O2  UNL     1       0.439  -3.515  -1.430  1.00  0.00    -0.294 OA
BRANCH  22  23
HETATM   23  C12 UNL     1       1.253  -4.509  -0.917  1.00  0.00     0.061 C
HETATM   24  C13 UNL     1       1.203  -4.359   0.613  1.00  0.00     0.046 C
HETATM   25  C14 UNL     1       2.690  -4.486  -1.318  1.00  0.00     0.046 C
HETATM   26  C15 UNL     1       0.737  -5.908  -1.218  1.00  0.00     0.046 C
ENDBRANCH  22  23
ENDBRANCH   8  22
TORSDOF 8
ENDMDL