MODEL 2
REMARK VINA RESULT: -6.830589790      2.152      3.757
REMARK  7 active torsions:
REMARK  status: ('A' for Active; 'I' for Inactive)
REMARK    1  A    between atoms: C2_2  and  N1_3
REMARK    2  A    between atoms: C7_8  and  N2_9
REMARK    3  A    between atoms: C10_12  and  O1_13
REMARK    4  A    between atoms: C10_12  and  C11_15
REMARK    5  A    between atoms: C11_15  and  C12_16
REMARK    6  A    between atoms: C12_16  and  C13_17
REMARK    7  A    between atoms: C18_24  and  S1_25
ROOT
HETATM    1  N1  UNL     1      -0.059  -2.167  -2.718  1.00  0.00    -0.337 N
HETATM    2  C3  UNL     1      -0.673  -1.691  -1.623  1.00  0.00     0.010 A
HETATM    3  C4  UNL     1      -0.056  -1.314  -0.302  1.00  0.00     0.068 C
HETATM    4  C5  UNL     1      -2.010  -1.609  -1.944  1.00  0.00     0.044 A
HETATM    5  C6  UNL     1      -2.229  -2.034  -3.242  1.00  0.00     0.054 A
HETATM    6  C7  UNL     1      -3.333  -2.160  -4.052  1.00  0.00     0.119 A
HETATM    7  N3  UNL     1      -3.157  -2.626  -5.297  1.00  0.00    -0.322 N
ATOM      8  H3  UNL     1      -3.964  -2.726  -5.912  1.00  0.00     0.169 HD
HETATM    9  C18 UNL     1      -1.927  -2.966  -5.756  1.00  0.00     0.147 A
HETATM   10  N4  UNL     1      -0.857  -2.840  -4.958  1.00  0.00    -0.322 N
ATOM     11  H4  UNL     1       0.060  -3.101  -5.319  1.00  0.00     0.169 HD
HETATM   12  C20 UNL     1      -0.951  -2.383  -3.700  1.00  0.00     0.123 A
ENDROOT
BRANCH   6  13
HETATM   13  N2  UNL     1      -4.615  -1.807  -3.583  1.00  0.00    -0.366 N
HETATM   14  C8  UNL     1      -4.861  -1.540  -2.201  1.00  0.00     0.127 C
HETATM   15  C9  UNL     1      -6.131  -2.093  -1.649  1.00  0.00     0.057 C
HETATM   16  C10 UNL     1      -7.288  -1.967  -2.590  1.00  0.00     0.061 C
HETATM   17  C16 UNL     1      -6.939  -1.155  -3.821  1.00  0.00     0.057 C
HETATM   18  C17 UNL     1      -5.736  -1.704  -4.522  1.00  0.00     0.127 C
BRANCH  16  19
HETATM   19  O1  UNL     1      -7.663  -3.252  -3.049  1.00  0.00    -0.390 OA
ATOM     20  H1  UNL     1      -7.850  -3.213  -3.980  1.00  0.00     0.210 HD
ENDBRANCH  16  19
BRANCH  16  21
HETATM   21  C11 UNL     1      -8.493  -1.368  -1.902  1.00  0.00     0.038 C
BRANCH  21  22
HETATM   22  C12 UNL     1      -8.863  -2.236  -0.741  1.00  0.00     0.007 C
BRANCH  22  23
HETATM   23  C13 UNL     1      -9.373  -1.440   0.440  1.00  0.00    -0.023 C
HETATM   24  C14 UNL     1      -8.285  -0.558   1.035  1.00  0.00     0.009 C
HETATM   25  C15 UNL     1     -10.439  -0.494  -0.113  1.00  0.00     0.009 C
ENDBRANCH  22  23
ENDBRANCH  21  22
ENDBRANCH  16  21
ENDBRANCH   6  13
BRANCH   9  26
HETATM   26  S1  UNL     1      -1.695  -3.581  -7.404  1.00  0.00    -0.098 SA
HETATM   27  C19 UNL     1      -3.238  -3.296  -8.326  1.00  0.00     0.099 C
ENDBRANCH   9  26
BRANCH   1  28
HETATM   28  C2  UNL     1       1.377  -2.402  -2.793  1.00  0.00     0.126 C
HETATM   29  C1  UNL     1       1.745  -3.795  -2.402  1.00  0.00     0.027 C
ENDBRANCH   1  28
TORSDOF 7
ENDMDL