MODEL 3
REMARK VINA RESULT: -7.710276939      4.625      8.077
REMARK  6 active torsions:
REMARK  status: ('A' for Active; 'I' for Inactive)
REMARK    1  A    between atoms: C1_4  and  C2_5
REMARK    2  A    between atoms: C7_10  and  C8_11
REMARK    3  A    between atoms: N2_13  and  C10_14
REMARK    4  A    between atoms: C15_19  and  C16_20
REMARK    5  A    between atoms: C16_20  and  C17_21
REMARK    6  A    between atoms: C17_21  and  N3_22
ROOT
HETATM    1  C8  UNL     1      -5.347  -2.206  -4.303  1.00  0.00     0.077 A
HETATM    2  C9  UNL     1      -4.151  -2.928  -4.404  1.00  0.00     0.144 A
HETATM    3  N2  UNL     1      -3.667  -2.851  -5.660  1.00  0.00    -0.282 N
HETATM    4  N4  UNL     1      -4.525  -2.109  -6.324  1.00  0.00    -0.240 N
ATOM      5  H4  UNL     1      -4.441  -1.862  -7.310  1.00  0.00     0.208 HD
HETATM    6  N5  UNL     1      -5.513  -1.728  -5.531  1.00  0.00    -0.284 N
ATOM      7  H5  UNL     1      -6.298  -1.146  -5.824  1.00  0.00     0.188 HD
ENDROOT
BRANCH   3   8
HETATM    8  C10 UNL     1      -2.463  -3.452  -6.172  1.00  0.00     0.113 C
HETATM    9  C11 UNL     1      -1.439  -3.688  -5.075  1.00  0.00     0.028 C
HETATM   10  C12 UNL     1      -0.344  -2.651  -5.077  1.00  0.00     0.002 C
HETATM   11  C13 UNL     1      -0.933  -1.304  -5.388  1.00  0.00     0.001 C
HETATM   12  C14 UNL     1      -1.492  -1.232  -6.795  1.00  0.00     0.007 C
HETATM   13  C15 UNL     1      -1.775  -2.645  -7.233  1.00  0.00     0.012 C
BRANCH  13  14
HETATM   14  C16 UNL     1      -2.422  -2.697  -8.579  1.00  0.00     0.037 C
BRANCH  14  15
HETATM   15  C17 UNL     1      -2.184  -3.988  -9.320  1.00  0.00     0.273 C
BRANCH  15  16
HETATM   16  N3  UNL     1      -3.282  -4.313 -10.214  1.00  0.00     0.092 N
HETATM   17  C18 UNL     1      -3.232  -5.669 -10.661  1.00  0.00     0.298 C
HETATM   18  C19 UNL     1      -4.393  -6.537 -10.453  1.00  0.00     0.198 C
HETATM   19  O1  UNL     1      -5.393  -6.086  -9.626  1.00  0.00    -0.388 OA
HETATM   20  C20 UNL     1      -5.686  -4.772 -10.065  1.00  0.00     0.198 C
HETATM   21  C21 UNL     1      -4.516  -3.941  -9.578  1.00  0.00     0.298 C
ENDBRANCH  15  16
ENDBRANCH  14  15
ENDBRANCH  13  14
ENDBRANCH   3   8
BRANCH   1  22
HETATM   22  C7  UNL     1      -6.149  -2.074  -3.089  1.00  0.00     0.005 A
HETATM   23  C2  UNL     1      -5.597  -1.864  -1.857  1.00  0.00    -0.009 A
HETATM   24  C3  UNL     1      -6.486  -1.751  -0.759  1.00  0.00     0.014 A
HETATM   25  C4  UNL     1      -7.846  -1.847  -0.904  1.00  0.00     0.001 A
HETATM   26  C5  UNL     1      -8.378  -2.059  -2.152  1.00  0.00     0.001 A
HETATM   27  C6  UNL     1      -7.544  -2.169  -3.214  1.00  0.00     0.014 A
BRANCH  23  28
HETATM   28  C1  UNL     1      -4.183  -1.754  -1.622  1.00  0.00     0.092 C
HETATM   29  N1  UNL     1      -3.700  -0.592  -1.255  1.00  0.00    -0.407 N
ATOM     30  H12 UNL     1      -4.326   0.205  -1.143  1.00  0.00     0.155 HD
ATOM     31  H11 UNL     1      -2.697  -0.514  -1.088  1.00  0.00     0.155 HD
ENDBRANCH  23  28
ENDBRANCH   1  22
TORSDOF 6
ENDMDL