MODEL 2
REMARK VINA RESULT: -7.657677415      2.227      2.853
REMARK  6 active torsions:
REMARK  status: ('A' for Active; 'I' for Inactive)
REMARK    1  A    between atoms: C1_2  and  C2_4
REMARK    2  A    between atoms: C2_4  and  C3_5
REMARK    3  A    between atoms: C6_12  and  C7_13
REMARK    4  A    between atoms: C7_13  and  C8_14
REMARK    5  A    between atoms: C8_14  and  C9_15
REMARK    6  A    between atoms: C10_16  and  C11_17
ROOT
HETATM    1  C9  UNL     1      -3.770  -1.380  -2.973  1.00  0.00     0.041 A
HETATM    2  C10 UNL     1      -5.079  -1.808  -3.019  1.00  0.00     0.038 A
HETATM    3  N3  UNL     1      -5.197  -2.382  -4.267  1.00  0.00    -0.338 N
ATOM      4  H3  UNL     1      -6.040  -2.812  -4.649  1.00  0.00     0.168 HD
HETATM    5  C17 UNL     1      -4.015  -2.280  -4.897  1.00  0.00     0.155 A
HETATM    6  S1  UNL     1      -3.184  -2.634  -6.347  1.00  0.00    -0.064 SA
HETATM    7  C18 UNL     1      -1.669  -1.973  -5.930  1.00  0.00     0.071 A
HETATM    8  C19 UNL     1      -1.899  -1.509  -4.668  1.00  0.00     0.106 A
HETATM    9  N4  UNL     1      -3.109  -1.675  -4.152  1.00  0.00    -0.304 N
ENDROOT
BRANCH   1  10
HETATM   10  C8  UNL     1      -3.184  -0.741  -1.781  1.00  0.00     0.066 C
BRANCH  10  11
HETATM   11  C7  UNL     1      -1.918  -1.333  -1.251  1.00  0.00     0.065 C
BRANCH  11  12
HETATM   12  C6  UNL     1      -0.962  -0.336  -0.680  1.00  0.00     0.032 A
HETATM   13  C3  UNL     1       0.306  -0.657  -0.341  1.00  0.00     0.042 A
HETATM   14  N1  UNL     1       1.069   0.330   0.225  1.00  0.00    -0.366 N
HETATM   15  C4  UNL     1       0.574   1.558   0.430  1.00  0.00     0.105 A
ATOM     16  H1  UNL     1       2.031   0.127   0.495  1.00  0.00     0.165 HD
HETATM   17  C5  UNL     1      -0.723   1.859   0.072  1.00  0.00     0.105 A
HETATM   18  N2  UNL     1      -1.464   0.904  -0.476  1.00  0.00    -0.366 N
ATOM     19  H2  UNL     1      -2.426   1.107  -0.747  1.00  0.00     0.165 HD
BRANCH  13  20
HETATM   20  C2  UNL     1       0.942  -1.985  -0.599  1.00  0.00     0.172 C
BRANCH  20  21
HETATM   21  C1  UNL     1       0.995  -2.692   0.701  1.00  0.00     0.178 C
HETATM   22  O1  UNL     1       0.883  -3.924   0.760  1.00  0.00    -0.648 OA
HETATM   23  O2  UNL     1       1.173  -1.952   1.849  1.00  0.00    -0.648 OA
ENDBRANCH  20  21
ENDBRANCH  13  20
ENDBRANCH  11  12
ENDBRANCH  10  11
ENDBRANCH   1  10
BRANCH   2  24
HETATM   24  C11 UNL     1      -6.236  -1.733  -2.174  1.00  0.00     0.037 C
HETATM   25  C12 UNL     1      -7.484  -1.885  -3.072  1.00  0.00     0.011 C
HETATM   26  C13 UNL     1      -8.746  -2.062  -2.341  1.00  0.00     0.001 C
HETATM   27  C14 UNL     1      -8.731  -1.326  -1.038  1.00  0.00     0.000 C
HETATM   28  C15 UNL     1      -7.629  -1.833  -0.194  1.00  0.00     0.001 C
HETATM   29  C16 UNL     1      -6.498  -2.517  -1.008  1.00  0.00     0.011 C
ENDBRANCH   2  24
TORSDOF 6
ENDMDL