MODEL 5
REMARK VINA RESULT: -7.175289344      5.866      8.721
REMARK  6 active torsions:
REMARK  status: ('A' for Active; 'I' for Inactive)
REMARK    1  A    between atoms: C2_2  and  C3_3
REMARK    2  A    between atoms: N1_7  and  C7_8
REMARK    3  A    between atoms: C7_8  and  C8_9
REMARK    4  A    between atoms: C8_9  and  C9_10
REMARK    5  A    between atoms: C9_10  and  C10_11
REMARK    6  A    between atoms: C10_11  and  C11_12
ROOT
HETATM    1  C11 UNL     1       0.508  -2.097   0.319  1.00  0.00     0.053 C
HETATM    2  C12 UNL     1       1.066  -3.411   0.152  1.00  0.00     0.058 A
HETATM    3  C13 UNL     1       1.926  -3.931   1.098  1.00  0.00     0.098 A
HETATM    4  C14 UNL     1       2.479  -5.189   1.027  1.00  0.00     0.002 A
HETATM    5  C15 UNL     1       3.411  -5.702   2.092  1.00  0.00     0.054 C
HETATM    6  C16 UNL     1       2.134  -5.960  -0.068  1.00  0.00     0.062 A
HETATM    7  C17 UNL     1       2.727  -7.328  -0.156  1.00  0.00     0.077 C
HETATM    8  O1  UNL     1       1.319  -5.468  -0.963  1.00  0.00    -0.279 OA
HETATM    9  C18 UNL     1       0.788  -4.272  -0.905  1.00  0.00     0.297 A
HETATM   10  O2  UNL     1       0.015  -3.898  -1.813  1.00  0.00    -0.259 OA
HETATM   11  O3  UNL     1       2.299  -3.158   2.236  1.00  0.00    -0.295 OA
HETATM   12  C19 UNL     1       1.765  -1.880   2.342  1.00  0.00     0.136 C
HETATM   13  N2  UNL     1       1.489  -1.354   3.436  1.00  0.00    -0.382 N
ATOM     14  H21 UNL     1       1.097  -0.416   3.514  1.00  0.00     0.158 HD
ATOM     15  H22 UNL     1       1.632  -1.812   4.337  1.00  0.00     0.158 HD
HETATM   16  C20 UNL     1       1.558  -1.216   1.037  1.00  0.00     0.176 C
HETATM   17  C21 UNL     1       2.875  -1.353   0.351  1.00  0.00     0.073 C
HETATM   18  N3  UNL     1       3.912  -1.452  -0.178  1.00  0.00    -0.196 NA
ENDROOT
BRANCH   1  19
HETATM   19  C10 UNL     1       0.011  -1.315  -0.804  1.00  0.00     0.011 C
BRANCH  19  20
HETATM   20  C9  UNL     1      -1.299  -0.645  -0.753  1.00  0.00     0.006 C
BRANCH  20  21
HETATM   21  C8  UNL     1      -2.186  -1.348  -1.804  1.00  0.00     0.044 C
BRANCH  21  22
HETATM   22  C7  UNL     1      -3.580  -0.777  -1.677  1.00  0.00     0.063 C
BRANCH  22  23
HETATM   23  N1  UNL     1      -4.428  -1.018  -2.742  1.00  0.00    -0.369 N
HETATM   24  C3  UNL     1      -5.790  -1.285  -2.595  1.00  0.00     0.088 C
HETATM   25  C4  UNL     1      -6.315  -1.655  -3.979  1.00  0.00     0.031 C
HETATM   26  C5  UNL     1      -5.104  -1.943  -4.791  1.00  0.00     0.046 C
HETATM   27  C6  UNL     1      -3.952  -1.429  -3.997  1.00  0.00     0.063 C
BRANCH  24  28
HETATM   28  C2  UNL     1      -6.121  -2.426  -1.651  1.00  0.00     0.021 C
HETATM   29  C1  UNL     1      -7.095  -2.048  -0.583  1.00  0.00     0.007 C
ENDBRANCH  24  28
ENDBRANCH  22  23
ENDBRANCH  21  22
ENDBRANCH  20  21
ENDBRANCH  19  20
ENDBRANCH   1  19
TORSDOF 6
ENDMDL