MODEL 1
REMARK VINA RESULT: -4.089087235      0.000      0.000
REMARK  0 active torsions:
REMARK  status: ('A' for Active; 'I' for Inactive)
ROOT
HETATM    1  C1  UNL     1      -1.502 -13.677 -14.499  1.00  0.00     0.030 C
HETATM    2  C2  UNL     1      -1.148 -14.385 -15.782  1.00  0.00     0.104 C
HETATM    3  C3  UNL     1      -2.023 -13.881 -16.938  1.00  0.00     0.051 C
HETATM    4  C4  UNL     1      -1.880 -15.095 -17.861  1.00  0.00     0.197 C
HETATM    5  O1  UNL     1      -1.449 -16.137 -17.082  1.00  0.00    -0.286 OA
HETATM    6  N1  UNL     1      -1.578 -15.774 -15.785  1.00  0.00    -0.097 NA
ENDROOT
TORSDOF 0
ENDMDL