MODEL 5
REMARK VINA RESULT: -4.373956676      2.749      3.533
REMARK  2 active torsions:
REMARK  status: ('A' for Active; 'I' for Inactive)
REMARK    1  A    between atoms: O1_1  and  N1_3
REMARK    2  A    between atoms: N1_3  and  C1_5
ROOT
HETATM    1  C1  UNL     1      -1.115 -13.962 -15.089  1.00  0.00     0.304 C
HETATM    2  C2  UNL     1      -0.667 -15.214 -15.818  1.00  0.00     0.058 C
HETATM    3  C3  UNL     1      -1.687 -15.352 -16.955  1.00  0.00     0.031 C
HETATM    4  C4  UNL     1      -1.989 -13.863 -17.174  1.00  0.00     0.235 C
HETATM    5  N2  UNL     1      -2.302 -13.488 -15.784  1.00  0.00    -0.053 N
ATOM      6  H21 UNL     1      -2.531 -12.504 -15.637  1.00  0.00     0.279 HD
ATOM      7  H22 UNL     1      -3.188 -13.842 -15.425  1.00  0.00     0.279 HD
ENDROOT
BRANCH   1   8
HETATM    8  N1  UNL     1      -1.371 -14.277 -13.720  1.00  0.00    -0.274 N
ATOM      9  H1  UNL     1      -1.547 -13.513 -13.068  1.00  0.00     0.189 HD
BRANCH   8  10
HETATM   10  O1  UNL     1      -1.388 -15.387 -13.309  1.00  0.00    -0.293 OA
ATOM     11  H1  UNL     1      -2.028 -15.694 -12.677  1.00  0.00     0.244 HD
ENDBRANCH   8  10
ENDBRANCH   1   8
TORSDOF 2
ENDMDL