MODEL 5
REMARK VINA RESULT: -3.781035828      1.165      1.390
REMARK  1 active torsions:
REMARK  status: ('A' for Active; 'I' for Inactive)
REMARK    1  A    between atoms: O1_1  and  C1_3
ROOT
HETATM    1  C1  UNL     1      -2.190 -14.551 -16.927  1.00  0.00     0.256 C
HETATM    2  C2  UNL     1      -1.456 -13.567 -16.026  1.00  0.00     0.062 C
HETATM    3  C3  UNL     1      -0.985 -14.564 -14.958  1.00  0.00     0.031 C
HETATM    4  C4  UNL     1      -0.533 -15.673 -15.919  1.00  0.00     0.171 C
HETATM    5  O2  UNL     1      -1.521 -15.744 -16.866  1.00  0.00    -0.361 OA
ENDROOT
BRANCH   1   6
HETATM    6  O1  UNL     1      -2.107 -14.042 -18.219  1.00  0.00    -0.371 OA
ATOM      7  H1  UNL     1      -2.747 -13.343 -18.275  1.00  0.00     0.212 HD
ENDBRANCH   1   6
TORSDOF 1
ENDMDL