MODEL 3
REMARK VINA RESULT: -3.783802660      2.064      2.902
REMARK  1 active torsions:
REMARK  status: ('A' for Active; 'I' for Inactive)
REMARK    1  A    between atoms: C2_3  and  O1_4
ROOT
HETATM    1  N1  UNL     1      -0.262 -11.304 -16.226  1.00  0.00    -0.194 NA
HETATM    2  C1  UNL     1      -0.824 -12.259 -15.854  1.00  0.00     0.097 C
HETATM    3  C2  UNL     1      -1.519 -13.471 -15.394  1.00  0.00     0.146 A
HETATM    4  C3  UNL     1      -2.410 -14.091 -16.439  1.00  0.00     0.053 A
HETATM    5  C4  UNL     1      -1.447 -15.247 -16.583  1.00  0.00     0.008 A
HETATM    6  C5  UNL     1      -0.625 -14.678 -15.446  1.00  0.00     0.053 A
ENDROOT
BRANCH   3   7
HETATM    7  O1  UNL     1      -2.138 -13.307 -14.134  1.00  0.00    -0.376 OA
ATOM      8  H1  UNL     1      -2.890 -13.875 -14.013  1.00  0.00     0.211 HD
ENDBRANCH   3   7
TORSDOF 1
ENDMDL