MODEL 2
REMARK VINA RESULT: -3.574097391      1.625      2.491
REMARK  0 active torsions:
REMARK  status: ('A' for Active; 'I' for Inactive)
ROOT
HETATM    1  C1  UNL     1      -1.859 -13.050 -15.581  1.00  0.00     0.038 C
HETATM    2  C2  UNL     1      -2.303 -13.105 -17.006  1.00  0.00     0.234 C
HETATM    3  N1  UNL     1      -2.728 -14.370 -17.472  1.00  0.00    -0.067 N
ATOM      4  H11 UNL     1      -3.256 -14.278 -18.340  1.00  0.00     0.278 HD
ATOM      5  H12 UNL     1      -3.458 -14.753 -16.871  1.00  0.00     0.278 HD
HETATM    6  C3  UNL     1      -1.644 -15.308 -17.627  1.00  0.00     0.305 C
HETATM    7  S1  UNL     1      -1.116 -15.691 -15.910  1.00  0.00    -0.142 SA
HETATM    8  C4  UNL     1      -0.839 -14.051 -15.186  1.00  0.00     0.077 C
ENDROOT
TORSDOF 0
ENDMDL