MODEL 4
REMARK VINA RESULT: -3.239814573      1.656      1.656
REMARK  0 active torsions:
REMARK  status: ('A' for Active; 'I' for Inactive)
ROOT
HETATM    1  C1  UNL     1      -1.847 -14.874 -16.642  1.00  0.00     0.028 C
HETATM    2  C2  UNL     1      -0.743 -15.379 -15.851  1.00  0.00     0.123 C
HETATM    3  N1  UNL     1      -0.425 -14.585 -14.734  1.00  0.00    -0.179 NA
HETATM    4  S1  UNL     1      -1.536 -13.193 -14.753  1.00  0.00    -0.066 SA
HETATM    5  C3  UNL     1      -2.007 -13.404 -16.515  1.00  0.00     0.094 C
ENDROOT
TORSDOF 0
ENDMDL