MODEL 3
REMARK VINA RESULT: -3.788071224      1.355      1.534
REMARK  0 active torsions:
REMARK  status: ('A' for Active; 'I' for Inactive)
ROOT
HETATM    1  N1  UNL     1       0.787 -11.864 -13.742  1.00  0.00    -0.195 NA
HETATM    2  C1  UNL     1      -0.244 -12.324 -13.984  1.00  0.00     0.092 C
HETATM    3  C2  UNL     1      -1.560 -12.934 -14.291  1.00  0.00     0.291 C
HETATM    4  C3  UNL     1      -1.898 -12.752 -15.729  1.00  0.00     0.048 C
HETATM    5  C4  UNL     1      -1.771 -13.958 -16.581  1.00  0.00     0.005 C
HETATM    6  C5  UNL     1      -0.898 -15.037 -16.087  1.00  0.00     0.027 C
HETATM    7  C6  UNL     1      -0.763 -15.178 -14.620  1.00  0.00     0.234 C
HETATM    8  N2  UNL     1      -1.565 -14.286 -13.839  1.00  0.00    -0.059 N
ATOM      9  H21 UNL     1      -2.522 -14.635 -13.773  1.00  0.00     0.278 HD
ATOM     10  H22 UNL     1      -1.293 -14.333 -12.857  1.00  0.00     0.278 HD
ENDROOT
TORSDOF 0
ENDMDL