MODEL 3
REMARK VINA RESULT: -4.159960710      1.394      2.289
REMARK  0 active torsions:
REMARK  status: ('A' for Active; 'I' for Inactive)
ROOT
HETATM    1  C1  UNL     1      -1.407 -15.747 -15.914  1.00  0.00     0.054 C
HETATM    2  C2  UNL     1      -1.585 -15.279 -17.321  1.00  0.00     0.234 C
HETATM    3  N1  UNL     1      -2.727 -14.369 -17.356  1.00  0.00    -0.073 N
ATOM      4  H11 UNL     1      -3.506 -14.665 -16.766  1.00  0.00     0.277 HD
ATOM      5  H12 UNL     1      -3.236 -14.382 -18.239  1.00  0.00     0.277 HD
HETATM    6  C3  UNL     1      -2.186 -13.053 -17.004  1.00  0.00     0.258 C
HETATM    7  C4  UNL     1      -1.943 -13.126 -15.491  1.00  0.00     0.195 C
HETATM    8  O1  UNL     1      -0.667 -13.552 -15.225  1.00  0.00    -0.389 OA
HETATM    9  C5  UNL     1      -0.503 -14.895 -15.086  1.00  0.00     0.169 C
ENDROOT
TORSDOF 0
ENDMDL