MODEL 5
REMARK VINA RESULT: -3.377765187      1.778      3.248
REMARK  1 active torsions:
REMARK  status: ('A' for Active; 'I' for Inactive)
REMARK    1  A    between atoms: C2_2  and  C3_3
ROOT
HETATM    1  C3  UNL     1      -1.754 -13.522 -16.248  1.00  0.00     0.172 A
HETATM    2  O1  UNL     1      -2.322 -12.858 -15.062  1.00  0.00    -0.372 OA
HETATM    3  C4  UNL     1      -0.888 -12.792 -15.345  1.00  0.00     0.151 A
HETATM    4  C5  UNL     1      -0.490 -11.353 -15.542  1.00  0.00     0.042 C
ENDROOT
BRANCH   1   5
HETATM    5  C2  UNL     1      -1.775 -14.982 -16.220  1.00  0.00    -0.003 C
HETATM    6  C1  UNL     1      -0.651 -15.684 -16.171  1.00  0.00     0.009 C
ENDBRANCH   1   5
TORSDOF 1
ENDMDL