MODEL 4
REMARK VINA RESULT: -3.690529685      2.027      2.523
REMARK  1 active torsions:
REMARK  status: ('A' for Active; 'I' for Inactive)
REMARK    1  A    between atoms: C4_5  and  O2_6
ROOT
HETATM    1  C1  UNL     1      -0.632 -15.654 -16.213  1.00  0.00     0.017 C
HETATM    2  C2  UNL     1      -1.712 -14.776 -15.675  1.00  0.00     0.060 C
HETATM    3  C3  UNL     1      -1.887 -13.436 -16.315  1.00  0.00     0.180 C
HETATM    4  O1  UNL     1      -2.197 -12.908 -15.049  1.00  0.00    -0.360 OA
HETATM    5  C4  UNL     1      -1.364 -13.898 -14.514  1.00  0.00     0.262 C
ENDROOT
BRANCH   5   6
HETATM    6  O2  UNL     1      -0.020 -13.523 -14.451  1.00  0.00    -0.371 OA
ATOM      7  H2  UNL     1       0.586 -14.159 -14.811  1.00  0.00     0.212 HD
ENDBRANCH   5   6
TORSDOF 1
ENDMDL