MODEL 3
REMARK VINA RESULT: -5.213423299      0.775      2.658
REMARK  2 active torsions:
REMARK  status: ('A' for Active; 'I' for Inactive)
REMARK    1  A    between atoms: N1_1  and  N2_4
REMARK    2  A    between atoms: N2_4  and  C1_5
ROOT
HETATM    1  C1  UNL     1      -1.876 -14.483 -17.161  1.00  0.00     0.156 A
HETATM    2  C2  UNL     1      -2.543 -13.354 -16.523  1.00  0.00     0.049 A
HETATM    3  C3  UNL     1      -2.343 -13.038 -15.255  1.00  0.00     0.003 A
HETATM    4  C4  UNL     1      -1.437 -13.807 -14.410  1.00  0.00     0.002 A
HETATM    5  C5  UNL     1      -0.801 -14.842 -14.921  1.00  0.00     0.032 A
HETATM    6  C6  UNL     1      -0.965 -15.252 -16.302  1.00  0.00     0.069 A
HETATM    7  N3  UNL     1      -0.331 -16.279 -16.802  1.00  0.00    -0.396 N
ATOM      8  H31 UNL     1       0.302 -16.813 -16.205  1.00  0.00     0.156 HD
ATOM      9  H32 UNL     1      -0.447 -16.567 -17.773  1.00  0.00     0.156 HD
ENDROOT
BRANCH   1  10
HETATM   10  N2  UNL     1      -2.048 -14.802 -18.359  1.00  0.00    -0.331 NA
BRANCH  10  11
HETATM   11  N1  UNL     1      -2.392 -14.860 -19.559  1.00  0.00    -0.280 N
ATOM     12  H12 UNL     1      -1.484 -15.224 -19.851  1.00  0.00     0.191 HD
ATOM     13  H11 UNL     1      -2.891 -14.816 -20.448  1.00  0.00     0.191 HD
ENDBRANCH  10  11
ENDBRANCH   1  10
TORSDOF 2
ENDMDL