MODEL 2
REMARK VINA RESULT: -4.014811333      0.091      1.298
REMARK  3 active torsions:
REMARK  status: ('A' for Active; 'I' for Inactive)
REMARK    1  A    between atoms: N1_2  and  C4_5
REMARK    2  A    between atoms: C5_6  and  C6_7
REMARK    3  A    between atoms: C7_8  and  C8_9
ROOT
HETATM    1  C4  UNL     1      -1.508 -11.942 -14.129  1.00  0.00     0.129 C
HETATM    2  C5  UNL     1      -1.595 -12.705 -15.062  1.00  0.00     0.016 C
ENDROOT
BRANCH   2   3
HETATM    3  C6  UNL     1      -1.680 -13.590 -16.168  1.00  0.00    -0.007 C
HETATM    4  C7  UNL     1      -1.737 -14.335 -17.117  1.00  0.00    -0.048 C
BRANCH   4   5
HETATM    5  C8  UNL     1      -1.789 -15.218 -18.264  1.00  0.00     0.147 C
HETATM    6  N2  UNL     1      -1.704 -16.507 -18.139  1.00  0.00    -0.401 N
ATOM      7  H22 UNL     1      -1.598 -16.892 -17.201  1.00  0.00     0.156 HD
ATOM      8  H21 UNL     1      -1.741 -17.129 -18.947  1.00  0.00     0.156 HD
ENDBRANCH   4   5
ENDBRANCH   2   3
BRANCH   1   9
HETATM    9  N1  UNL     1      -1.396 -11.032 -13.050  1.00  0.00    -0.013 N
HETATM   10  C1  UNL     1      -1.933 -11.692 -11.866  1.00  0.00     0.289 C
HETATM   11  C2  UNL     1      -2.159  -9.867 -13.391  1.00  0.00     0.289 C
HETATM   12  C3  UNL     1      -0.011 -10.719 -12.776  1.00  0.00     0.289 C
ENDBRANCH   1   9
TORSDOF 3
ENDMDL