MODEL 5
REMARK VINA RESULT: -4.848157282      2.010      2.294
REMARK  4 active torsions:
REMARK  status: ('A' for Active; 'I' for Inactive)
REMARK    1  A    between atoms: C2_2  and  N1_3
REMARK    2  A    between atoms: N1_3  and  C3_4
REMARK    3  A    between atoms: C3_4  and  N2_5
REMARK    4  A    between atoms: N2_5  and  C4_7
ROOT
HETATM    1  C4  UNL     1      -2.075 -14.161 -17.458  1.00  0.00     0.122 A
HETATM    2  C5  UNL     1      -1.191 -14.919 -16.720  1.00  0.00     0.068 A
HETATM    3  C6  UNL     1      -1.167 -16.177 -17.315  1.00  0.00     0.111 A
HETATM    4  N3  UNL     1      -2.017 -16.147 -18.372  1.00  0.00    -0.310 N
ATOM      5  H3  UNL     1      -2.211 -16.926 -19.001  1.00  0.00     0.186 HD
HETATM    6  N4  UNL     1      -2.562 -14.924 -18.452  1.00  0.00    -0.286 N
ATOM      7  H4  UNL     1      -3.238 -14.621 -19.153  1.00  0.00     0.188 HD
ENDROOT
BRANCH   1   8
HETATM    8  N2  UNL     1      -2.372 -12.928 -17.221  1.00  0.00    -0.327 N
ATOM      9  H2  UNL     1      -2.022 -12.196 -17.839  1.00  0.00     0.169 HD
BRANCH   8  10
HETATM   10  C3  UNL     1      -3.182 -12.581 -16.105  1.00  0.00     0.275 C
BRANCH  10  11
HETATM   11  N1  UNL     1      -2.694 -12.355 -14.974  1.00  0.00    -0.414 NA
BRANCH  11  12
HETATM   12  C2  UNL     1      -2.087 -12.153 -13.903  1.00  0.00     0.173 C
HETATM   13  C1  UNL     1      -1.747 -11.576 -12.770  1.00  0.00     0.045 C
ENDBRANCH  11  12
ENDBRANCH  10  11
ENDBRANCH   8  10
ENDBRANCH   1   8
TORSDOF 4
ENDMDL