MODEL 3
REMARK VINA RESULT: -5.080774987      1.130      1.364
REMARK  1 active torsions:
REMARK  status: ('A' for Active; 'I' for Inactive)
REMARK    1  A    between atoms: C4_4  and  C5_5
ROOT
HETATM    1  C1  UNL     1      -1.740 -10.976 -11.537  1.00  0.00     0.027 C
HETATM    2  C2  UNL     1      -1.752 -11.675 -12.517  1.00  0.00    -0.026 C
HETATM    3  C3  UNL     1      -1.790 -12.495 -13.674  1.00  0.00    -0.009 C
HETATM    4  C4  UNL     1      -1.839 -13.193 -14.672  1.00  0.00    -0.033 C
ENDROOT
BRANCH   4   5
HETATM    5  C5  UNL     1      -1.922 -14.011 -15.851  1.00  0.00     0.107 A
HETATM    6  C6  UNL     1      -2.801 -13.810 -16.913  1.00  0.00     0.132 A
HETATM    7  N1  UNL     1      -2.536 -14.801 -17.788  1.00  0.00    -0.316 N
HETATM    8  C7  UNL     1      -1.548 -15.574 -17.298  1.00  0.00     0.325 A
ATOM      9  H1  UNL     1      -3.010 -14.944 -18.680  1.00  0.00     0.170 HD
HETATM   10  O1  UNL     1      -1.082 -16.580 -17.892  1.00  0.00    -0.247 OA
HETATM   11  N2  UNL     1      -1.161 -15.092 -16.099  1.00  0.00    -0.300 N
ATOM     12  H2  UNL     1      -0.433 -15.475 -15.496  1.00  0.00     0.171 HD
ENDBRANCH   4   5
TORSDOF 1
ENDMDL