MODEL 2
REMARK VINA RESULT: -4.749855536      1.422      1.483
REMARK  1 active torsions:
REMARK  status: ('A' for Active; 'I' for Inactive)
REMARK    1  A    between atoms: C3_3  and  C4_4
ROOT
HETATM    1  C1  UNL     1      -0.299  -9.850 -16.052  1.00  0.00     0.017 C
HETATM    2  C2  UNL     1      -1.223 -10.620 -16.150  1.00  0.00    -0.087 C
HETATM    3  C3  UNL     1      -2.295 -11.544 -16.269  1.00  0.00     0.093 C
ENDROOT
BRANCH   3   4
HETATM    4  C4  UNL     1      -2.070 -12.827 -16.453  1.00  0.00     0.046 A
HETATM    5  N1  UNL     1      -2.041 -13.437 -17.662  1.00  0.00    -0.356 N
HETATM    6  C5  UNL     1      -1.786 -14.736 -17.467  1.00  0.00     0.023 A
ATOM      7  H1  UNL     1      -2.189 -12.986 -18.565  1.00  0.00     0.166 HD
HETATM    8  C6  UNL     1      -1.683 -15.655 -18.425  1.00  0.00     0.043 C
HETATM    9  C7  UNL     1      -1.641 -14.992 -16.099  1.00  0.00     0.037 A
HETATM   10  C8  UNL     1      -1.822 -13.779 -15.473  1.00  0.00    -0.033 A
HETATM   11  C9  UNL     1      -1.769 -13.506 -14.015  1.00  0.00     0.050 C
ENDBRANCH   3   4
TORSDOF 1
ENDMDL