MODEL 1
REMARK VINA RESULT: -4.935433345      0.000      0.000
REMARK  1 active torsions:
REMARK  status: ('A' for Active; 'I' for Inactive)
REMARK    1  A    between atoms: N1_2  and  C3_4
ROOT
HETATM    1  C3  UNL     1      -2.077 -14.498 -16.637  1.00  0.00     0.118 A
HETATM    2  C4  UNL     1      -1.223 -15.481 -17.122  1.00  0.00     0.068 A
HETATM    3  C5  UNL     1      -1.681 -15.781 -18.377  1.00  0.00     0.111 A
HETATM    4  N2  UNL     1      -2.761 -15.025 -18.660  1.00  0.00    -0.310 N
ATOM      5  H2  UNL     1      -3.305 -15.037 -19.523  1.00  0.00     0.186 HD
HETATM    6  N3  UNL     1      -2.979 -14.265 -17.604  1.00  0.00    -0.286 N
ATOM      7  H3  UNL     1      -3.737 -13.586 -17.530  1.00  0.00     0.188 HD
ENDROOT
BRANCH   1   8
HETATM    8  N1  UNL     1      -1.985 -13.936 -15.464  1.00  0.00    -0.375 N
HETATM    9  C1  UNL     1      -1.284 -14.690 -14.430  1.00  0.00     0.150 C
HETATM   10  C2  UNL     1      -2.533 -12.648 -15.173  1.00  0.00     0.150 C
ENDBRANCH   1   8
TORSDOF 1
ENDMDL