MODEL 3
REMARK VINA RESULT: -4.295615216      1.832      1.832
REMARK  5 active torsions:
REMARK  status: ('A' for Active; 'I' for Inactive)
REMARK    1  A    between atoms: C2_2  and  C3_3
REMARK    2  A    between atoms: C4_4  and  C5_5
REMARK    3  A    between atoms: C6_6  and  C7_7
REMARK    4  A    between atoms: C7_7  and  N1_8
REMARK    5  A    between atoms: N1_8  and  O1_10
ROOT
HETATM    1  C5  UNL     1      -0.741 -12.367 -15.976  1.00  0.00    -0.014 C
HETATM    2  C6  UNL     1      -1.532 -13.213 -16.317  1.00  0.00    -0.076 C
ENDROOT
BRANCH   2   3
HETATM    3  C7  UNL     1      -2.487 -14.268 -16.728  1.00  0.00     0.214 C
BRANCH   3   4
HETATM    4  N1  UNL     1      -2.133 -14.701 -18.049  1.00  0.00    -0.193 NA
HETATM    5  C8  UNL     1      -1.373 -15.920 -17.956  1.00  0.00     0.144 C
BRANCH   4   6
HETATM    6  O1  UNL     1      -3.235 -14.856 -18.841  1.00  0.00    -0.313 OA
ATOM      7  H1  UNL     1      -3.137 -14.403 -19.670  1.00  0.00     0.237 HD
ENDBRANCH   4   6
ENDBRANCH   3   4
ENDBRANCH   2   3
BRANCH   1   8
HETATM    8  C4  UNL     1       0.208 -11.390 -15.565  1.00  0.00    -0.015 C
HETATM    9  C3  UNL     1       1.027 -10.570 -15.228  1.00  0.00    -0.093 C
BRANCH   9  10
HETATM   10  C2  UNL     1       2.043  -9.578 -14.828  1.00  0.00     0.090 C
HETATM   11  C1  UNL     1       2.839 -10.056 -13.641  1.00  0.00     0.018 C
ENDBRANCH   9  10
ENDBRANCH   1   8
TORSDOF 5
ENDMDL