MODEL 2
REMARK VINA RESULT: -4.877251976      2.562      4.522
REMARK  1 active torsions:
REMARK  status: ('A' for Active; 'I' for Inactive)
REMARK    1  A    between atoms: C6_6  and  C7_7
ROOT
HETATM    1  C7  UNL     1      -1.337 -14.783 -14.888  1.00  0.00     0.123 C
HETATM    2  C8  UNL     1      -1.344 -15.505 -16.118  1.00  0.00     0.090 C
HETATM    3  N1  UNL     1      -1.357 -16.122 -17.119  1.00  0.00    -0.192 NA
ENDROOT
BRANCH   1   4
HETATM    4  C6  UNL     1      -1.025 -13.515 -14.776  1.00  0.00     0.048 A
HETATM    5  C4  UNL     1      -1.784 -12.407 -15.096  1.00  0.00    -0.033 A
HETATM    6  C3  UNL     1      -0.987 -11.297 -14.785  1.00  0.00     0.037 A
HETATM    7  C5  UNL     1      -3.147 -12.360 -15.649  1.00  0.00     0.050 C
HETATM    8  C2  UNL     1       0.216 -11.736 -14.293  1.00  0.00     0.023 A
HETATM    9  C1  UNL     1       1.234 -10.978 -13.889  1.00  0.00     0.043 C
HETATM   10  N2  UNL     1       0.165 -13.076 -14.299  1.00  0.00    -0.356 N
ATOM     11  H2  UNL     1       0.921 -13.685 -13.985  1.00  0.00     0.166 HD
ENDBRANCH   1   4
TORSDOF 1
ENDMDL