MODEL 3
REMARK VINA RESULT: -5.295579558      2.239      2.517
REMARK  2 active torsions:
REMARK  status: ('A' for Active; 'I' for Inactive)
REMARK    1  A    between atoms: N1_1  and  N2_4
REMARK    2  A    between atoms: N2_4  and  C1_5
ROOT
HETATM    1  C1  UNL     1      -1.263 -14.984 -16.556  1.00  0.00     0.136 A
HETATM    2  C2  UNL     1      -0.544 -14.686 -15.381  1.00  0.00     0.180 A
HETATM    3  N3  UNL     1       0.062 -14.101 -14.333  1.00  0.00    -0.330 N
ATOM      4  H3  UNL     1       0.584 -14.597 -13.611  1.00  0.00     0.165 HD
HETATM    5  C3  UNL     1      -0.117 -12.769 -14.374  1.00  0.00     0.317 A
HETATM    6  O1  UNL     1       0.325 -11.914 -13.533  1.00  0.00    -0.247 OA
HETATM    7  N4  UNL     1      -0.850 -12.520 -15.474  1.00  0.00    -0.330 N
ATOM      8  H4  UNL     1      -1.144 -11.589 -15.768  1.00  0.00     0.165 HD
HETATM    9  C4  UNL     1      -1.145 -13.645 -16.133  1.00  0.00     0.180 A
ENDROOT
BRANCH   1  10
HETATM   10  N2  UNL     1      -1.695 -15.830 -17.379  1.00  0.00    -0.337 NA
BRANCH  10  11
HETATM   11  N1  UNL     1      -1.732 -16.617 -18.349  1.00  0.00    -0.280 N
ATOM     12  H12 UNL     1      -2.578 -16.237 -18.773  1.00  0.00     0.191 HD
ATOM     13  H11 UNL     1      -1.477 -17.374 -18.982  1.00  0.00     0.191 HD
ENDBRANCH  10  11
ENDBRANCH   1  10
TORSDOF 2
ENDMDL