MODEL 3
REMARK VINA RESULT: -5.706675247      2.633      3.333
REMARK  2 active torsions:
REMARK  status: ('A' for Active; 'I' for Inactive)
REMARK    1  A    between atoms: N2_4  and  N3_6
REMARK    2  A    between atoms: N3_6  and  C1_8
ROOT
HETATM    1  C1  UNL     1      -1.166 -14.984 -16.370  1.00  0.00     0.052 A
HETATM    2  C2  UNL     1      -1.755 -13.964 -17.084  1.00  0.00     0.048 A
HETATM    3  C3  UNL     1      -1.658 -12.643 -16.687  1.00  0.00     0.090 A
HETATM    4  N4  UNL     1      -0.962 -12.376 -15.565  1.00  0.00    -0.375 N
ATOM      5  H4  UNL     1      -0.884 -11.406 -15.262  1.00  0.00     0.164 HD
HETATM    6  C4  UNL     1      -0.366 -13.324 -14.827  1.00  0.00     0.090 A
HETATM    7  C5  UNL     1      -0.467 -14.645 -15.232  1.00  0.00     0.048 A
ENDROOT
BRANCH   1   8
HETATM    8  N3  UNL     1      -1.248 -16.221 -16.727  1.00  0.00    -0.287 N
ATOM      9  H3  UNL     1      -1.994 -16.805 -16.349  1.00  0.00     0.188 HD
BRANCH   8  10
HETATM   10  N2  UNL     1      -0.333 -16.772 -17.622  1.00  0.00    -0.249 N
HETATM   11  N1  UNL     1       0.724 -17.352 -17.242  1.00  0.00    -0.331 N
ATOM     12  H12 UNL     1       0.898 -17.411 -16.239  1.00  0.00     0.178 HD
ATOM     13  H11 UNL     1       1.394 -17.755 -17.896  1.00  0.00     0.178 HD
ATOM     14  H2  UNL     1      -0.522 -16.704 -18.622  1.00  0.00     0.207 HD
ENDBRANCH   8  10
ENDBRANCH   1   8
TORSDOF 2
ENDMDL