MODEL 1
REMARK VINA RESULT: -7.751667841      0.000      0.000
REMARK  16 active torsions:
REMARK  status: ('A' for Active; 'I' for Inactive)
REMARK    1  A    between atoms: C1_2  and  C2_4
REMARK    2  A    between atoms: C2_4  and  C3_5
REMARK    3  A    between atoms: C3_5  and  C4_6
REMARK    4  A    between atoms: C4_6  and  C5_7
REMARK    5  A    between atoms: C5_7  and  C6_8
REMARK    6  A    between atoms: C6_8  and  C7_9
REMARK    7  A    between atoms: C7_9  and  C8_10
REMARK    8  A    between atoms: C8_10  and  C9_11
REMARK    9  A    between atoms: C9_11  and  C10_12
REMARK   10  A    between atoms: C10_12  and  C11_13
REMARK   11  A    between atoms: C11_13  and  C12_14
REMARK   12  A    between atoms: C13_15  and  O3_16
REMARK   13  A    between atoms: C16_23  and  O4_24
REMARK   14  A    between atoms: C17_26  and  O5_27
REMARK   15  A    between atoms: C18_29  and  N2_30
REMARK       I    between atoms: N2_30  and  C19_32
REMARK   16  A    between atoms: C19_32  and  C20_34
ROOT
HETATM    1  C12 UNL     1      13.139  39.749  -9.325  1.00  0.00     0.050 C
HETATM    2  C13 UNL     1      12.293  38.577  -9.062  1.00  0.00     0.157 C
HETATM    3  C14 UNL     1      12.392  38.373  -7.542  1.00  0.00     0.240 C
HETATM    4  N1  UNL     1      13.629  38.972  -7.150  1.00  0.00    -0.059 N
ATOM      5  H11 UNL     1      14.443  38.363  -7.237  1.00  0.00     0.278 HD
ATOM      6  H12 UNL     1      13.725  39.132  -6.147  1.00  0.00     0.278 HD
HETATM    7  C15 UNL     1      13.684  40.160  -7.953  1.00  0.00     0.224 C
HETATM    8  C16 UNL     1      12.722  41.160  -7.324  1.00  0.00     0.180 C
HETATM    9  C17 UNL     1      11.329  40.624  -7.251  1.00  0.00     0.173 C
HETATM   10  C18 UNL     1      11.283  39.146  -6.858  1.00  0.00     0.149 C
ENDROOT
BRANCH   1  11
HETATM   11  C11 UNL     1      14.169  39.695 -10.363  1.00  0.00     0.009 C
BRANCH  11  12
HETATM   12  C10 UNL     1      15.465  40.355 -10.164  1.00  0.00     0.001 C
BRANCH  12  13
HETATM   13  C9  UNL     1      15.773  41.385 -11.258  1.00  0.00     0.000 C
BRANCH  13  14
HETATM   14  C8  UNL     1      16.357  40.761 -12.475  1.00  0.00     0.000 C
BRANCH  14  15
HETATM   15  C7  UNL     1      17.709  40.146 -12.276  1.00  0.00     0.000 C
BRANCH  15  16
HETATM   16  C6  UNL     1      17.950  39.014 -13.284  1.00  0.00     0.000 C
BRANCH  16  17
HETATM   17  C5  UNL     1      16.683  38.229 -13.430  1.00  0.00     0.000 C
BRANCH  17  18
HETATM   18  C4  UNL     1      16.751  36.870 -12.824  1.00  0.00     0.001 C
BRANCH  18  19
HETATM   19  C3  UNL     1      15.485  36.499 -12.131  1.00  0.00     0.010 C
BRANCH  19  20
HETATM   20  C2  UNL     1      14.239  37.005 -12.790  1.00  0.00     0.113 C
BRANCH  20  21
HETATM   21  C1  UNL     1      13.265  35.964 -13.130  1.00  0.00     0.172 C
HETATM   22  O1  UNL     1      12.658  35.397 -12.183  1.00  0.00    -0.648 OA
HETATM   23  O2  UNL     1      12.944  35.540 -14.410  1.00  0.00    -0.648 OA
ENDBRANCH  20  21
ENDBRANCH  19  20
ENDBRANCH  18  19
ENDBRANCH  17  18
ENDBRANCH  16  17
ENDBRANCH  15  16
ENDBRANCH  14  15
ENDBRANCH  13  14
ENDBRANCH  12  13
ENDBRANCH  11  12
ENDBRANCH   1  11
BRANCH   2  24
HETATM   24  O3  UNL     1      12.549  37.428  -9.754  1.00  0.00    -0.393 OA
ATOM     25  H3  UNL     1      12.900  37.502 -10.634  1.00  0.00     0.210 HD
ENDBRANCH   2  24
BRANCH   8  26
HETATM   26  O4  UNL     1      13.142  41.583  -6.090  1.00  0.00    -0.391 OA
ATOM     27  H4  UNL     1      12.419  41.844  -5.531  1.00  0.00     0.210 HD
ENDBRANCH   8  26
BRANCH  10  28
HETATM   28  N2  UNL     1      11.350  39.052  -5.431  1.00  0.00    -0.350 N
HETATM   29  C19 UNL     1      10.304  38.426  -4.709  1.00  0.00     0.256 C
HETATM   30  O6  UNL     1       9.326  37.959  -5.343  1.00  0.00    -0.271 OA
ATOM     31  H2  UNL     1      12.152  39.437  -4.932  1.00  0.00     0.163 HD
BRANCH  29  32
HETATM   32  C20 UNL     1      10.318  38.300  -3.226  1.00  0.00     0.345 C
HETATM   33  N3  UNL     1      11.480  38.879  -2.634  1.00  0.00    -0.055 N
HETATM   34  C21 UNL     1      11.144  39.122  -1.257  1.00  0.00     0.241 C
ATOM     35  H32 UNL     1      12.322  38.316  -2.755  1.00  0.00     0.278 HD
ATOM     36  H31 UNL     1      11.814  39.710  -3.123  1.00  0.00     0.278 HD
HETATM   37  C22 UNL     1       9.670  39.546  -1.308  1.00  0.00     0.108 C
HETATM   38  C23 UNL     1       9.185  38.974  -2.589  1.00  0.00     0.168 C
HETATM   39  O7  UNL     1       8.053  39.065  -3.001  1.00  0.00    -0.295 OA
ENDBRANCH  29  32
ENDBRANCH  10  28
BRANCH   9  40
HETATM   40  O5  UNL     1      10.607  41.399  -6.367  1.00  0.00    -0.391 OA
ATOM     41  H5  UNL     1      10.732  41.052  -5.490  1.00  0.00     0.210 HD
ENDBRANCH   9  40
TORSDOF 16
ENDMDL