MODEL 2
REMARK VINA RESULT: -6.776103737      4.510      9.455
REMARK  17 active torsions:
REMARK  status: ('A' for Active; 'I' for Inactive)
REMARK    1  A    between atoms: C2_2  and  C3_3
REMARK    2  A    between atoms: C3_3  and  C4_4
REMARK    3  A    between atoms: C4_4  and  C5_5
REMARK    4  A    between atoms: C5_5  and  C6_6
REMARK    5  A    between atoms: C6_6  and  C7_7
REMARK    6  A    between atoms: C7_7  and  C8_8
REMARK    7  A    between atoms: C8_8  and  C9_9
REMARK    8  A    between atoms: C9_9  and  C10_10
REMARK    9  A    between atoms: C10_10  and  C11_11
REMARK   10  A    between atoms: C11_11  and  N1_12
REMARK   11  A    between atoms: C12_16  and  O1_17
REMARK   12  A    between atoms: C15_24  and  O2_25
REMARK   13  A    between atoms: C16_27  and  O3_28
REMARK   14  A    between atoms: O3_28  and  C17_29
REMARK   15  A    between atoms: C20_35  and  C21_36
REMARK   16  A    between atoms: C21_36  and  C22_37
REMARK   17  A    between atoms: C23_40  and  O6_41
ROOT
HETATM    1  C11 UNL     1      15.362  38.015 -12.734  1.00  0.00     0.179 C
HETATM    2  C12 UNL     1      15.504  36.560 -12.503  1.00  0.00     0.189 C
HETATM    3  C13 UNL     1      14.270  35.737 -12.684  1.00  0.00     0.250 A
HETATM    4  N2  UNL     1      13.152  36.209 -13.440  1.00  0.00    -0.057 N
ATOM      5  H21 UNL     1      12.534  35.818 -14.151  1.00  0.00     0.278 HD
ATOM      6  H22 UNL     1      13.012  36.877 -14.197  1.00  0.00     0.278 HD
HETATM    7  C14 UNL     1      13.160  36.270 -11.990  1.00  0.00     0.250 A
HETATM    8  C15 UNL     1      13.275  37.620 -11.364  1.00  0.00     0.182 C
HETATM    9  C16 UNL     1      14.204  38.577 -11.994  1.00  0.00     0.192 C
ENDROOT
BRANCH   9  10
HETATM   10  O3  UNL     1      14.535  39.539 -11.049  1.00  0.00    -0.363 OA
BRANCH  10  11
HETATM   11  C17 UNL     1      13.747  40.648 -11.033  1.00  0.00     0.242 C
HETATM   12  C18 UNL     1      14.487  41.736 -11.718  1.00  0.00     0.249 C
HETATM   13  O4  UNL     1      14.205  42.235 -12.825  1.00  0.00    -0.271 OA
HETATM   14  N3  UNL     1      15.619  42.238 -11.024  1.00  0.00    -0.358 N
HETATM   15  C19 UNL     1      15.843  41.701  -9.701  1.00  0.00     0.130 C
ATOM     16  H3  UNL     1      16.238  42.937 -11.436  1.00  0.00     0.162 HD
HETATM   17  C20 UNL     1      14.535  41.831  -8.934  1.00  0.00     0.044 C
HETATM   18  C23 UNL     1      13.402  41.161  -9.654  1.00  0.00     0.162 C
BRANCH  17  19
HETATM   19  C21 UNL     1      14.312  43.306  -8.702  1.00  0.00     0.108 C
BRANCH  19  20
HETATM   20  C22 UNL     1      14.107  43.643  -7.279  1.00  0.00     0.231 C
HETATM   21  N4  UNL     1      13.795  44.995  -6.873  1.00  0.00    -0.062 NA
HETATM   22  O5  UNL     1      14.207  42.747  -6.416  1.00  0.00    -0.277 OA
ENDBRANCH  19  20
ENDBRANCH  17  19
BRANCH  18  23
HETATM   23  O6  UNL     1      12.819  40.173  -8.861  1.00  0.00    -0.392 OA
ATOM     24  H6  UNL     1      11.907  40.361  -8.673  1.00  0.00     0.210 HD
ENDBRANCH  18  23
ENDBRANCH  10  11
ENDBRANCH   9  10
BRANCH   1  25
HETATM   25  C10 UNL     1      15.252  38.417 -14.186  1.00  0.00     0.044 C
BRANCH  25  26
HETATM   26  C9  UNL     1      14.060  39.291 -14.463  1.00  0.00     0.003 C
BRANCH  26  27
HETATM   27  C8  UNL     1      14.091  39.857 -15.869  1.00  0.00     0.000 C
BRANCH  27  28
HETATM   28  C7  UNL     1      15.264  39.354 -16.642  1.00  0.00     0.000 C
BRANCH  28  29
HETATM   29  C6  UNL     1      14.914  38.909 -18.033  1.00  0.00     0.000 C
BRANCH  29  30
HETATM   30  C5  UNL     1      13.544  38.298 -18.137  1.00  0.00     0.000 C
BRANCH  30  31
HETATM   31  C4  UNL     1      13.564  36.818 -18.304  1.00  0.00     0.000 C
BRANCH  31  32
HETATM   32  C3  UNL     1      13.411  36.111 -16.998  1.00  0.00    -0.000 C
BRANCH  32  33
HETATM   33  C2  UNL     1      14.349  34.931 -16.903  1.00  0.00    -0.005 C
HETATM   34  C1  UNL     1      15.651  35.486 -16.303  1.00  0.00     0.005 C
ENDBRANCH  32  33
ENDBRANCH  31  32
ENDBRANCH  30  31
ENDBRANCH  29  30
ENDBRANCH  28  29
ENDBRANCH  27  28
ENDBRANCH  26  27
ENDBRANCH  25  26
ENDBRANCH   1  25
BRANCH   1  35
HETATM   35  N1  UNL     1      16.636  38.590 -12.291  1.00  0.00    -0.065 N
ATOM     36  H13 UNL     1      17.393  38.499 -12.969  1.00  0.00     0.275 HD
ATOM     37  H12 UNL     1      16.641  39.609 -12.252  1.00  0.00     0.275 HD
ATOM     38  H11 UNL     1      16.821  38.139 -11.396  1.00  0.00     0.275 HD
ENDBRANCH   1  35
BRANCH   8  39
HETATM   39  O2  UNL     1      13.540  37.432 -10.011  1.00  0.00    -0.391 OA
ATOM     40  H2  UNL     1      13.315  38.238  -9.562  1.00  0.00     0.210 HD
ENDBRANCH   8  39
BRANCH   2  41
HETATM   41  O1  UNL     1      15.935  36.376 -11.189  1.00  0.00    -0.391 OA
ATOM     42  H1  UNL     1      15.215  36.000 -10.696  1.00  0.00     0.210 HD
ENDBRANCH   2  41
TORSDOF 17
ENDMDL