MODEL 2
REMARK VINA RESULT: -8.001753171      1.086      1.620
REMARK  15 active torsions:
REMARK  status: ('A' for Active; 'I' for Inactive)
REMARK    1  A    between atoms: N1_1  and  C1_4
REMARK    2  A    between atoms: C3_8  and  C4_9
REMARK    3  A    between atoms: C4_9  and  C5_10
REMARK    4  A    between atoms: C5_10  and  N3_11
REMARK    5  A    between atoms: N3_11  and  C6_13
REMARK    6  A    between atoms: C6_13  and  C7_14
REMARK       I    between atoms: C7_14  and  N4_16
REMARK    7  A    between atoms: N4_16  and  C8_18
REMARK    8  A    between atoms: C8_18  and  C9_19
REMARK    9  A    between atoms: C9_19  and  C10_20
REMARK   10  A    between atoms: C10_20  and  C11_21
REMARK   11  A    between atoms: C11_21  and  C12_22
REMARK   12  A    between atoms: C12_22  and  C13_23
REMARK   13  A    between atoms: C13_23  and  C14_24
REMARK   14  A    between atoms: C14_24  and  N5_25
REMARK   15  A    between atoms: C22_37  and  N7_38
ROOT
HETATM    1  C7  UNL     1      11.115  40.327  -5.889  1.00  0.00     0.256 C
HETATM    2  O1  UNL     1      10.379  41.289  -6.167  1.00  0.00    -0.267 OA
HETATM    3  N4  UNL     1      12.457  40.400  -6.362  1.00  0.00    -0.356 N
ATOM      4  H4  UNL     1      13.111  39.641  -6.168  1.00  0.00     0.162 HD
ENDROOT
BRANCH   1   5
HETATM    5  C6  UNL     1      10.728  39.131  -5.121  1.00  0.00     0.162 C
BRANCH   5   6
HETATM    6  N3  UNL     1      10.752  39.140  -3.739  1.00  0.00    -0.374 N
ATOM      7  H3  UNL     1      11.665  39.101  -3.285  1.00  0.00     0.164 HD
BRANCH   6   8
HETATM    8  C5  UNL     1       9.633  39.198  -2.921  1.00  0.00     0.065 C
BRANCH   8   9
HETATM    9  C4  UNL     1       8.480  39.981  -3.392  1.00  0.00     0.088 C
BRANCH   9  10
HETATM   10  C3  UNL     1       8.566  41.430  -3.000  1.00  0.00     0.007 A
HETATM   11  C2  UNL     1       9.062  41.691  -1.740  1.00  0.00     0.117 A
HETATM   12  N2  UNL     1       9.200  42.951  -1.300  1.00  0.00    -0.202 N
HETATM   13  C1  UNL     1       8.858  43.980  -2.082  1.00  0.00     0.677 A
ATOM     14  H2  UNL     1       9.569  43.124  -0.364  1.00  0.00     0.183 HD
HETATM   15  N8  UNL     1       8.376  43.715  -3.306  1.00  0.00    -0.177 N
HETATM   16  C22 UNL     1       8.213  42.468  -3.807  1.00  0.00     0.122 A
ATOM     17  H8  UNL     1       8.115  44.505  -3.897  1.00  0.00     0.185 HD
BRANCH  13  18
HETATM   18  N1  UNL     1       8.984  45.220  -1.673  1.00  0.00    -0.234 N
ATOM     19  H12 UNL     1       9.657  45.457  -0.943  1.00  0.00     0.174 HD
ATOM     20  H11 UNL     1       8.419  45.971  -2.071  1.00  0.00     0.174 HD
ENDBRANCH  13  18
BRANCH  16  21
HETATM   21  N7  UNL     1       7.736  42.254  -4.970  1.00  0.00    -0.385 N
ATOM     22  H72 UNL     1       8.011  42.803  -5.784  1.00  0.00     0.157 HD
ATOM     23  H71 UNL     1       7.042  41.523  -5.121  1.00  0.00     0.157 HD
ENDBRANCH  16  21
ENDBRANCH   9  10
ENDBRANCH   8   9
ENDBRANCH   6   8
ENDBRANCH   5   6
ENDBRANCH   1   5
BRANCH   3  24
HETATM   24  C8  UNL     1      12.890  41.551  -7.115  1.00  0.00     0.123 C
BRANCH  24  25
HETATM   25  C9  UNL     1      13.735  41.144  -8.308  1.00  0.00     0.020 C
BRANCH  25  26
HETATM   26  C10 UNL     1      12.896  40.348  -9.290  1.00  0.00     0.002 C
BRANCH  26  27
HETATM   27  C11 UNL     1      12.901  38.867  -8.995  1.00  0.00     0.000 C
BRANCH  27  28
HETATM   28  C12 UNL     1      14.265  38.249  -9.160  1.00  0.00     0.002 C
BRANCH  28  29
HETATM   29  C13 UNL     1      14.238  37.018 -10.026  1.00  0.00     0.020 C
BRANCH  29  30
HETATM   30  C14 UNL     1      13.098  37.041 -10.996  1.00  0.00     0.133 C
BRANCH  30  31
HETATM   31  N5  UNL     1      13.521  36.868 -12.362  1.00  0.00    -0.303 N
HETATM   32  C15 UNL     1      13.945  37.894 -13.110  1.00  0.00     0.028 A
HETATM   33  C16 UNL     1      14.348  37.694 -14.435  1.00  0.00     0.033 A
HETATM   34  C21 UNL     1      14.079  39.319 -12.773  1.00  0.00     0.058 C
HETATM   35  C17 UNL     1      14.298  36.419 -14.945  1.00  0.00     0.257 A
HETATM   36  C19 UNL     1      14.766  38.969 -15.042  1.00  0.00     0.046 C
HETATM   37  O2  UNL     1      14.670  36.252 -16.158  1.00  0.00    -0.267 OA
HETATM   38  N6  UNL     1      13.876  35.419 -14.187  1.00  0.00    -0.275 N
HETATM   39  C18 UNL     1      13.492  35.648 -12.908  1.00  0.00     0.329 A
ATOM     40  H6  UNL     1      13.839  34.474 -14.567  1.00  0.00     0.173 HD
HETATM   41  O3  UNL     1      13.103  34.653 -12.246  1.00  0.00    -0.246 OA
HETATM   42  C20 UNL     1      14.944  39.897 -13.874  1.00  0.00     0.011 C
ENDBRANCH  30  31
ENDBRANCH  29  30
ENDBRANCH  28  29
ENDBRANCH  27  28
ENDBRANCH  26  27
ENDBRANCH  25  26
ENDBRANCH  24  25
ENDBRANCH   3  24
TORSDOF 15
ENDMDL