MODEL 2
REMARK VINA RESULT: -7.662625902      2.884     10.938
REMARK  18 active torsions:
REMARK  status: ('A' for Active; 'I' for Inactive)
REMARK    1  A    between atoms: C3_3  and  C4_4
REMARK    2  A    between atoms: C4_4  and  C5_5
REMARK    3  A    between atoms: C4_4  and  N6_26
REMARK    4  A    between atoms: C5_5  and  C6_6
REMARK    5  A    between atoms: C6_6  and  C7_7
REMARK    6  A    between atoms: C7_7  and  C8_8
REMARK    7  A    between atoms: C8_8  and  N1_9
REMARK    8  A    between atoms: N1_9  and  C10_11
REMARK    9  A    between atoms: C10_11  and  C11_12
REMARK   10  A    between atoms: C13_16  and  N3_17
REMARK   11  A    between atoms: C14_22  and  N5_23
REMARK       I    between atoms: N6_26  and  C15_28
REMARK   12  A    between atoms: C15_28  and  C16_30
REMARK   13  A    between atoms: C16_30  and  N7_31
REMARK   14  A    between atoms: N7_31  and  C17_33
REMARK   15  A    between atoms: N9_39  and  C21_40
REMARK   16  A    between atoms: C21_40  and  C22_41
REMARK   17  A    between atoms: C22_41  and  C23_42
REMARK   18  A    between atoms: C23_42  and  N10_43
ROOT
HETATM    1  C1  UNL     1       8.884  35.390  -0.804  1.00  0.00     0.112 C
HETATM    2  C2  UNL     1       9.311  36.655  -1.424  1.00  0.00    -0.109 C
HETATM    3  C3  UNL     1       9.646  37.702  -1.916  1.00  0.00    -0.082 C
ENDROOT
BRANCH   3   4
HETATM    4  C4  UNL     1      10.068  39.003  -2.499  1.00  0.00     0.164 C
BRANCH   4   5
HETATM    5  C5  UNL     1      10.635  39.795  -1.363  1.00  0.00     0.038 C
BRANCH   5   6
HETATM    6  C6  UNL     1       9.613  40.753  -0.851  1.00  0.00     0.005 C
BRANCH   6   7
HETATM    7  C7  UNL     1       8.882  41.529  -1.890  1.00  0.00     0.030 C
BRANCH   7   8
HETATM    8  C8  UNL     1       8.131  42.725  -1.368  1.00  0.00     0.272 C
BRANCH   8   9
HETATM    9  N1  UNL     1       7.621  43.466  -2.502  1.00  0.00     0.088 N
HETATM   10  C9  UNL     1       6.605  44.410  -2.035  1.00  0.00     0.310 C
BRANCH   9  11
HETATM   11  C10 UNL     1       7.144  42.663  -3.577  1.00  0.00     0.315 C
BRANCH  11  12
HETATM   12  C11 UNL     1       7.379  43.243  -4.884  1.00  0.00     0.030 A
HETATM   13  C12 UNL     1       8.616  43.499  -5.391  1.00  0.00     0.118 A
HETATM   14  N2  UNL     1       8.792  44.085  -6.617  1.00  0.00    -0.201 N
HETATM   15  C13 UNL     1       7.738  44.428  -7.362  1.00  0.00     0.677 A
ATOM     16  H2  UNL     1       9.736  44.262  -6.963  1.00  0.00     0.183 HD
HETATM   17  N4  UNL     1       6.517  44.188  -6.888  1.00  0.00    -0.177 N
HETATM   18  C14 UNL     1       6.296  43.618  -5.697  1.00  0.00     0.124 A
ATOM     19  H4  UNL     1       5.713  44.450  -7.459  1.00  0.00     0.185 HD
BRANCH  15  20
HETATM   20  N3  UNL     1       7.934  44.984  -8.522  1.00  0.00    -0.234 N
ATOM     21  H32 UNL     1       8.828  45.399  -8.783  1.00  0.00     0.174 HD
ATOM     22  H31 UNL     1       7.170  45.008  -9.198  1.00  0.00     0.174 HD
ENDBRANCH  15  20
BRANCH  18  23
HETATM   23  N5  UNL     1       5.119  43.387  -5.241  1.00  0.00    -0.385 N
ATOM     24  H52 UNL     1       4.942  42.769  -4.449  1.00  0.00     0.157 HD
ATOM     25  H51 UNL     1       4.342  43.855  -5.708  1.00  0.00     0.157 HD
ENDBRANCH  18  23
ENDBRANCH  11  12
ENDBRANCH   9  11
ENDBRANCH   8   9
ENDBRANCH   7   8
ENDBRANCH   6   7
ENDBRANCH   5   6
ENDBRANCH   4   5
BRANCH   4  26
HETATM   26  N6  UNL     1      11.024  38.778  -3.555  1.00  0.00    -0.345 N
HETATM   27  C15 UNL     1      10.732  38.436  -4.887  1.00  0.00     0.236 C
HETATM   28  O1  UNL     1       9.548  38.282  -5.273  1.00  0.00    -0.272 OA
ATOM     29  H6  UNL     1      12.010  38.877  -3.311  1.00  0.00     0.163 HD
BRANCH  27  30
HETATM   30  C16 UNL     1      11.824  38.254  -5.859  1.00  0.00     0.240 C
BRANCH  30  31
HETATM   31  N7  UNL     1      11.354  38.459  -7.195  1.00  0.00    -0.218 N
ATOM     32  H7  UNL     1      10.595  37.884  -7.559  1.00  0.00     0.178 HD
BRANCH  31  33
HETATM   33  C17 UNL     1      11.948  39.476  -8.034  1.00  0.00     0.672 C
HETATM   34  N8  UNL     1      11.484  40.660  -8.132  1.00  0.00    -0.224 N
HETATM   35  C18 UNL     1      12.260  41.470  -9.032  1.00  0.00     0.163 C
ATOM     36  H8  UNL     1      10.661  40.994  -7.630  1.00  0.00     0.177 HD
HETATM   37  C19 UNL     1      13.552  40.694  -9.164  1.00  0.00     0.116 C
HETATM   38  C20 UNL     1      14.096  40.909 -10.529  1.00  0.00     0.034 C
HETATM   39  N9  UNL     1      13.108  39.352  -8.855  1.00  0.00    -0.212 N
BRANCH  39  40
HETATM   40  C21 UNL     1      13.687  38.111  -9.260  1.00  0.00     0.143 C
BRANCH  40  41
HETATM   41  C22 UNL     1      13.068  37.370 -10.378  1.00  0.00     0.048 C
BRANCH  41  42
HETATM   42  C23 UNL     1      14.015  36.690 -11.327  1.00  0.00     0.231 C
BRANCH  42  43
HETATM   43  N10 UNL     1      15.256  36.276 -10.788  1.00  0.00    -0.079 N
ATOM     44 3H10 UNL     1      15.193  36.235  -9.771  1.00  0.00     0.274 HD
ATOM     45 2H10 UNL     1      15.413  35.292 -11.003  1.00  0.00     0.274 HD
ATOM     46 1H10 UNL     1      16.073  36.823 -11.060  1.00  0.00     0.274 HD
ENDBRANCH  42  43
ENDBRANCH  41  42
ENDBRANCH  40  41
ENDBRANCH  39  40
ENDBRANCH  31  33
ENDBRANCH  30  31
ENDBRANCH  27  30
ENDBRANCH   4  26
ENDBRANCH   3   4
TORSDOF 18
ENDMDL