MODEL 5
REMARK VINA RESULT: -7.178865882      3.481      6.685
REMARK  17 active torsions:
REMARK  status: ('A' for Active; 'I' for Inactive)
REMARK    1  A    between atoms: C1_2  and  C2_3
REMARK       I    between atoms: C1_2  and  N3_17
REMARK    2  A    between atoms: C2_3  and  C3_4
REMARK    3  A    between atoms: C3_4  and  C4_5
REMARK    4  A    between atoms: C4_5  and  C5_6
REMARK    5  A    between atoms: C5_6  and  C6_7
REMARK    6  A    between atoms: C6_7  and  N1_8
REMARK       I    between atoms: N1_8  and  C7_10
REMARK       I    between atoms: C7_10  and  N2_12
REMARK    7  A    between atoms: N3_17  and  C12_19
REMARK    8  A    between atoms: C12_19  and  C13_20
REMARK    9  A    between atoms: C13_20  and  C14_21
REMARK   10  A    between atoms: C14_21  and  C15_22
REMARK   11  A    between atoms: C15_22  and  C16_23
REMARK   12  A    between atoms: C16_23  and  C17_24
REMARK   13  A    between atoms: C18_27  and  C19_28
REMARK   14  A    between atoms: C19_28  and  O3_29
REMARK   15  A    between atoms: C20_31  and  O4_32
REMARK   16  A    between atoms: C21_34  and  O5_35
REMARK   17  A    between atoms: C22_37  and  O6_38
ROOT
HETATM    1  C13 UNL     1      12.540  39.545  -7.457  1.00  0.00     0.020 C
ENDROOT
BRANCH   1   2
HETATM    2  C12 UNL     1      12.225  38.212  -6.826  1.00  0.00     0.122 C
BRANCH   2   3
HETATM    3  N3  UNL     1      11.959  38.361  -5.393  1.00  0.00    -0.361 N
HETATM    4  C1  UNL     1      10.635  38.361  -4.888  1.00  0.00     0.217 C
HETATM    5  O1  UNL     1       9.692  38.227  -5.701  1.00  0.00    -0.274 OA
ATOM      6  H3  UNL     1      12.741  38.467  -4.747  1.00  0.00     0.162 HD
BRANCH   4   7
HETATM    7  C2  UNL     1      10.425  38.517  -3.441  1.00  0.00     0.103 C
BRANCH   7   8
HETATM    8  C3  UNL     1       9.014  38.823  -3.058  1.00  0.00     0.009 C
BRANCH   8   9
HETATM    9  C4  UNL     1       8.717  40.248  -2.752  1.00  0.00     0.002 C
BRANCH   9  10
HETATM   10  C5  UNL     1       8.037  40.967  -3.895  1.00  0.00     0.020 C
BRANCH  10  11
HETATM   11  C6  UNL     1       8.522  42.368  -4.101  1.00  0.00     0.124 C
BRANCH  11  12
HETATM   12  N1  UNL     1       7.933  43.208  -3.079  1.00  0.00    -0.343 N
HETATM   13  C7  UNL     1       8.487  44.469  -2.720  1.00  0.00     0.318 C
HETATM   14  O2  UNL     1       9.526  44.857  -3.326  1.00  0.00    -0.247 OA
HETATM   15  N2  UNL     1       7.916  45.284  -1.727  1.00  0.00    -0.334 N
HETATM   16  C8  UNL     1       8.375  46.574  -1.275  1.00  0.00     0.127 C
HETATM   17  C11 UNL     1       6.715  44.913  -0.971  1.00  0.00     0.127 C
HETATM   18  C9  UNL     1       7.876  46.712   0.150  1.00  0.00     0.022 C
HETATM   19  C10 UNL     1       6.851  45.645   0.340  1.00  0.00     0.022 C
ATOM     20  H1  UNL     1       7.092  42.885  -2.601  1.00  0.00     0.164 HD
ENDBRANCH  11  12
ENDBRANCH  10  11
ENDBRANCH   9  10
ENDBRANCH   8   9
ENDBRANCH   7   8
ENDBRANCH   4   7
ENDBRANCH   2   3
ENDBRANCH   1   2
BRANCH   1  21
HETATM   21  C14 UNL     1      12.888  39.481  -8.902  1.00  0.00     0.002 C
BRANCH  21  22
HETATM   22  C15 UNL     1      14.308  39.106  -9.204  1.00  0.00     0.002 C
BRANCH  22  23
HETATM   23  C16 UNL     1      14.831  39.625 -10.495  1.00  0.00     0.027 C
BRANCH  23  24
HETATM   24  C17 UNL     1      14.824  38.634 -11.630  1.00  0.00     0.108 C
HETATM   25  N4  UNL     1      14.813  37.278 -11.201  1.00  0.00    -0.406 N
HETATM   26  C18 UNL     1      14.745  36.276 -12.202  1.00  0.00     0.132 C
ATOM     27  H4  UNL     1      14.853  37.036 -10.211  1.00  0.00     0.154 HD
HETATM   28  C20 UNL     1      15.218  36.791 -13.565  1.00  0.00     0.173 C
HETATM   29  C21 UNL     1      16.465  37.615 -13.242  1.00  0.00     0.179 C
HETATM   30  C22 UNL     1      15.974  38.875 -12.582  1.00  0.00     0.171 C
BRANCH  26  31
HETATM   31  C19 UNL     1      13.339  35.802 -12.395  1.00  0.00     0.191 C
BRANCH  31  32
HETATM   32  O3  UNL     1      13.237  34.439 -12.556  1.00  0.00    -0.399 OA
ATOM     33  H3  UNL     1      12.608  34.182 -13.220  1.00  0.00     0.209 HD
ENDBRANCH  31  32
ENDBRANCH  26  31
BRANCH  28  34
HETATM   34  O4  UNL     1      15.519  35.743 -14.412  1.00  0.00    -0.391 OA
ATOM     35  H4  UNL     1      15.175  35.900 -15.284  1.00  0.00     0.210 HD
ENDBRANCH  28  34
BRANCH  29  36
HETATM   36  O5  UNL     1      17.230  36.832 -12.380  1.00  0.00    -0.390 OA
ATOM     37  H5  UNL     1      18.131  37.098 -12.515  1.00  0.00     0.210 HD
ENDBRANCH  29  36
BRANCH  30  38
HETATM   38  O6  UNL     1      17.007  39.580 -11.964  1.00  0.00    -0.391 OA
ATOM     39  H6  UNL     1      17.014  39.432 -11.025  1.00  0.00     0.210 HD
ENDBRANCH  30  38
ENDBRANCH  23  24
ENDBRANCH  22  23
ENDBRANCH  21  22
ENDBRANCH   1  21
TORSDOF 17
ENDMDL