MODEL 3
REMARK VINA RESULT: -7.218960996      2.587     10.301
REMARK  18 active torsions:
REMARK  status: ('A' for Active; 'I' for Inactive)
REMARK    1  A    between atoms: C6_8  and  N2_9
REMARK    2  A    between atoms: N2_9  and  C7_11
REMARK    3  A    between atoms: C7_11  and  C8_12
REMARK    4  A    between atoms: C8_12  and  C9_13
REMARK       I    between atoms: C9_13  and  N3_15
REMARK    5  A    between atoms: N3_15  and  C10_17
REMARK    6  A    between atoms: C10_17  and  C11_18
REMARK    7  A    between atoms: C11_18  and  C12_19
REMARK    8  A    between atoms: C12_19  and  C13_20
REMARK    9  A    between atoms: C13_20  and  C14_21
REMARK   10  A    between atoms: C14_21  and  C15_22
REMARK   11  A    between atoms: C15_22  and  C16_23
REMARK   12  A    between atoms: C16_23  and  N4_24
REMARK   13  A    between atoms: N4_24  and  C17_26
REMARK   14  A    between atoms: C18_29  and  N6_30
REMARK   15  A    between atoms: C19_35  and  N8_36
REMARK   16  A    between atoms: N8_36  and  C20_38
REMARK   17  A    between atoms: C20_38  and  C21_39
REMARK   18  A    between atoms: C21_39  and  O2_40
ROOT
HETATM    1  C14 UNL     1      13.395  37.996 -10.863  1.00  0.00     0.002 C
ENDROOT
BRANCH   1   2
HETATM    2  C13 UNL     1      14.102  39.227 -11.126  1.00  0.00     0.000 C
BRANCH   2   3
HETATM    3  C12 UNL     1      14.308  40.293 -10.169  1.00  0.00     0.002 C
BRANCH   3   4
HETATM    4  C11 UNL     1      13.369  41.425 -10.146  1.00  0.00     0.020 C
BRANCH   4   5
HETATM    5  C10 UNL     1      12.374  41.604  -9.090  1.00  0.00     0.122 C
BRANCH   5   6
HETATM    6  N3  UNL     1      11.937  40.297  -8.576  1.00  0.00    -0.361 N
HETATM    7  C9  UNL     1      11.618  40.024  -7.242  1.00  0.00     0.219 C
HETATM    8  O1  UNL     1      11.688  40.893  -6.346  1.00  0.00    -0.274 OA
ATOM      9  H3  UNL     1      11.861  39.530  -9.245  1.00  0.00     0.162 HD
BRANCH   7  10
HETATM   10  C8  UNL     1      11.178  38.657  -6.859  1.00  0.00     0.123 C
BRANCH  10  11
HETATM   11  C7  UNL     1      11.428  38.457  -5.390  1.00  0.00     0.147 C
BRANCH  11  12
HETATM   12  N2  UNL     1      10.197  38.658  -4.692  1.00  0.00    -0.226 N
ATOM     13  H2  UNL     1       9.402  38.963  -5.254  1.00  0.00     0.177 HD
BRANCH  12  14
HETATM   14  C6  UNL     1       9.983  38.499  -3.450  1.00  0.00     0.678 A
HETATM   15  N1  UNL     1       9.748  37.333  -2.834  1.00  0.00    -0.196 N
HETATM   16  C4  UNL     1       9.530  37.233  -1.517  1.00  0.00     0.024 A
ATOM     17  H1  UNL     1       9.734  36.481  -3.395  1.00  0.00     0.184 HD
HETATM   18  C3  UNL     1       9.545  38.386  -0.742  1.00  0.00     0.050 A
HETATM   19  C5  UNL     1       9.271  35.934  -0.844  1.00  0.00     0.068 C
HETATM   20  C2  UNL     1       9.786  39.588  -1.369  1.00  0.00     0.024 A
HETATM   21  C1  UNL     1       9.812  40.842  -0.580  1.00  0.00     0.068 C
HETATM   22  N10 UNL     1       9.995  39.618  -2.677  1.00  0.00    -0.196 N
ATOM     23  H10 UNL     1      10.172  40.517  -3.123  1.00  0.00     0.184 HD
ENDBRANCH  12  14
ENDBRANCH  11  12
ENDBRANCH  10  11
ENDBRANCH   7  10
ENDBRANCH   5   6
ENDBRANCH   4   5
ENDBRANCH   3   4
ENDBRANCH   2   3
ENDBRANCH   1   2
BRANCH   1  24
HETATM   24  C15 UNL     1      14.115  36.762 -10.490  1.00  0.00     0.020 C
BRANCH  24  25
HETATM   25  C16 UNL     1      15.067  36.098 -11.386  1.00  0.00     0.138 C
BRANCH  25  26
HETATM   26  N4  UNL     1      14.409  35.528 -12.567  1.00  0.00    -0.225 N
ATOM     27  H4  UNL     1      13.888  34.655 -12.481  1.00  0.00     0.177 HD
BRANCH  26  28
HETATM   28  C17 UNL     1      14.479  36.109 -13.703  1.00  0.00     0.707 A
HETATM   29  N5  UNL     1      15.164  37.229 -13.941  1.00  0.00    -0.022 N
HETATM   30  C18 UNL     1      15.187  37.789 -15.189  1.00  0.00     0.705 A
ATOM     31  H5  UNL     1      15.679  37.674 -13.181  1.00  0.00     0.203 HD
HETATM   32  N7  UNL     1      14.533  37.251 -16.227  1.00  0.00    -0.022 N
HETATM   33  C19 UNL     1      13.838  36.122 -16.000  1.00  0.00     0.707 A
ATOM     34  H7  UNL     1      14.560  37.680 -17.153  1.00  0.00     0.203 HD
HETATM   35  N9  UNL     1      13.819  35.579 -14.781  1.00  0.00    -0.022 N
ATOM     36  H9  UNL     1      13.283  34.723 -14.643  1.00  0.00     0.203 HD
BRANCH  30  37
HETATM   37  N6  UNL     1      15.859  38.866 -15.372  1.00  0.00    -0.234 N
ATOM     38  H62 UNL     1      16.667  39.050 -14.776  1.00  0.00     0.174 HD
ATOM     39  H61 UNL     1      15.568  39.508 -16.109  1.00  0.00     0.174 HD
ENDBRANCH  30  37
BRANCH  33  40
HETATM   40  N8  UNL     1      13.171  35.531 -16.961  1.00  0.00    -0.223 N
ATOM     41  H8  UNL     1      12.162  35.418 -16.862  1.00  0.00     0.177 HD
BRANCH  40  42
HETATM   42  C20 UNL     1      13.808  35.039 -18.145  1.00  0.00     0.164 C
BRANCH  42  43
HETATM   43  C21 UNL     1      14.524  33.751 -17.777  1.00  0.00     0.184 C
BRANCH  43  44
HETATM   44  O2  UNL     1      13.689  33.022 -16.915  1.00  0.00    -0.399 OA
ATOM     45  H2  UNL     1      13.048  33.622 -16.551  1.00  0.00     0.209 HD
ENDBRANCH  43  44
ENDBRANCH  42  43
ENDBRANCH  40  42
ENDBRANCH  33  40
ENDBRANCH  26  28
ENDBRANCH  25  26
ENDBRANCH  24  25
ENDBRANCH   1  24
TORSDOF 18
ENDMDL