MODEL 3
REMARK VINA RESULT: -7.879779805      0.700      1.093
REMARK  17 active torsions:
REMARK  status: ('A' for Active; 'I' for Inactive)
REMARK    1  A    between atoms: C2_2  and  C3_3
REMARK    2  A    between atoms: C3_3  and  C4_4
REMARK    3  A    between atoms: C4_4  and  C5_5
REMARK    4  A    between atoms: C5_5  and  C6_6
REMARK    5  A    between atoms: C6_6  and  C7_7
REMARK    6  A    between atoms: C7_7  and  C8_8
REMARK    7  A    between atoms: C8_8  and  N1_9
REMARK    8  A    between atoms: N1_9  and  C9_11
REMARK    9  A    between atoms: C10_14  and  N3_15
REMARK   10  A    between atoms: N3_15  and  C11_17
REMARK   11  A    between atoms: C11_17  and  C12_18
REMARK   12  A    between atoms: C12_18  and  O1_19
REMARK   13  A    between atoms: N5_24  and  C14_26
REMARK   14  A    between atoms: C14_26  and  C15_27
REMARK   15  A    between atoms: C17_32  and  C18_33
REMARK   16  A    between atoms: C19_36  and  C20_37
REMARK   17  A    between atoms: C22_39  and  N7_40
ROOT
HETATM    1  C9  UNL     1      11.787  39.952  -6.399  1.00  0.00     0.694 C
HETATM    2  N2  UNL     1      11.632  41.042  -7.203  1.00  0.00    -0.022 N
ATOM      3  H2  UNL     1      11.315  41.890  -6.732  1.00  0.00     0.203 HD
HETATM    4  C10 UNL     1      11.836  41.164  -8.529  1.00  0.00     0.694 C
HETATM    5  N4  UNL     1      12.389  40.276  -9.389  1.00  0.00    -0.173 N
ATOM      6  H4  UNL     1      12.196  40.404 -10.382  1.00  0.00     0.186 HD
HETATM    7  C13 UNL     1      13.170  39.241  -9.040  1.00  0.00     0.161 C
HETATM    8  N5  UNL     1      14.024  38.857  -9.920  1.00  0.00    -0.372 N
ATOM      9  H5  UNL     1      14.633  38.073  -9.690  1.00  0.00     0.161 HD
HETATM   10  C22 UNL     1      13.156  38.543  -7.839  1.00  0.00     0.159 C
HETATM   11  N8  UNL     1      12.583  38.907  -6.662  1.00  0.00    -0.173 N
ATOM     12  H8  UNL     1      12.788  38.301  -5.868  1.00  0.00     0.186 HD
ENDROOT
BRANCH   8  13
HETATM   13  C14 UNL     1      14.169  39.472 -11.215  1.00  0.00     0.128 C
BRANCH  13  14
HETATM   14  C15 UNL     1      14.892  38.500 -12.116  1.00  0.00     0.035 C
HETATM   15  C16 UNL     1      15.258  37.227 -11.431  1.00  0.00     0.240 C
HETATM   16  N6  UNL     1      15.375  36.237 -12.509  1.00  0.00    -0.060 N
HETATM   17  C17 UNL     1      14.411  36.624 -13.488  1.00  0.00     0.290 C
ATOM     18  H62 UNL     1      16.321  36.146 -12.880  1.00  0.00     0.278 HD
ATOM     19  H61 UNL     1      15.275  35.273 -12.194  1.00  0.00     0.278 HD
HETATM   20  C19 UNL     1      14.058  38.063 -13.282  1.00  0.00     0.034 C
BRANCH  17  21
HETATM   21  C18 UNL     1      13.215  35.739 -13.487  1.00  0.00     0.205 C
HETATM   22  O2  UNL     1      12.716  35.436 -14.597  1.00  0.00    -0.646 OA
HETATM   23  O3  UNL     1      12.661  35.260 -12.338  1.00  0.00    -0.646 OA
ENDBRANCH  17  21
BRANCH  20  24
HETATM   24  C20 UNL     1      14.395  38.912 -14.498  1.00  0.00     0.003 C
HETATM   25  C21 UNL     1      15.037  38.068 -15.550  1.00  0.00     0.005 C
ENDBRANCH  20  24
ENDBRANCH  13  14
ENDBRANCH   8  13
BRANCH  10  26
HETATM   26  N7  UNL     1      13.764  37.411  -7.854  1.00  0.00    -0.382 N
ATOM     27  H72 UNL     1      14.774  37.440  -7.997  1.00  0.00     0.157 HD
ATOM     28  H71 UNL     1      13.169  36.594  -7.721  1.00  0.00     0.157 HD
ENDBRANCH  10  26
BRANCH   4  29
HETATM   29  N3  UNL     1      11.470  42.266  -9.094  1.00  0.00    -0.223 N
ATOM     30  H3  UNL     1      12.036  42.665  -9.843  1.00  0.00     0.177 HD
BRANCH  29  31
HETATM   31  C11 UNL     1      10.271  42.933  -8.672  1.00  0.00     0.164 C
BRANCH  31  32
HETATM   32  C12 UNL     1       9.745  43.722  -9.857  1.00  0.00     0.184 C
BRANCH  32  33
HETATM   33  O1  UNL     1       8.850  42.950 -10.595  1.00  0.00    -0.399 OA
ATOM     34  H1  UNL     1       8.970  43.102 -11.526  1.00  0.00     0.209 HD
ENDBRANCH  32  33
ENDBRANCH  31  32
ENDBRANCH  29  31
ENDBRANCH   4  29
BRANCH   1  35
HETATM   35  N1  UNL     1      11.099  39.982  -5.329  1.00  0.00    -0.226 N
ATOM     36  H1  UNL     1      11.131  40.832  -4.766  1.00  0.00     0.177 HD
BRANCH  35  37
HETATM   37  C8  UNL     1      10.273  38.892  -4.857  1.00  0.00     0.138 C
BRANCH  37  38
HETATM   38  C7  UNL     1      10.399  38.773  -3.332  1.00  0.00     0.020 C
BRANCH  38  39
HETATM   39  C6  UNL     1       9.326  39.596  -2.702  1.00  0.00     0.002 C
BRANCH  39  40
HETATM   40  C5  UNL     1       9.664  40.031  -1.280  1.00  0.00     0.000 C
BRANCH  40  41
HETATM   41  C4  UNL     1      10.268  38.961  -0.476  1.00  0.00     0.000 C
BRANCH  41  42
HETATM   42  C3  UNL     1       9.347  38.199   0.400  1.00  0.00    -0.000 C
BRANCH  42  43
HETATM   43  C2  UNL     1       8.605  37.046  -0.141  1.00  0.00    -0.005 C
HETATM   44  C1  UNL     1       9.333  36.102  -1.032  1.00  0.00     0.005 C
ENDBRANCH  42  43
ENDBRANCH  41  42
ENDBRANCH  40  41
ENDBRANCH  39  40
ENDBRANCH  38  39
ENDBRANCH  37  38
ENDBRANCH  35  37
ENDBRANCH   1  35
TORSDOF 17
ENDMDL