MODEL 5
REMARK VINA RESULT: -6.863044214      2.795      4.006
REMARK  17 active torsions:
REMARK  status: ('A' for Active; 'I' for Inactive)
REMARK    1  A    between atoms: C2_2  and  C3_3
REMARK    2  A    between atoms: C3_3  and  C4_4
REMARK    3  A    between atoms: C4_4  and  C5_5
REMARK    4  A    between atoms: C5_5  and  C6_6
REMARK    5  A    between atoms: C6_6  and  C7_7
REMARK    6  A    between atoms: C6_6  and  C8_12
REMARK    7  A    between atoms: C7_7  and  N1_8
REMARK    8  A    between atoms: C8_12  and  O1_13
REMARK    9  A    between atoms: O1_13  and  C9_14
REMARK   10  A    between atoms: C9_14  and  C10_15
REMARK   11  A    between atoms: C11_16  and  C12_17
REMARK   12  A    between atoms: C13_20  and  N3_21
REMARK   13  A    between atoms: C15_28  and  C16_29
REMARK   14  A    between atoms: C16_29  and  S1_30
REMARK   15  A    between atoms: S1_30  and  C17_31
REMARK   16  A    between atoms: C17_31  and  C18_32
REMARK       I    between atoms: C18_32  and  N5_34
REMARK   17  A    between atoms: N5_34  and  C19_36
ROOT
HETATM    1  C12 UNL     1      12.456  38.749  -7.163  1.00  0.00     0.115 A
HETATM    2  N2  UNL     1      12.107  38.154  -6.017  1.00  0.00    -0.183 N
ATOM      3  H2  UNL     1      12.423  37.199  -5.847  1.00  0.00     0.185 HD
HETATM    4  C13 UNL     1      11.357  38.758  -5.082  1.00  0.00     0.679 A
HETATM    5  N4  UNL     1      10.924  40.012  -5.271  1.00  0.00    -0.156 N
ATOM      6  H4  UNL     1      10.354  40.474  -4.561  1.00  0.00     0.187 HD
HETATM    7  C14 UNL     1      11.253  40.663  -6.423  1.00  0.00     0.269 A
HETATM    8  O2  UNL     1      10.825  41.832  -6.538  1.00  0.00    -0.267 OA
HETATM    9  C15 UNL     1      12.010  40.062  -7.377  1.00  0.00     0.056 A
ENDROOT
BRANCH   1  10
HETATM   10  C11 UNL     1      13.255  38.105  -8.166  1.00  0.00    -0.045 C
HETATM   11  C10 UNL     1      13.920  37.541  -9.020  1.00  0.00    -0.073 C
BRANCH  11  12
HETATM   12  C9  UNL     1      14.705  36.841 -10.045  1.00  0.00     0.261 C
BRANCH  12  13
HETATM   13  O1  UNL     1      13.897  36.169 -10.937  1.00  0.00    -0.379 OA
BRANCH  13  14
HETATM   14  C8  UNL     1      13.336  37.020 -11.856  1.00  0.00     0.175 C
BRANCH  14  15
HETATM   15  C6  UNL     1      14.494  37.541 -12.756  1.00  0.00     0.035 C
BRANCH  15  16
HETATM   16  C5  UNL     1      14.159  38.938 -13.058  1.00  0.00     0.008 C
BRANCH  16  17
HETATM   17  C4  UNL     1      14.022  39.929 -11.983  1.00  0.00     0.000 C
BRANCH  17  18
HETATM   18  C3  UNL     1      15.079  40.911 -11.697  1.00  0.00    -0.000 C
BRANCH  18  19
HETATM   19  C2  UNL     1      15.960  40.563 -10.511  1.00  0.00    -0.005 C
HETATM   20  C1  UNL     1      17.368  41.009 -10.843  1.00  0.00     0.005 C
ENDBRANCH  18  19
ENDBRANCH  17  18
ENDBRANCH  16  17
ENDBRANCH  15  16
BRANCH  15  21
HETATM   21  C7  UNL     1      14.664  36.536 -13.820  1.00  0.00     0.236 C
BRANCH  21  22
HETATM   22  N1  UNL     1      13.801  35.392 -13.720  1.00  0.00    -0.079 N
ATOM     23  H13 UNL     1      14.356  34.538 -13.659  1.00  0.00     0.274 HD
ATOM     24  H12 UNL     1      13.345  35.374 -12.808  1.00  0.00     0.274 HD
ATOM     25  H11 UNL     1      13.107  35.308 -14.463  1.00  0.00     0.274 HD
ENDBRANCH  21  22
ENDBRANCH  15  21
ENDBRANCH  14  15
ENDBRANCH  13  14
ENDBRANCH  12  13
ENDBRANCH  11  12
ENDBRANCH   1  10
BRANCH   9  26
HETATM   26  C16 UNL     1      12.437  40.711  -8.606  1.00  0.00     0.121 C
BRANCH  26  27
HETATM   27  S1  UNL     1      13.534  42.120  -8.437  1.00  0.00    -0.155 SA
BRANCH  27  28
HETATM   28  C17 UNL     1      13.035  43.541  -9.414  1.00  0.00     0.176 C
BRANCH  28  29
HETATM   29  C18 UNL     1      11.560  43.545  -9.656  1.00  0.00     0.227 C
HETATM   30  O3  UNL     1      11.167  43.056 -10.753  1.00  0.00    -0.273 OA
HETATM   31  N5  UNL     1      10.652  44.071  -8.701  1.00  0.00    -0.354 N
ATOM     32  H5  UNL     1      10.991  44.461  -7.822  1.00  0.00     0.162 HD
BRANCH  31  33
HETATM   33  C19 UNL     1       9.246  44.043  -8.995  1.00  0.00     0.111 C
HETATM   34  C20 UNL     1       8.510  44.334  -7.701  1.00  0.00     0.054 C
HETATM   35  C21 UNL     1       8.154  45.798  -7.762  1.00  0.00     0.234 C
HETATM   36  N6  UNL     1       8.179  46.179  -9.136  1.00  0.00    -0.073 N
HETATM   37  C22 UNL     1       8.822  45.155  -9.891  1.00  0.00     0.257 C
ATOM     38  H62 UNL     1       7.249  46.399  -9.494  1.00  0.00     0.277 HD
ATOM     39  H61 UNL     1       8.607  47.093  -9.279  1.00  0.00     0.277 HD
ENDBRANCH  31  33
ENDBRANCH  28  29
ENDBRANCH  27  28
ENDBRANCH  26  27
ENDBRANCH   9  26
BRANCH   4  40
HETATM   40  N3  UNL     1      11.046  38.145  -3.994  1.00  0.00    -0.234 N
ATOM     41  H32 UNL     1      10.751  37.170  -4.040  1.00  0.00     0.174 HD
ATOM     42  H31 UNL     1      11.092  38.626  -3.095  1.00  0.00     0.174 HD
ENDBRANCH   4  40
TORSDOF 17
ENDMDL