MODEL 4
REMARK VINA RESULT: -7.553131974      2.930      5.436
REMARK  17 active torsions:
REMARK  status: ('A' for Active; 'I' for Inactive)
REMARK    1  A    between atoms: C1_2  and  C2_4
REMARK    2  A    between atoms: C2_4  and  C3_5
REMARK    3  A    between atoms: C3_5  and  C4_6
REMARK    4  A    between atoms: C4_6  and  C5_7
REMARK    5  A    between atoms: C5_7  and  C6_8
REMARK    6  A    between atoms: C6_8  and  C7_9
REMARK    7  A    between atoms: C7_9  and  C8_10
REMARK    8  A    between atoms: C8_10  and  C9_11
REMARK    9  A    between atoms: C9_11  and  C10_12
REMARK   10  A    between atoms: C10_12  and  N1_13
REMARK   11  A    between atoms: N1_13  and  C11_15
REMARK   12  A    between atoms: N3_19  and  C13_21
REMARK   13  A    between atoms: C13_21  and  C14_22
REMARK   14  A    between atoms: C15_23  and  O3_24
REMARK   15  A    between atoms: C17_27  and  O4_28
REMARK   16  A    between atoms: C18_30  and  C19_31
REMARK   17  A    between atoms: C19_31  and  O5_32
ROOT
HETATM    1  C11 UNL     1      11.380  38.804  -4.969  1.00  0.00     0.681 A
HETATM    2  N2  UNL     1      11.001  39.977  -5.462  1.00  0.00    -0.174 N
ATOM      3  H2  UNL     1      10.398  40.567  -4.888  1.00  0.00     0.186 HD
HETATM    4  C12 UNL     1      11.373  40.442  -6.693  1.00  0.00     0.151 A
HETATM    5  N3  UNL     1      10.943  41.579  -7.046  1.00  0.00    -0.353 N
ATOM      6  H3  UNL     1      10.354  42.015  -6.337  1.00  0.00     0.166 HD
HETATM    7  C20 UNL     1      12.184  39.637  -7.449  1.00  0.00     0.123 A
HETATM    8  N4  UNL     1      12.726  39.784  -8.679  1.00  0.00    -0.346 N
ATOM      9  H4  UNL     1      12.603  40.592  -9.289  1.00  0.00     0.167 HD
HETATM   10  C21 UNL     1      13.452  38.694  -8.964  1.00  0.00     0.182 A
HETATM   11  N5  UNL     1      13.363  37.867  -7.911  1.00  0.00    -0.336 N
ATOM     12  H5  UNL     1      13.815  36.955  -7.842  1.00  0.00     0.168 HD
HETATM   13  C22 UNL     1      12.584  38.424  -6.954  1.00  0.00     0.152 A
HETATM   14  N6  UNL     1      12.182  38.033  -5.741  1.00  0.00    -0.174 N
ATOM     15  H6  UNL     1      12.487  37.127  -5.386  1.00  0.00     0.186 HD
ENDROOT
BRANCH   5  16
HETATM   16  C13 UNL     1      11.093  42.371  -8.187  1.00  0.00     0.070 C
BRANCH  16  17
HETATM   17  C14 UNL     1       9.909  43.233  -8.534  1.00  0.00     0.061 C
HETATM   18  C15 UNL     1       9.715  43.411  -9.999  1.00  0.00     0.130 C
HETATM   19  C16 UNL     1       9.121  44.764 -10.189  1.00  0.00     0.064 C
HETATM   20  C17 UNL     1       8.933  45.350  -8.790  1.00  0.00     0.127 C
HETATM   21  C18 UNL     1       9.922  44.582  -7.937  1.00  0.00     0.049 C
BRANCH  18  22
HETATM   22  O3  UNL     1      10.868  43.189 -10.752  1.00  0.00    -0.395 OA
ATOM     23  H3  UNL     1      10.715  43.159 -11.689  1.00  0.00     0.210 HD
ENDBRANCH  18  22
BRANCH  20  24
HETATM   24  O4  UNL     1       7.648  45.061  -8.367  1.00  0.00    -0.395 OA
ATOM     25  H4  UNL     1       7.045  45.625  -8.836  1.00  0.00     0.210 HD
ENDBRANCH  20  24
BRANCH  21  26
HETATM   26  C19 UNL     1      11.220  45.326  -7.972  1.00  0.00     0.172 C
BRANCH  26  27
HETATM   27  O5  UNL     1      11.600  45.754  -6.704  1.00  0.00    -0.400 OA
ATOM     28  H5  UNL     1      11.711  45.024  -6.106  1.00  0.00     0.209 HD
ENDBRANCH  26  27
ENDBRANCH  21  26
ENDBRANCH  16  17
ENDBRANCH   5  16
BRANCH   1  29
HETATM   29  N1  UNL     1      11.034  38.353  -3.808  1.00  0.00    -0.226 N
ATOM     30  H1  UNL     1      11.797  38.226  -3.143  1.00  0.00     0.177 HD
BRANCH  29  31
HETATM   31  C10 UNL     1       9.751  38.013  -3.330  1.00  0.00     0.138 C
BRANCH  31  32
HETATM   32  C9  UNL     1       9.748  37.494  -1.907  1.00  0.00     0.020 C
BRANCH  32  33
HETATM   33  C8  UNL     1      10.569  38.266  -0.953  1.00  0.00     0.002 C
BRANCH  33  34
HETATM   34  C7  UNL     1       9.721  39.291  -0.204  1.00  0.00     0.004 C
BRANCH  34  35
HETATM   35  C6  UNL     1       9.935  40.664  -0.695  1.00  0.00     0.027 C
BRANCH  35  36
HETATM   36  C5  UNL     1       8.915  41.176  -1.627  1.00  0.00    -0.031 C
BRANCH  36  37
HETATM   37  C4  UNL     1       8.470  42.563  -1.616  1.00  0.00    -0.030 C
BRANCH  37  38
HETATM   38  C3  UNL     1       7.463  43.077  -2.560  1.00  0.00     0.037 C
BRANCH  38  39
HETATM   39  C2  UNL     1       7.265  42.129  -3.729  1.00  0.00     0.117 C
BRANCH  39  40
HETATM   40  C1  UNL     1       7.925  42.644  -4.945  1.00  0.00     0.172 C
HETATM   41  O1  UNL     1       9.160  42.552  -5.070  1.00  0.00    -0.648 OA
HETATM   42  O2  UNL     1       7.171  43.224  -5.936  1.00  0.00    -0.648 OA
ENDBRANCH  39  40
ENDBRANCH  38  39
ENDBRANCH  37  38
ENDBRANCH  36  37
ENDBRANCH  35  36
ENDBRANCH  34  35
ENDBRANCH  33  34
ENDBRANCH  32  33
ENDBRANCH  31  32
ENDBRANCH  29  31
ENDBRANCH   1  29
TORSDOF 17
ENDMDL