MODEL 4
REMARK VINA RESULT: -7.154912681      1.279      1.565
REMARK  15 active torsions:
REMARK  status: ('A' for Active; 'I' for Inactive)
REMARK       I    between atoms: C1_4  and  N3_6
REMARK    1  A    between atoms: N3_6  and  C2_8
REMARK    2  A    between atoms: C6_15  and  C7_16
REMARK    3  A    between atoms: C7_16  and  C8_17
REMARK    4  A    between atoms: C8_17  and  C9_18
REMARK    5  A    between atoms: C9_18  and  C10_19
REMARK    6  A    between atoms: C10_19  and  C11_20
REMARK    7  A    between atoms: C11_20  and  C12_21
REMARK       I    between atoms: C12_21  and  N5_23
REMARK    8  A    between atoms: N5_23  and  C13_25
REMARK    9  A    between atoms: C13_25  and  C14_26
REMARK   10  A    between atoms: C14_26  and  N6_27
REMARK   11  A    between atoms: C16_32  and  O2_33
REMARK   12  A    between atoms: O2_33  and  C17_34
REMARK   13  A    between atoms: C17_34  and  C18_35
REMARK   14  A    between atoms: C18_35  and  C19_36
REMARK   15  A    between atoms: C19_36  and  S1_37
ROOT
HETATM    1  C2  UNL     1      11.792  40.509  -7.703  1.00  0.00    -0.002 C
HETATM    2  C3  UNL     1      12.818  41.066  -6.756  1.00  0.00     0.055 C
HETATM    3  C4  UNL     1      13.752  42.048  -7.348  1.00  0.00     0.041 C
HETATM    4  C5  UNL     1      13.593  42.393  -8.767  1.00  0.00     0.216 C
HETATM    5  N4  UNL     1      14.328  41.402  -9.577  1.00  0.00    -0.063 N
ATOM      6  H41 UNL     1      15.270  41.207  -9.238  1.00  0.00     0.278 HD
ATOM      7  H42 UNL     1      14.603  41.743 -10.498  1.00  0.00     0.278 HD
HETATM    8  C6  UNL     1      13.477  40.250  -9.616  1.00  0.00     0.198 C
HETATM    9  C15 UNL     1      12.129  40.652  -9.136  1.00  0.00     0.093 C
HETATM   10  C16 UNL     1      12.201  42.186  -9.322  1.00  0.00     0.163 C
ENDROOT
BRANCH   8  11
HETATM   11  C7  UNL     1      14.054  39.020  -9.106  1.00  0.00     0.034 C
BRANCH  11  12
HETATM   12  C8  UNL     1      13.387  37.766  -9.563  1.00  0.00     0.002 C
BRANCH  12  13
HETATM   13  C9  UNL     1      14.059  36.937 -10.602  1.00  0.00     0.001 C
BRANCH  13  14
HETATM   14  C10 UNL     1      13.282  37.040 -11.921  1.00  0.00     0.009 C
BRANCH  14  15
HETATM   15  C11 UNL     1      13.410  35.820 -12.782  1.00  0.00     0.103 C
BRANCH  15  16
HETATM   16  C12 UNL     1      13.655  36.215 -14.214  1.00  0.00     0.217 C
HETATM   17  O1  UNL     1      14.204  37.300 -14.483  1.00  0.00    -0.274 OA
HETATM   18  N5  UNL     1      13.263  35.356 -15.266  1.00  0.00    -0.359 N
ATOM     19  H5  UNL     1      12.815  34.471 -15.030  1.00  0.00     0.162 HD
BRANCH  18  20
HETATM   20  C13 UNL     1      13.468  35.677 -16.655  1.00  0.00     0.150 C
BRANCH  20  21
HETATM   21  C14 UNL     1      14.240  34.585 -17.358  1.00  0.00     0.249 C
BRANCH  21  22
HETATM   22  N6  UNL     1      13.737  33.273 -16.982  1.00  0.00    -0.078 N
ATOM     23  H63 UNL     1      13.311  33.283 -16.055  1.00  0.00     0.274 HD
ATOM     24  H62 UNL     1      12.915  33.013 -17.527  1.00  0.00     0.274 HD
ATOM     25  H61 UNL     1      14.472  32.570 -17.050  1.00  0.00     0.274 HD
ENDBRANCH  21  22
ENDBRANCH  20  21
ENDBRANCH  18  20
ENDBRANCH  15  16
ENDBRANCH  14  15
ENDBRANCH  13  14
ENDBRANCH  12  13
ENDBRANCH  11  12
ENDBRANCH   8  11
BRANCH   1  26
HETATM   26  N3  UNL     1      11.257  39.237  -7.299  1.00  0.00    -0.338 N
HETATM   27  C1  UNL     1      11.118  38.821  -5.957  1.00  0.00     0.185 C
HETATM   28  N1  UNL     1      11.887  37.986  -5.376  1.00  0.00    -0.374 N
HETATM   29  N2  UNL     1      10.042  39.377  -5.215  1.00  0.00    -0.064 NA
ATOM     30  H12 UNL     1      11.786  37.685  -4.406  1.00  0.00     0.158 HD
ATOM     31  H11 UNL     1      12.659  37.587  -5.909  1.00  0.00     0.158 HD
ATOM     32  H3  UNL     1      10.958  38.593  -8.031  1.00  0.00     0.168 HD
ENDBRANCH   1  26
BRANCH  10  33
HETATM   33  O2  UNL     1      12.046  42.564 -10.602  1.00  0.00    -0.383 OA
BRANCH  33  34
HETATM   34  C17 UNL     1      11.138  43.617 -10.702  1.00  0.00     0.169 C
BRANCH  34  35
HETATM   35  C18 UNL     1       9.922  43.442  -9.874  1.00  0.00     0.044 C
BRANCH  35  36
HETATM   36  C19 UNL     1       9.530  44.645  -9.068  1.00  0.00     0.167 C
BRANCH  36  37
HETATM   37  S1  UNL     1      10.041  44.678  -7.403  1.00  0.00     0.101 S
HETATM   38  O3  UNL     1       9.169  45.570  -6.549  1.00  0.00    -0.595 OA
HETATM   39  O4  UNL     1       9.856  43.287  -6.802  1.00  0.00    -0.595 OA
HETATM   40  O5  UNL     1      11.658  45.047  -7.194  1.00  0.00    -0.595 OA
ENDBRANCH  36  37
ENDBRANCH  35  36
ENDBRANCH  34  35
ENDBRANCH  33  34
ENDBRANCH  10  33
TORSDOF 15
ENDMDL