MODEL 5
REMARK VINA RESULT: -7.786456779      4.457      6.736
REMARK  11 active torsions:
REMARK  status: ('A' for Active; 'I' for Inactive)
REMARK    1  A    between atoms: C2_2  and  C3_3
REMARK    2  A    between atoms: C3_3  and  C4_4
REMARK    3  A    between atoms: C6_7  and  C7_8
REMARK    4  A    between atoms: C9_15  and  C10_16
REMARK    5  A    between atoms: C10_16  and  C11_17
REMARK    6  A    between atoms: C11_17  and  C12_18
REMARK    7  A    between atoms: C12_18  and  N3_19
REMARK       I    between atoms: N3_19  and  C13_21
REMARK       I    between atoms: N5_23  and  C14_25
REMARK    8  A    between atoms: N7_27  and  C15_29
REMARK    9  A    between atoms: C15_29  and  C16_30
REMARK   10  A    between atoms: C16_30  and  C17_31
REMARK   11  A    between atoms: C19_33  and  C20_34
ROOT
HETATM    1  C7  UNL     1       5.594 129.968 358.847  1.00  0.00     0.064 A
HETATM    2  N1  UNL     1       5.475 130.557 357.616  1.00  0.00    -0.336 N
ATOM      3  H1  UNL     1       4.595 130.697 357.118  1.00  0.00     0.168 HD
HETATM    4  C8  UNL     1       6.677 130.921 357.161  1.00  0.00     0.154 A
HETATM    5 BR1  UNL     1       7.073 131.777 355.508  1.00  0.00    -0.010 Br
HETATM    6  N2  UNL     1       7.574 130.569 358.095  1.00  0.00    -0.338 N
ATOM      7  H2  UNL     1       8.581 130.718 358.035  1.00  0.00     0.168 HD
HETATM    8  C9  UNL     1       6.913 129.972 359.151  1.00  0.00     0.036 A
ENDROOT
BRANCH   8   9
HETATM    9  C10 UNL     1       7.636 129.458 360.287  1.00  0.00     0.061 C
BRANCH   9  10
HETATM   10  C11 UNL     1       8.445 128.228 360.081  1.00  0.00     0.026 C
BRANCH  10  11
HETATM   11  C12 UNL     1       9.903 128.343 359.911  1.00  0.00     0.122 C
BRANCH  11  12
HETATM   12  N3  UNL     1      10.420 129.654 360.281  1.00  0.00    -0.364 N
HETATM   13  C13 UNL     1      11.111 130.449 359.328  1.00  0.00     0.190 C
HETATM   14  N4  UNL     1      10.473 130.655 358.047  1.00  0.00    -0.063 NA
HETATM   15  N5  UNL     1      12.256 130.985 359.556  1.00  0.00    -0.305 N
HETATM   16  C14 UNL     1      12.890 130.800 360.790  1.00  0.00     0.190 C
ATOM     17  H5  UNL     1      12.707 131.548 358.833  1.00  0.00     0.171 HD
HETATM   18  N6  UNL     1      14.089 130.072 360.864  1.00  0.00    -0.063 NA
HETATM   19  N7  UNL     1      12.387 131.295 361.859  1.00  0.00    -0.364 N
ATOM     20  H7  UNL     1      11.518 131.824 361.793  1.00  0.00     0.162 HD
ATOM     21  H3  UNL     1      10.285 130.002 361.231  1.00  0.00     0.162 HD
BRANCH  19  22
HETATM   22  C15 UNL     1      13.011 131.130 363.164  1.00  0.00     0.122 C
BRANCH  22  23
HETATM   23  C16 UNL     1      11.919 130.552 364.070  1.00  0.00     0.019 C
BRANCH  23  24
HETATM   24  C17 UNL     1      10.787 131.544 364.178  1.00  0.00    -0.003 C
HETATM   25  C18 UNL     1      11.181 132.656 365.153  1.00  0.00     0.005 C
ENDBRANCH  23  24
ENDBRANCH  22  23
ENDBRANCH  19  22
ENDBRANCH  11  12
ENDBRANCH  10  11
ENDBRANCH   9  10
ENDBRANCH   8   9
BRANCH   1  26
HETATM   26  C6  UNL     1       4.440 129.478 359.592  1.00  0.00     0.181 C
HETATM   27  O1  UNL     1       4.584 129.626 360.973  1.00  0.00    -0.379 OA
HETATM   28  C5  UNL     1       3.769 128.730 361.604  1.00  0.00     0.174 C
HETATM   29  C4  UNL     1       3.235 127.761 360.527  1.00  0.00     0.023 C
HETATM   30  C19 UNL     1       4.299 127.954 359.508  1.00  0.00     0.049 C
BRANCH  29  31
HETATM   31  C3  UNL     1       1.856 128.183 360.241  1.00  0.00     0.033 C
BRANCH  31  32
HETATM   32  C2  UNL     1       1.085 127.089 359.587  1.00  0.00    -0.036 C
HETATM   33  C1  UNL     1       0.377 127.199 358.508  1.00  0.00     0.007 C
ENDBRANCH  31  32
ENDBRANCH  29  31
BRANCH  30  34
HETATM   34  C20 UNL     1       4.145 127.386 358.199  1.00  0.00    -0.029 C
HETATM   35  C21 UNL     1       4.037 126.169 357.760  1.00  0.00     0.007 C
ENDBRANCH  30  34
ENDBRANCH   1  26
TORSDOF 11
ENDMDL