MODEL 4
REMARK VINA RESULT: -7.638503391      1.684      2.117
REMARK  12 active torsions:
REMARK  status: ('A' for Active; 'I' for Inactive)
REMARK    1  A    between atoms: C2_2  and  C3_3
REMARK    2  A    between atoms: C3_3  and  N1_4
REMARK       I    between atoms: N1_4  and  C4_6
REMARK       I    between atoms: C4_6  and  N5_28
REMARK    3  A    between atoms: N2_7  and  C5_9
REMARK    4  A    between atoms: C5_9  and  C6_10
REMARK    5  A    between atoms: C6_10  and  C7_11
REMARK    6  A    between atoms: N3_12  and  C8_14
REMARK    7  A    between atoms: N5_28  and  C19_30
REMARK    8  A    between atoms: C19_30  and  C20_31
REMARK    9  A    between atoms: C20_31  and  C21_32
REMARK   10  A    between atoms: C21_32  and  C22_33
REMARK   11  A    between atoms: C22_33  and  C23_34
REMARK   12  A    between atoms: C23_34  and  O1_35
ROOT
HETATM    1  C5  UNL     1       7.559 130.173 357.704  1.00  0.00     0.143 C
ENDROOT
BRANCH   1   2
HETATM    2  N2  UNL     1       7.050 131.081 356.742  1.00  0.00    -0.226 N
HETATM    3  C4  UNL     1       5.966 131.097 356.109  1.00  0.00     0.673 C
HETATM    4  N1  UNL     1       4.904 130.147 356.203  1.00  0.00    -0.202 N
HETATM    5  N5  UNL     1       5.744 132.184 355.184  1.00  0.00    -0.226 N
ATOM      6  H1  UNL     1       4.467 129.993 357.112  1.00  0.00     0.183 HD
ATOM      7  H5  UNL     1       5.802 132.035 354.177  1.00  0.00     0.177 HD
ATOM      8  H2  UNL     1       7.675 131.858 356.526  1.00  0.00     0.177 HD
BRANCH   4   9
HETATM    9  C3  UNL     1       4.428 129.401 355.081  1.00  0.00     0.105 C
BRANCH   9  10
HETATM   10  C2  UNL     1       2.995 129.215 354.967  1.00  0.00     0.007 C
HETATM   11  C1  UNL     1       2.232 128.649 355.880  1.00  0.00     0.012 C
ENDBRANCH   9  10
ENDBRANCH   4   9
BRANCH   5  12
HETATM   12  C19 UNL     1       5.441 133.474 355.721  1.00  0.00     0.138 C
BRANCH  12  13
HETATM   13  C20 UNL     1       4.175 133.994 355.087  1.00  0.00     0.020 C
BRANCH  13  14
HETATM   14  C21 UNL     1       4.390 135.394 354.623  1.00  0.00     0.004 C
BRANCH  14  15
HETATM   15  C22 UNL     1       3.491 136.365 355.350  1.00  0.00     0.026 C
BRANCH  15  16
HETATM   16  C23 UNL     1       4.129 137.744 355.218  1.00  0.00     0.164 C
BRANCH  16  17
HETATM   17  O1  UNL     1       5.488 137.641 354.923  1.00  0.00    -0.401 OA
ATOM     18  H1  UNL     1       5.627 137.172 354.109  1.00  0.00     0.209 HD
ENDBRANCH  16  17
ENDBRANCH  15  16
ENDBRANCH  14  15
ENDBRANCH  13  14
ENDBRANCH  12  13
ENDBRANCH   5  12
ENDBRANCH   1   2
BRANCH   1  19
HETATM   19  C6  UNL     1       9.041 130.198 357.880  1.00  0.00     0.065 C
BRANCH  19  20
HETATM   20  C7  UNL     1       9.390 129.903 359.350  1.00  0.00     0.063 C
HETATM   21  N3  UNL     1      10.537 130.451 359.805  1.00  0.00    -0.368 N
ATOM     22  H3  UNL     1      10.927 131.045 359.073  1.00  0.00     0.165 HD
BRANCH  21  23
HETATM   23  C8  UNL     1      11.277 130.494 360.779  1.00  0.00     0.059 A
HETATM   24  C9  UNL     1      12.684 130.500 360.496  1.00  0.00     0.053 A
HETATM   25 BR1  UNL     1      13.243 130.490 358.679  1.00  0.00    -0.047 Br
HETATM   26  C10 UNL     1      13.581 130.525 361.517  1.00  0.00     0.109 A
HETATM   27  N4  UNL     1      13.165 130.543 362.785  1.00  0.00    -0.367 N
HETATM   28  C11 UNL     1      11.873 130.538 363.067  1.00  0.00     0.018 A
ATOM     29  H4  UNL     1      13.849 130.560 363.541  1.00  0.00     0.165 HD
HETATM   30  C12 UNL     1      10.879 130.515 362.076  1.00  0.00    -0.007 A
HETATM   31  C18 UNL     1      11.355 130.542 364.482  1.00  0.00     0.066 C
HETATM   32  C13 UNL     1       9.515 130.539 362.584  1.00  0.00     0.044 C
HETATM   33  C14 UNL     1       9.475 131.803 363.501  1.00  0.00     0.014 C
HETATM   34  C15 UNL     1      10.404 131.672 364.662  1.00  0.00    -0.042 C
HETATM   35  C16 UNL     1      11.238 132.954 364.748  1.00  0.00     0.015 C
HETATM   36  C17 UNL     1       9.627 131.473 365.952  1.00  0.00     0.015 C
ENDBRANCH  21  23
ENDBRANCH  19  20
ENDBRANCH   1  19
TORSDOF 12
ENDMDL