MODEL 3
REMARK VINA RESULT: -8.445875276      1.879      5.540
REMARK  11 active torsions:
REMARK  status: ('A' for Active; 'I' for Inactive)
REMARK    1  A    between atoms: C2_2  and  C4_4
REMARK    2  A    between atoms: C4_4  and  C5_5
REMARK    3  A    between atoms: C5_5  and  C6_6
REMARK    4  A    between atoms: C6_6  and  C7_7
REMARK    5  A    between atoms: C7_7  and  C8_8
REMARK       I    between atoms: N1_12  and  C11_13
REMARK    6  A    between atoms: C11_13  and  C12_15
REMARK    7  A    between atoms: C12_15  and  C13_16
REMARK    8  A    between atoms: C12_15  and  N5_26
REMARK    9  A    between atoms: C13_16  and  C14_17
REMARK   10  A    between atoms: C14_17  and  C15_18
REMARK   11  A    between atoms: C15_18  and  N2_19
REMARK       I    between atoms: N2_19  and  C16_21
REMARK       I    between atoms: N5_26  and  C17_28
REMARK       I    between atoms: C17_28  and  N6_30
ROOT
HETATM    1  C12 UNL     1       5.604 129.365 356.860  1.00  0.00     0.081 C
ENDROOT
BRANCH   1   2
HETATM    2  C11 UNL     1       5.970 129.003 358.225  1.00  0.00     0.266 C
HETATM    3  N1  UNL     1       7.289 128.879 358.716  1.00  0.00    -0.347 N
HETATM    4  C10 UNL     1       8.456 129.139 357.900  1.00  0.00     0.128 C
HETATM    5  C23 UNL     1       7.556 128.480 360.099  1.00  0.00     0.128 C
HETATM    6  C9  UNL     1       9.247 130.200 358.691  1.00  0.00     0.045 C
HETATM    7  C8  UNL     1       9.729 129.568 359.997  1.00  0.00     0.040 C
HETATM    8 CL1  UNL     1       9.222 130.658 361.325  1.00  0.00    -0.119 Cl
HETATM    9  C24 UNL     1       9.069 128.257 360.233  1.00  0.00     0.045 C
HETATM   10  O1  UNL     1       5.019 128.779 359.052  1.00  0.00    -0.266 OA
BRANCH   7  11
HETATM   11  C7  UNL     1      11.228 129.531 359.907  1.00  0.00     0.026 C
BRANCH  11  12
HETATM   12  C6  UNL     1      11.888 130.781 360.370  1.00  0.00     0.002 C
BRANCH  12  13
HETATM   13  C5  UNL     1      12.587 130.602 361.696  1.00  0.00     0.000 C
BRANCH  13  14
HETATM   14  C4  UNL     1      12.529 131.878 362.528  1.00  0.00     0.004 C
BRANCH  14  15
HETATM   15  C2  UNL     1      12.571 131.496 364.013  1.00  0.00    -0.023 C
HETATM   16  C1  UNL     1      11.977 132.672 364.771  1.00  0.00     0.009 C
HETATM   17  C3  UNL     1      11.639 130.335 364.200  1.00  0.00     0.009 C
ENDBRANCH  14  15
ENDBRANCH  13  14
ENDBRANCH  12  13
ENDBRANCH  11  12
ENDBRANCH   7  11
ENDBRANCH   1   2
BRANCH   1  18
HETATM   18  C13 UNL     1       4.551 128.572 356.201  1.00  0.00     0.064 C
BRANCH  18  19
HETATM   19  C14 UNL     1       3.129 128.904 356.367  1.00  0.00     0.026 C
BRANCH  19  20
HETATM   20  C15 UNL     1       2.328 127.849 357.041  1.00  0.00     0.122 C
BRANCH  20  21
HETATM   21  N2  UNL     1       1.785 128.425 358.292  1.00  0.00    -0.365 N
HETATM   22  C16 UNL     1       1.766 127.580 359.427  1.00  0.00     0.181 C
HETATM   23  N3  UNL     1       2.710 127.619 360.291  1.00  0.00    -0.374 N
HETATM   24  N4  UNL     1       0.689 126.691 359.605  1.00  0.00    -0.064 NA
ATOM     25  H32 UNL     1       3.491 128.263 360.162  1.00  0.00     0.158 HD
ATOM     26  H31 UNL     1       2.696 127.010 361.109  1.00  0.00     0.158 HD
ATOM     27  H2  UNL     1       1.441 129.384 358.335  1.00  0.00     0.162 HD
ENDBRANCH  20  21
ENDBRANCH  19  20
ENDBRANCH  18  19
ENDBRANCH   1  18
BRANCH   1  28
HETATM   28  N5  UNL     1       5.483 130.804 356.621  1.00  0.00    -0.307 N
HETATM   29  C17 UNL     1       6.058 131.393 355.467  1.00  0.00     0.322 C
HETATM   30  O2  UNL     1       6.675 130.602 354.669  1.00  0.00    -0.247 OA
HETATM   31  N6  UNL     1       6.014 132.742 355.122  1.00  0.00    -0.334 N
HETATM   32  C18 UNL     1       6.643 133.231 353.876  1.00  0.00     0.127 C
HETATM   33  C22 UNL     1       5.364 133.725 355.951  1.00  0.00     0.127 C
HETATM   34  C19 UNL     1       5.652 133.998 353.058  1.00  0.00     0.020 C
HETATM   35  C20 UNL     1       4.832 134.949 353.903  1.00  0.00     0.003 C
HETATM   36  C21 UNL     1       4.223 134.295 355.102  1.00  0.00     0.020 C
ATOM     37  H5  UNL     1       4.981 131.388 357.290  1.00  0.00     0.170 HD
ENDBRANCH   1  28
TORSDOF 11
ENDMDL