MODEL 3
REMARK VINA RESULT: -7.458519241      2.207      8.311
REMARK  13 active torsions:
REMARK  status: ('A' for Active; 'I' for Inactive)
REMARK    1  A    between atoms: C5_7  and  N2_8
REMARK    2  A    between atoms: C6_11  and  C7_12
REMARK    3  A    between atoms: C7_12  and  N3_13
REMARK    4  A    between atoms: N3_13  and  C8_14
REMARK       I    between atoms: N3_13  and  C12_18
REMARK    5  A    between atoms: C8_14  and  C9_15
REMARK    6  A    between atoms: C12_18  and  C13_20
REMARK    7  A    between atoms: C13_20  and  C14_21
REMARK    8  A    between atoms: C13_20  and  N4_28
REMARK    9  A    between atoms: C14_21  and  C15_22
REMARK       I    between atoms: N4_28  and  C21_30
REMARK   10  A    between atoms: C21_30  and  C22_32
REMARK   11  A    between atoms: C22_32  and  N5_33
REMARK   12  A    between atoms: C22_32  and  C23_37
REMARK   13  A    between atoms: C22_32  and  C25_39
ROOT
HETATM    1  C1  UNL     1       2.548 128.145 363.345  1.00  0.00     0.018 C
HETATM    2  C2  UNL     1       2.984 128.197 362.223  1.00  0.00    -0.073 C
HETATM    3  C3  UNL     1       3.485 128.153 360.886  1.00  0.00     0.071 A
HETATM    4  C4  UNL     1       2.714 127.426 359.968  1.00  0.00     0.113 A
HETATM    5  N1  UNL     1       3.225 127.200 358.764  1.00  0.00    -0.350 N
ATOM      6  H1  UNL     1       2.660 126.667 358.103  1.00  0.00     0.166 HD
HETATM    7  C5  UNL     1       4.401 127.609 358.361  1.00  0.00     0.113 A
HETATM    8  C6  UNL     1       5.237 128.375 359.261  1.00  0.00     0.063 A
HETATM    9  C27 UNL     1       4.743 128.616 360.484  1.00  0.00     0.151 A
HETATM   10  F1  UNL     1       5.423 129.300 361.441  1.00  0.00    -0.203 F
ENDROOT
BRANCH   8  11
HETATM   11  C7  UNL     1       6.479 128.698 358.614  1.00  0.00     0.112 C
BRANCH  11  12
HETATM   12  N3  UNL     1       7.485 129.570 359.093  1.00  0.00    -0.325 N
HETATM   13  C12 UNL     1       8.591 129.314 359.937  1.00  0.00     0.246 C
HETATM   14  O1  UNL     1       8.601 128.200 360.451  1.00  0.00    -0.271 OA
BRANCH  12  15
HETATM   15  C8  UNL     1       7.171 130.976 358.671  1.00  0.00     0.136 C
BRANCH  15  16
HETATM   16  C9  UNL     1       6.456 130.981 357.326  1.00  0.00     0.004 A
HETATM   17  C10 UNL     1       6.043 132.190 356.626  1.00  0.00     0.007 A
HETATM   18  C11 UNL     1       7.300 131.618 356.175  1.00  0.00     0.007 A
ENDBRANCH  15  16
ENDBRANCH  12  15
BRANCH  13  19
HETATM   19  C13 UNL     1       9.647 130.297 360.139  1.00  0.00     0.177 C
BRANCH  19  20
HETATM   20  C14 UNL     1       9.683 131.018 361.443  1.00  0.00     0.039 C
BRANCH  20  21
HETATM   21  C15 UNL     1       9.803 130.324 362.719  1.00  0.00    -0.012 C
HETATM   22  C16 UNL     1      11.176 130.701 363.336  1.00  0.00     0.005 C
HETATM   23  C17 UNL     1      11.197 131.913 364.153  1.00  0.00     0.000 C
HETATM   24  C18 UNL     1      10.169 131.848 365.303  1.00  0.00     0.000 C
HETATM   25  C19 UNL     1       8.845 131.742 364.595  1.00  0.00     0.000 C
HETATM   26  C20 UNL     1       8.823 130.442 363.817  1.00  0.00     0.005 C
ENDBRANCH  20  21
ENDBRANCH  19  20
BRANCH  19  27
HETATM   27  N4  UNL     1      10.959 129.532 360.164  1.00  0.00    -0.346 N
HETATM   28  C21 UNL     1      11.963 129.956 359.252  1.00  0.00     0.254 C
HETATM   29  O2  UNL     1      11.878 130.963 358.511  1.00  0.00    -0.271 OA
ATOM     30  H4  UNL     1      11.112 128.752 360.804  1.00  0.00     0.163 HD
BRANCH  28  31
HETATM   31  C22 UNL     1      13.233 129.141 359.108  1.00  0.00     0.202 C
BRANCH  31  32
HETATM   32  N5  UNL     1      12.903 127.803 358.643  1.00  0.00    -0.061 N
ATOM     33  H53 UNL     1      13.655 127.389 358.092  1.00  0.00     0.275 HD
ATOM     34  H52 UNL     1      12.888 127.123 359.403  1.00  0.00     0.275 HD
ATOM     35  H51 UNL     1      12.020 127.828 358.132  1.00  0.00     0.275 HD
ENDBRANCH  31  32
BRANCH  31  36
HETATM   36  C23 UNL     1      13.982 129.109 360.391  1.00  0.00     0.044 C
HETATM   37  C24 UNL     1      13.932 130.465 361.098  1.00  0.00     0.008 C
ENDBRANCH  31  36
BRANCH  31  38
HETATM   38  C25 UNL     1      13.961 129.920 358.021  1.00  0.00     0.044 C
HETATM   39  C26 UNL     1      15.059 129.279 357.300  1.00  0.00     0.008 C
ENDBRANCH  31  38
ENDBRANCH  28  31
ENDBRANCH  19  27
ENDBRANCH  13  19
ENDBRANCH  11  12
ENDBRANCH   8  11
BRANCH   7  40
HETATM   40  N2  UNL     1       4.876 127.317 357.214  1.00  0.00    -0.385 N
ATOM     41  H22 UNL     1       5.660 126.666 357.177  1.00  0.00     0.157 HD
ATOM     42  H21 UNL     1       4.477 127.673 356.345  1.00  0.00     0.157 HD
ENDBRANCH   7  40
TORSDOF 13
ENDMDL