MODEL 1
REMARK VINA RESULT: -7.670809066      0.000      0.000
REMARK  12 active torsions:
REMARK  status: ('A' for Active; 'I' for Inactive)
REMARK    1  A    between atoms: C2_2  and  C3_3
REMARK    2  A    between atoms: C3_3  and  C4_4
REMARK    3  A    between atoms: C3_3  and  C6_6
REMARK    4  A    between atoms: C3_3  and  C7_9
REMARK    5  A    between atoms: C7_9  and  C8_10
REMARK    6  A    between atoms: C7_9  and  N2_16
REMARK    7  A    between atoms: C8_10  and  C9_11
REMARK    8  A    between atoms: C9_11  and  C10_12
REMARK       I    between atoms: N2_16  and  C13_18
REMARK       I    between atoms: C13_18  and  N3_20
REMARK    9  A    between atoms: N3_20  and  C14_22
REMARK   10  A    between atoms: C14_22  and  C15_23
REMARK   11  A    between atoms: C14_22  and  C22_34
REMARK       I    between atoms: C15_23  and  N4_25
REMARK   12  A    between atoms: C20_30  and  C21_31
ROOT
HETATM    1  N2  UNL     1       6.708 132.935 355.222  1.00  0.00    -0.337 N
ATOM      2  H2  UNL     1       7.559 133.456 355.012  1.00  0.00     0.164 HD
HETATM    3  C13 UNL     1       6.743 132.006 356.275  1.00  0.00     0.317 C
HETATM    4  O2  UNL     1       5.693 131.381 356.550  1.00  0.00    -0.247 OA
HETATM    5  N3  UNL     1       7.895 131.732 357.048  1.00  0.00    -0.330 N
ATOM      6  H3  UNL     1       8.763 132.229 356.847  1.00  0.00     0.165 HD
ENDROOT
BRANCH   1   7
HETATM    7  C7  UNL     1       5.500 133.203 354.394  1.00  0.00     0.103 C
BRANCH   7   8
HETATM    8  C3  UNL     1       5.760 132.767 352.989  1.00  0.00     0.058 C
BRANCH   8   9
HETATM    9  C2  UNL     1       5.611 133.850 351.995  1.00  0.00     0.016 C
HETATM   10  C1  UNL     1       5.329 133.306 350.584  1.00  0.00     0.006 C
ENDBRANCH   8   9
BRANCH   8  11
HETATM   11  C4  UNL     1       4.758 131.622 352.665  1.00  0.00     0.016 C
HETATM   12  C5  UNL     1       3.799 131.328 353.733  1.00  0.00     0.006 C
ENDBRANCH   8  11
BRANCH   8  13
HETATM   13  C6  UNL     1       7.100 132.147 352.823  1.00  0.00     0.241 C
HETATM   14  N1  UNL     1       7.381 130.770 353.063  1.00  0.00    -0.061 NA
HETATM   15  O1  UNL     1       8.127 132.811 352.445  1.00  0.00    -0.276 OA
ENDBRANCH   8  13
ENDBRANCH   7   8
BRANCH   7  16
HETATM   16  C8  UNL     1       5.025 134.537 354.738  1.00  0.00     0.030 C
BRANCH  16  17
HETATM   17  C9  UNL     1       3.701 134.723 355.359  1.00  0.00     0.045 C
BRANCH  17  18
HETATM   18  C10 UNL     1       3.391 136.209 355.572  1.00  0.00     0.096 C
HETATM   19  C11 UNL     1       4.214 137.063 354.669  1.00  0.00     0.051 C
HETATM   20  C12 UNL     1       1.948 136.525 355.365  1.00  0.00     0.051 C
HETATM   21  F1  UNL     1       3.726 136.494 356.880  1.00  0.00    -0.244 F
ENDBRANCH  17  18
ENDBRANCH  16  17
ENDBRANCH   7  16
ENDBRANCH   1   7
BRANCH   5  22
HETATM   22  C14 UNL     1       7.865 130.731 358.152  1.00  0.00     0.181 C
BRANCH  22  23
HETATM   23  C15 UNL     1       9.222 130.475 358.630  1.00  0.00     0.243 C
HETATM   24  O3  UNL     1      10.160 130.789 357.816  1.00  0.00    -0.271 OA
HETATM   25  N4  UNL     1       9.619 129.934 359.859  1.00  0.00    -0.336 N
HETATM   26  C16 UNL     1       8.595 129.658 360.915  1.00  0.00     0.127 C
HETATM   27  C20 UNL     1      10.935 129.598 360.304  1.00  0.00     0.188 C
HETATM   28  C17 UNL     1       8.969 130.443 362.154  1.00  0.00     0.020 C
HETATM   29  C18 UNL     1      10.407 130.526 362.475  1.00  0.00     0.004 C
HETATM   30  C19 UNL     1      11.319 130.720 361.281  1.00  0.00     0.036 C
BRANCH  27  31
HETATM   31  C21 UNL     1      11.954 129.195 359.384  1.00  0.00     0.196 C
HETATM   32  O4  UNL     1      11.967 128.169 358.711  1.00  0.00    -0.646 OA
HETATM   33  O5  UNL     1      13.072 130.059 359.221  1.00  0.00    -0.646 OA
ENDBRANCH  27  31
ENDBRANCH  22  23
BRANCH  22  34
HETATM   34  C22 UNL     1       7.155 129.516 357.604  1.00  0.00     0.009 C
HETATM   35  C23 UNL     1       8.061 128.550 356.899  1.00  0.00     0.012 C
HETATM   36  C24 UNL     1       6.353 128.801 358.631  1.00  0.00     0.012 C
ENDBRANCH  22  34
ENDBRANCH   5  22
TORSDOF 12
ENDMDL