MODEL 4
REMARK VINA RESULT: -7.770064481      2.769      4.553
REMARK  11 active torsions:
REMARK  status: ('A' for Active; 'I' for Inactive)
REMARK    1  A    between atoms: C9_12  and  C10_13
REMARK    2  A    between atoms: C10_13  and  C11_14
REMARK    3  A    between atoms: C11_14  and  C12_15
REMARK    4  A    between atoms: C12_15  and  N2_16
REMARK    5  A    between atoms: N2_16  and  C13_18
REMARK    6  A    between atoms: C13_18  and  C14_19
REMARK    7  A    between atoms: C14_19  and  C15_20
REMARK    8  A    between atoms: C15_20  and  C16_21
REMARK    9  A    between atoms: N3_24  and  C19_25
REMARK   10  A    between atoms: C19_25  and  C20_26
REMARK   11  A    between atoms: C20_26  and  N4_27
ROOT
HETATM    1  N2  UNL     1       7.859 129.374 361.862  1.00  0.00    -0.402 N
ATOM      2  H2  UNL     1       8.849 129.204 361.684  1.00  0.00     0.158 HD
ENDROOT
BRANCH   1   3
HETATM    3  C12 UNL     1       7.491 129.810 363.137  1.00  0.00     0.119 C
BRANCH   3   4
HETATM    4  C11 UNL     1       8.768 130.380 363.877  1.00  0.00     0.024 C
BRANCH   4   5
HETATM    5  C10 UNL     1       9.409 131.210 362.830  1.00  0.00     0.043 C
BRANCH   5   6
HETATM    6  C9  UNL     1      10.853 131.251 362.748  1.00  0.00    -0.023 A
HETATM    7  C2  UNL     1      11.840 131.745 363.549  1.00  0.00     0.013 A
HETATM    8  C1  UNL     1      11.593 132.423 364.838  1.00  0.00     0.068 C
HETATM    9  N1  UNL     1      13.022 131.495 362.944  1.00  0.00    -0.359 N
HETATM   10  C3  UNL     1      12.860 130.864 361.788  1.00  0.00     0.044 A
ATOM     11  H1  UNL     1      13.929 131.759 363.329  1.00  0.00     0.166 HD
HETATM   12  C4  UNL     1      13.748 130.401 360.821  1.00  0.00     0.049 A
HETATM   13  C8  UNL     1      11.509 130.694 361.633  1.00  0.00    -0.001 A
HETATM   14  C5  UNL     1      13.275 129.766 359.693  1.00  0.00     0.013 A
HETATM   15 BR1  UNL     1      14.431 129.103 358.326  1.00  0.00    -0.051 Br
HETATM   16  C6  UNL     1      11.926 129.582 359.510  1.00  0.00     0.020 A
HETATM   17  C7  UNL     1      11.074 130.049 360.482  1.00  0.00     0.015 A
ENDBRANCH   5   6
ENDBRANCH   4   5
ENDBRANCH   3   4
ENDBRANCH   1   3
BRANCH   1  18
HETATM   18  C13 UNL     1       6.979 129.159 360.837  1.00  0.00     0.055 C
BRANCH  18  19
HETATM   19  C14 UNL     1       6.696 130.108 359.738  1.00  0.00     0.044 C
BRANCH  19  20
HETATM   20  C15 UNL     1       7.764 131.082 359.447  1.00  0.00     0.010 C
BRANCH  20  21
HETATM   21  C16 UNL     1       7.563 131.747 358.067  1.00  0.00    -0.008 C
HETATM   22  C17 UNL     1       7.956 130.886 356.944  1.00  0.00     0.049 C
HETATM   23  C18 UNL     1       7.503 131.457 355.601  1.00  0.00     0.063 C
HETATM   24  N3  UNL     1       6.203 131.936 355.642  1.00  0.00    -0.372 N
HETATM   25  C22 UNL     1       5.898 132.882 356.645  1.00  0.00     0.127 C
HETATM   26  C23 UNL     1       6.223 132.397 358.025  1.00  0.00     0.025 C
BRANCH  24  27
HETATM   27  C19 UNL     1       5.203 131.421 354.837  1.00  0.00     0.082 C
BRANCH  27  28
HETATM   28  C20 UNL     1       4.889 129.976 355.083  1.00  0.00     0.166 C
BRANCH  28  29
HETATM   29  N4  UNL     1       4.085 129.713 356.240  1.00  0.00    -0.362 N
HETATM   30  C21 UNL     1       4.475 128.804 357.103  1.00  0.00     0.197 C
HETATM   31  N5  UNL     1       5.703 128.103 356.845  1.00  0.00    -0.067 NA
HETATM   32  N6  UNL     1       3.752 128.481 358.272  1.00  0.00    -0.067 NA
ATOM     33  H4  UNL     1       3.217 130.227 356.391  1.00  0.00     0.162 HD
ENDBRANCH  28  29
ENDBRANCH  27  28
ENDBRANCH  24  27
ENDBRANCH  20  21
ENDBRANCH  19  20
ENDBRANCH  18  19
ENDBRANCH   1  18
TORSDOF 11
ENDMDL