MODEL 5
REMARK VINA RESULT: -8.367633024      1.366      1.766
REMARK  12 active torsions:
REMARK  status: ('A' for Active; 'I' for Inactive)
REMARK    1  A    between atoms: N1_1  and  C1_5
REMARK    2  A    between atoms: N2_8  and  C4_9
REMARK    3  A    between atoms: C4_9  and  C5_10
REMARK    4  A    between atoms: C5_10  and  C6_11
REMARK    5  A    between atoms: C6_11  and  C7_12
REMARK    6  A    between atoms: C7_12  and  C8_13
REMARK    7  A    between atoms: C8_13  and  C9_14
REMARK    8  A    between atoms: C9_14  and  N3_15
REMARK    9  A    between atoms: N5_25  and  C16_27
REMARK   10  A    between atoms: C16_27  and  C17_28
REMARK   11  A    between atoms: C17_28  and  C18_29
REMARK   12  A    between atoms: C18_29  and  N6_30
ROOT
HETATM    1  N3  UNL     1       8.450 129.758 359.178  1.00  0.00    -0.365 N
HETATM    2  C10 UNL     1       8.342 129.544 360.505  1.00  0.00     0.092 A
HETATM    3  C11 UNL     1       7.120 129.144 361.010  1.00  0.00     0.047 A
HETATM    4  C12 UNL     1       6.026 128.969 360.157  1.00  0.00     0.047 A
HETATM    5  N4  UNL     1       4.824 128.579 360.629  1.00  0.00    -0.363 N
ATOM      6  H4  UNL     1       4.714 128.409 361.629  1.00  0.00     0.165 HD
HETATM    7  C13 UNL     1       3.771 128.408 359.817  1.00  0.00     0.114 A
HETATM    8  C14 UNL     1       3.876 128.628 358.437  1.00  0.00     0.076 A
HETATM    9 CL1  UNL     1       2.441 128.375 357.466  1.00  0.00    -0.080 Cl
HETATM   10  C15 UNL     1       5.092 129.026 357.943  1.00  0.00     0.065 A
HETATM   11  N5  UNL     1       5.282 129.245 356.729  1.00  0.00    -0.388 N
ATOM     12  H5  UNL     1       6.235 129.532 356.505  1.00  0.00     0.159 HD
HETATM   13  C22 UNL     1       6.188 129.199 358.820  1.00  0.00     0.034 A
HETATM   14  C23 UNL     1       7.411 129.598 358.323  1.00  0.00     0.106 A
ENDROOT
BRANCH   1  15
HETATM   15  C9  UNL     1       9.774 130.179 358.696  1.00  0.00     0.128 C
BRANCH  15  16
HETATM   16  C8  UNL     1      10.830 129.356 359.386  1.00  0.00     0.020 C
BRANCH  16  17
HETATM   17  C7  UNL     1      12.218 129.725 358.892  1.00  0.00     0.002 C
BRANCH  17  18
HETATM   18  C6  UNL     1      13.154 130.037 360.006  1.00  0.00     0.002 C
BRANCH  18  19
HETATM   19  C5  UNL     1      12.655 131.205 360.798  1.00  0.00     0.019 C
BRANCH  19  20
HETATM   20  C4  UNL     1      13.201 131.206 362.204  1.00  0.00     0.117 C
BRANCH  20  21
HETATM   21  N2  UNL     1      12.135 130.796 363.098  1.00  0.00    -0.412 N
HETATM   22  C3  UNL     1      12.313 131.169 364.460  1.00  0.00     0.119 C
HETATM   23  C2  UNL     1      11.380 132.317 364.852  1.00  0.00     0.052 C
HETATM   24  C1  UNL     1       9.954 131.948 364.616  1.00  0.00     0.186 C
HETATM   25  C25 UNL     1       9.839 130.721 363.709  1.00  0.00     0.052 C
HETATM   26  C24 UNL     1      10.825 131.000 362.568  1.00  0.00     0.119 C
BRANCH  24  27
HETATM   27  N1  UNL     1       9.213 131.798 365.836  1.00  0.00    -0.075 N
ATOM     28  H13 UNL     1       9.694 131.172 366.482  1.00  0.00     0.274 HD
ATOM     29  H12 UNL     1       9.237 132.656 366.389  1.00  0.00     0.274 HD
ATOM     30  H11 UNL     1       8.253 131.492 365.677  1.00  0.00     0.274 HD
ENDBRANCH  24  27
ENDBRANCH  20  21
ENDBRANCH  19  20
ENDBRANCH  18  19
ENDBRANCH  17  18
ENDBRANCH  16  17
ENDBRANCH  15  16
ENDBRANCH   1  15
BRANCH  11  31
HETATM   31  C16 UNL     1       4.438 129.172 355.621  1.00  0.00     0.121 C
BRANCH  31  32
HETATM   32  C17 UNL     1       4.663 130.344 354.642  1.00  0.00     0.040 C
BRANCH  32  33
HETATM   33  C18 UNL     1       5.433 131.408 355.410  1.00  0.00     0.139 C
BRANCH  33  34
HETATM   34  N6  UNL     1       5.732 132.546 354.603  1.00  0.00    -0.226 N
HETATM   35  C19 UNL     1       5.144 133.688 354.650  1.00  0.00     0.677 A
HETATM   36  N7  UNL     1       4.139 134.047 355.458  1.00  0.00    -0.201 N
HETATM   37  N8  UNL     1       5.463 134.724 353.869  1.00  0.00    -0.201 N
HETATM   38  C20 UNL     1       3.829 135.322 355.177  1.00  0.00     0.123 A
ATOM     39  H7  UNL     1       3.690 133.458 356.160  1.00  0.00     0.183 HD
HETATM   40  C21 UNL     1       4.663 135.757 354.172  1.00  0.00     0.123 A
ATOM     41  H8  UNL     1       6.195 134.728 353.158  1.00  0.00     0.183 HD
ATOM     42  H6  UNL     1       6.485 132.443 353.922  1.00  0.00     0.177 HD
ENDBRANCH  33  34
ENDBRANCH  32  33
ENDBRANCH  31  32
ENDBRANCH  11  31
TORSDOF 12
ENDMDL