MODEL 5
REMARK VINA RESULT: -7.343782259      0.919      1.412
REMARK  15 active torsions:
REMARK  status: ('A' for Active; 'I' for Inactive)
REMARK    1  A    between atoms: C2_2  and  C3_3
REMARK    2  A    between atoms: C3_3  and  C4_4
REMARK    3  A    between atoms: C4_4  and  C5_5
REMARK    4  A    between atoms: C5_5  and  O1_6
REMARK    5  A    between atoms: O1_6  and  C6_7
REMARK    6  A    between atoms: C6_7  and  N1_9
REMARK    7  A    between atoms: C6_7  and  C8_13
REMARK    8  A    between atoms: C8_13  and  C9_14
REMARK    9  A    between atoms: C9_14  and  N2_15
REMARK   10  A    between atoms: C9_14  and  C18_30
REMARK       I    between atoms: N2_15  and  C10_17
REMARK       I    between atoms: N4_19  and  C11_21
REMARK       I    between atoms: C11_21  and  N5_23
REMARK   11  A    between atoms: N5_23  and  C12_24
REMARK   12  A    between atoms: N5_23  and  C14_26
REMARK   13  A    between atoms: C18_30  and  O3_31
REMARK   14  A    between atoms: C18_30  and  N6_33
REMARK   15  A    between atoms: N6_33  and  C19_35
ROOT
HETATM    1  C9  UNL     1       7.547 129.679 361.101  1.00  0.00     0.163 C
ENDROOT
BRANCH   1   2
HETATM    2  C8  UNL     1       6.166 129.888 360.725  1.00  0.00     0.101 C
BRANCH   2   3
HETATM    3  C6  UNL     1       5.547 129.361 359.501  1.00  0.00     0.222 C
HETATM    4  C7  UNL     1       5.608 130.028 358.213  1.00  0.00     0.078 C
BRANCH   3   5
HETATM    5  O1  UNL     1       4.202 129.024 359.824  1.00  0.00    -0.355 OA
BRANCH   5   6
HETATM    6  C5  UNL     1       4.030 128.655 361.128  1.00  0.00     0.171 C
BRANCH   6   7
HETATM    7  C4  UNL     1       2.712 128.009 361.360  1.00  0.00     0.026 C
BRANCH   7   8
HETATM    8  C3  UNL     1       1.717 128.239 360.282  1.00  0.00     0.002 C
BRANCH   8   9
HETATM    9  C2  UNL     1       1.475 127.065 359.406  1.00  0.00    -0.004 C
HETATM   10  C1  UNL     1       1.521 127.581 357.956  1.00  0.00     0.005 C
ENDBRANCH   8   9
ENDBRANCH   7   8
ENDBRANCH   6   7
ENDBRANCH   5   6
ENDBRANCH   3   5
BRANCH   3  11
HETATM   11  N1  UNL     1       6.237 128.018 359.305  1.00  0.00    -0.047 N
ATOM     12  H13 UNL     1       7.033 128.047 358.668  1.00  0.00     0.278 HD
ATOM     13  H12 UNL     1       6.755 127.692 360.120  1.00  0.00     0.278 HD
ATOM     14  H11 UNL     1       5.489 127.391 359.008  1.00  0.00     0.278 HD
ENDBRANCH   3  11
ENDBRANCH   2   3
ENDBRANCH   1   2
BRANCH   1  15
HETATM   15  N2  UNL     1       8.447 130.414 360.125  1.00  0.00    -0.352 N
HETATM   16  C10 UNL     1       9.420 129.641 359.474  1.00  0.00     0.192 C
HETATM   17  N3  UNL     1       9.062 128.973 358.271  1.00  0.00    -0.063 NA
HETATM   18  N4  UNL     1      10.602 129.566 359.981  1.00  0.00    -0.283 N
HETATM   19  C11 UNL     1      11.558 128.771 359.288  1.00  0.00     0.325 C
ATOM     20  H4  UNL     1      10.843 130.056 360.842  1.00  0.00     0.173 HD
HETATM   21  O2  UNL     1      11.155 127.714 358.782  1.00  0.00    -0.247 OA
HETATM   22  N5  UNL     1      12.920 129.152 359.167  1.00  0.00    -0.326 N
ATOM     23  H2  UNL     1       8.351 131.414 359.952  1.00  0.00     0.163 HD
BRANCH  22  24
HETATM   24  C12 UNL     1      13.350 130.396 359.783  1.00  0.00     0.124 C
HETATM   25  C13 UNL     1      12.709 131.595 359.115  1.00  0.00     0.026 C
ENDBRANCH  22  24
BRANCH  22  26
HETATM   26  C14 UNL     1      13.795 128.284 358.441  1.00  0.00     0.026 C
HETATM   27  C15 UNL     1      13.368 128.026 357.028  1.00  0.00     0.037 C
HETATM   28  C16 UNL     1      13.864 126.968 359.205  1.00  0.00     0.037 C
HETATM   29  C17 UNL     1      15.168 128.922 358.396  1.00  0.00     0.037 C
ENDBRANCH  22  26
ENDBRANCH   1  15
BRANCH   1  30
HETATM   30  C18 UNL     1       8.085 130.112 362.369  1.00  0.00     0.135 C
BRANCH  30  31
HETATM   31  O3  UNL     1       7.600 129.336 363.374  1.00  0.00    -0.348 OA
ATOM     32  H3  UNL     1       6.758 128.970 363.128  1.00  0.00     0.219 HD
ENDBRANCH  30  31
BRANCH  30  33
HETATM   33  N6  UNL     1       8.952 131.082 362.838  1.00  0.00    -0.368 N
ATOM     34  H6  UNL     1       8.762 132.069 362.661  1.00  0.00     0.161 HD
BRANCH  33  35
HETATM   35  C19 UNL     1      10.166 130.679 363.605  1.00  0.00     0.083 C
HETATM   36  C20 UNL     1      11.413 130.982 362.827  1.00  0.00     0.025 C
HETATM   37  C21 UNL     1      12.569 130.958 363.832  1.00  0.00     0.002 C
HETATM   38  C22 UNL     1      12.520 132.282 364.560  1.00  0.00     0.000 C
HETATM   39  C23 UNL     1      11.090 132.618 364.879  1.00  0.00     0.002 C
HETATM   40  C24 UNL     1      10.205 131.380 364.919  1.00  0.00     0.025 C
ENDBRANCH  33  35
ENDBRANCH  30  33
ENDBRANCH   1  30
TORSDOF 15
ENDMDL