MODEL 3
REMARK VINA RESULT: -8.077159903      2.321      4.071
REMARK  12 active torsions:
REMARK  status: ('A' for Active; 'I' for Inactive)
REMARK    1  A    between atoms: C2_2  and  C3_4
REMARK    2  A    between atoms: C3_4  and  N1_5
REMARK    3  A    between atoms: C3_4  and  C11_17
REMARK       I    between atoms: N1_5  and  C4_7
REMARK       I    between atoms: C4_7  and  N2_9
REMARK    4  A    between atoms: N2_9  and  C5_11
REMARK       I    between atoms: C11_17  and  N3_19
REMARK    5  A    between atoms: N3_19  and  C12_21
REMARK    6  A    between atoms: C12_21  and  C13_22
REMARK    7  A    between atoms: C12_21  and  C17_26
REMARK    8  A    between atoms: C13_22  and  C14_23
REMARK       I    between atoms: C17_26  and  N4_28
REMARK    9  A    between atoms: N4_28  and  C18_30
REMARK   10  A    between atoms: C18_30  and  C19_31
REMARK   11  A    between atoms: C19_31  and  C20_32
REMARK   12  A    between atoms: C20_32  and  C21_33
ROOT
HETATM    1  C11 UNL     1       7.240 130.676 358.982  1.00  0.00     0.250 C
HETATM    2  O2  UNL     1       8.104 131.490 358.533  1.00  0.00    -0.270 OA
HETATM    3  N3  UNL     1       7.575 129.935 360.126  1.00  0.00    -0.324 N
ATOM      4  H3  UNL     1       6.896 129.271 360.497  1.00  0.00     0.169 HD
ENDROOT
BRANCH   1   5
HETATM    5  C3  UNL     1       5.955 130.593 358.244  1.00  0.00     0.218 C
BRANCH   5   6
HETATM    6  C2  UNL     1       5.332 129.250 358.311  1.00  0.00     0.011 C
HETATM    7  C1  UNL     1       5.401 128.422 357.286  1.00  0.00     0.029 C
HETATM    8 BR1  UNL     1       4.429 128.750 359.910  1.00  0.00    -0.054 Br
ENDBRANCH   5   6
BRANCH   5   9
HETATM    9  N1  UNL     1       6.095 130.957 356.862  1.00  0.00    -0.325 N
HETATM   10  C4  UNL     1       5.797 132.268 356.437  1.00  0.00     0.317 C
HETATM   11  O1  UNL     1       5.417 133.115 357.278  1.00  0.00    -0.247 OA
HETATM   12  N2  UNL     1       5.917 132.662 355.086  1.00  0.00    -0.339 N
ATOM     13  H2  UNL     1       6.217 131.965 354.405  1.00  0.00     0.164 HD
ATOM     14  H1  UNL     1       6.411 130.264 356.184  1.00  0.00     0.165 HD
BRANCH  12  15
HETATM   15  C5  UNL     1       5.638 133.996 354.618  1.00  0.00     0.086 C
HETATM   16  C6  UNL     1       5.824 134.121 353.126  1.00  0.00     0.025 C
HETATM   17  C7  UNL     1       5.372 135.443 352.630  1.00  0.00     0.002 C
HETATM   18  C8  UNL     1       5.050 136.458 353.671  1.00  0.00     0.000 C
HETATM   19  C9  UNL     1       4.145 135.944 354.754  1.00  0.00     0.002 C
HETATM   20  C10 UNL     1       4.220 134.448 354.942  1.00  0.00     0.025 C
ENDBRANCH  12  15
ENDBRANCH   5   9
ENDBRANCH   1   5
BRANCH   3  21
HETATM   21  C12 UNL     1       8.853 130.080 360.801  1.00  0.00     0.080 C
BRANCH  21  22
HETATM   22  C13 UNL     1       9.859 129.097 360.316  1.00  0.00     0.067 C
BRANCH  22  23
HETATM   23  C14 UNL     1      10.916 129.572 359.409  1.00  0.00    -0.017 C
HETATM   24  C15 UNL     1      11.727 128.575 358.673  1.00  0.00     0.010 C
HETATM   25  C16 UNL     1      11.912 130.360 360.282  1.00  0.00     0.010 C
ENDBRANCH  22  23
ENDBRANCH  21  22
BRANCH  21  26
HETATM   26  C17 UNL     1       8.767 130.354 362.224  1.00  0.00     0.264 C
HETATM   27  O3  UNL     1       7.848 129.721 362.860  1.00  0.00    -0.266 OA
HETATM   28  N4  UNL     1       9.598 131.254 362.935  1.00  0.00    -0.356 N
ATOM     29  H4  UNL     1      10.333 131.745 362.426  1.00  0.00     0.162 HD
BRANCH  28  30
HETATM   30  C18 UNL     1       9.453 131.504 364.328  1.00  0.00     0.123 C
BRANCH  30  31
HETATM   31  C19 UNL     1      10.692 131.642 365.142  1.00  0.00     0.020 C
BRANCH  31  32
HETATM   32  C20 UNL     1      11.862 130.945 364.491  1.00  0.00     0.001 C
BRANCH  32  33
HETATM   33  C21 UNL     1      12.889 131.985 364.088  1.00  0.00    -0.004 C
HETATM   34  C22 UNL     1      12.621 133.267 364.881  1.00  0.00     0.005 C
ENDBRANCH  32  33
ENDBRANCH  31  32
ENDBRANCH  30  31
ENDBRANCH  28  30
ENDBRANCH  21  26
ENDBRANCH   3  21
TORSDOF 12
ENDMDL