MODEL 5
REMARK VINA RESULT: -7.956683173      1.545      2.288
REMARK  12 active torsions:
REMARK  status: ('A' for Active; 'I' for Inactive)
REMARK    1  A    between atoms: C2_2  and  C3_3
REMARK    2  A    between atoms: C3_3  and  C5_5
REMARK    3  A    between atoms: C5_5  and  C6_6
REMARK    4  A    between atoms: C5_5  and  N1_14
REMARK       I    between atoms: N1_14  and  C13_16
REMARK    5  A    between atoms: C13_16  and  C14_18
REMARK    6  A    between atoms: C14_18  and  N2_19
REMARK    7  A    between atoms: C14_18  and  C22_32
REMARK       I    between atoms: N2_19  and  C15_20
REMARK    8  A    between atoms: C15_20  and  C16_22
REMARK    9  A    between atoms: C16_22  and  C17_23
REMARK   10  A    between atoms: C16_22  and  N3_27
REMARK   11  A    between atoms: C17_23  and  C18_24
REMARK   12  A    between atoms: C22_32  and  C24_34
ROOT
HETATM    1  C14 UNL     1       6.361 129.201 359.146  1.00  0.00     0.180 C
ENDROOT
BRANCH   1   2
HETATM    2  C13 UNL     1       7.669 129.168 359.977  1.00  0.00     0.283 C
HETATM    3  N1  UNL     1       8.382 130.287 360.387  1.00  0.00    -0.347 N
ATOM      4  H1  UNL     1       8.055 131.220 360.134  1.00  0.00     0.163 HD
HETATM    5  O1  UNL     1       8.100 128.021 360.306  1.00  0.00    -0.265 OA
BRANCH   3   6
HETATM    6  C5  UNL     1       9.624 130.128 361.198  1.00  0.00     0.112 C
BRANCH   6   7
HETATM    7  C3  UNL     1      10.754 130.605 360.414  1.00  0.00     0.008 C
HETATM    8  C4  UNL     1      10.316 130.882 358.992  1.00  0.00     0.012 C
BRANCH   7   9
HETATM    9  C2  UNL     1      11.906 129.628 360.305  1.00  0.00     0.002 C
HETATM   10  C1  UNL     1      13.227 130.318 360.125  1.00  0.00     0.005 C
ENDBRANCH   7   9
ENDBRANCH   6   7
BRANCH   6  11
HETATM   11  C6  UNL     1       9.389 130.785 362.491  1.00  0.00     0.008 C
HETATM   12  C7  UNL     1      10.195 131.219 363.400  1.00  0.00    -0.036 C
HETATM   13  C8  UNL     1       9.757 131.858 364.640  1.00  0.00    -0.058 C
HETATM   14  C12 UNL     1      11.664 131.199 363.476  1.00  0.00     0.119 C
HETATM   15  C9  UNL     1       8.369 131.810 365.228  1.00  0.00     0.048 C
HETATM   16  C10 UNL     1      10.756 132.502 365.194  1.00  0.00    -0.018 C
HETATM   17  C11 UNL     1      12.003 132.387 364.410  1.00  0.00     0.052 C
HETATM   18 CL1  UNL     1      12.335 129.763 364.262  1.00  0.00    -0.120 Cl
ENDBRANCH   6  11
ENDBRANCH   3   6
ENDBRANCH   1   2
BRANCH   1  19
HETATM   19  N2  UNL     1       6.538 129.411 357.858  1.00  0.00    -0.363 NA
HETATM   20  C15 UNL     1       6.735 129.633 356.462  1.00  0.00     0.315 C
HETATM   21  O2  UNL     1       7.531 128.947 355.804  1.00  0.00    -0.255 OA
BRANCH  20  22
HETATM   22  C16 UNL     1       6.008 130.711 355.689  1.00  0.00     0.191 C
BRANCH  22  23
HETATM   23  C17 UNL     1       6.167 132.052 356.255  1.00  0.00     0.040 C
BRANCH  23  24
HETATM   24  C18 UNL     1       6.104 133.238 355.379  1.00  0.00    -0.020 C
HETATM   25  C19 UNL     1       4.798 133.956 355.343  1.00  0.00     0.009 C
HETATM   26  C20 UNL     1       6.600 132.968 353.966  1.00  0.00     0.009 C
ENDBRANCH  23  24
ENDBRANCH  22  23
BRANCH  22  27
HETATM   27  N3  UNL     1       4.656 130.264 355.581  1.00  0.00    -0.352 N
HETATM   28  C21 UNL     1       3.909 130.076 354.582  1.00  0.00     0.197 C
HETATM   29  N4  UNL     1       4.218 130.265 353.211  1.00  0.00    -0.067 NA
HETATM   30  N5  UNL     1       2.555 129.618 354.830  1.00  0.00    -0.067 NA
ATOM     31  H3  UNL     1       4.212 130.058 356.476  1.00  0.00     0.162 HD
ENDBRANCH  22  27
ENDBRANCH  20  22
ENDBRANCH   1  19
BRANCH   1  32
HETATM   32  C22 UNL     1       5.397 128.350 359.837  1.00  0.00    -0.038 C
HETATM   33  C23 UNL     1       4.749 129.076 361.016  1.00  0.00     0.047 C
BRANCH  32  34
HETATM   34  C24 UNL     1       4.390 127.530 359.144  1.00  0.00     0.033 C
HETATM   35  C25 UNL     1       3.009 127.551 359.767  1.00  0.00     0.010 C
ENDBRANCH  32  34
ENDBRANCH   1  32
TORSDOF 12
ENDMDL