MODEL 3
REMARK VINA RESULT: -7.998238596      2.476      6.032
REMARK  5 active torsions:
REMARK  status: ('A' for Active; 'I' for Inactive)
REMARK    1  A    between atoms: N1_1  and  C1_5
REMARK    2  A    between atoms: C1_5  and  C2_6
REMARK    3  A    between atoms: C7_11  and  N2_12
REMARK    4  A    between atoms: N2_12  and  C8_14
REMARK    5  A    between atoms: C8_14  and  C9_15
ROOT
HETATM    1  C2  UNL     1      13.677  16.894   2.566  1.00  0.00    -0.005 A
HETATM    2  C3  UNL     1      12.781  16.392   1.630  1.00  0.00     0.011 A
HETATM    3  C4  UNL     1      12.401  15.062   1.640  1.00  0.00     0.002 A
HETATM    4  C5  UNL     1      12.952  14.257   2.623  1.00  0.00     0.017 A
HETATM    5  C6  UNL     1      13.843  14.726   3.565  1.00  0.00     0.035 A
HETATM    6  C7  UNL     1      14.358  13.869   4.521  1.00  0.00     0.114 A
HETATM    7  N3  UNL     1      15.222  14.399   5.407  1.00  0.00    -0.338 N
ATOM      8  H3  UNL     1      15.621  13.798   6.127  1.00  0.00     0.168 HD
HETATM    9  C15 UNL     1      15.575  15.705   5.372  1.00  0.00     0.182 A
HETATM   10  N4  UNL     1      15.079  16.548   4.445  1.00  0.00    -0.351 N
ATOM     11  H4  UNL     1      15.355  17.529   4.431  1.00  0.00     0.166 HD
HETATM   12  C16 UNL     1      14.214  16.067   3.539  1.00  0.00     0.055 A
ENDROOT
BRANCH   6  13
HETATM   13  N2  UNL     1      13.986  12.655   4.500  1.00  0.00    -0.371 N
ATOM     14  H2  UNL     1      12.982  12.493   4.415  1.00  0.00     0.161 HD
BRANCH  13  15
HETATM   15  C8  UNL     1      14.806  11.491   4.581  1.00  0.00     0.160 C
BRANCH  15  16
HETATM   16  C9  UNL     1      15.856  11.595   3.535  1.00  0.00    -0.041 A
HETATM   17  C10 UNL     1      15.563  11.741   2.194  1.00  0.00     0.009 A
HETATM   18  C11 UNL     1      16.577  11.837   1.241  1.00  0.00     0.001 A
HETATM   19  C12 UNL     1      17.904  11.787   1.608  1.00  0.00     0.000 A
HETATM   20  C13 UNL     1      18.196  11.642   2.947  1.00  0.00     0.001 A
HETATM   21  C14 UNL     1      17.190  11.548   3.886  1.00  0.00     0.009 A
ENDBRANCH  15  16
ENDBRANCH  13  15
ENDBRANCH   6  13
BRANCH   1  22
HETATM   22  C1  UNL     1      14.103  18.317   2.578  1.00  0.00     0.270 C
BRANCH  22  23
HETATM   23  N1  UNL     1      15.215  18.487   1.662  1.00  0.00    -0.075 N
ATOM     24  H13 UNL     1      16.117  18.451   2.137  1.00  0.00     0.274 HD
ATOM     25  H12 UNL     1      15.341  17.680   1.051  1.00  0.00     0.274 HD
ATOM     26  H11 UNL     1      15.086  19.353   1.139  1.00  0.00     0.274 HD
ENDBRANCH  22  23
ENDBRANCH   1  22
TORSDOF 5
ENDMDL