MODEL 1
REMARK VINA RESULT: -7.861788511      0.000      0.000
REMARK  4 active torsions:
REMARK  status: ('A' for Active; 'I' for Inactive)
REMARK    1  A    between atoms: C4_5  and  C5_6
REMARK    2  A    between atoms: C5_6  and  C6_7
REMARK    3  A    between atoms: C6_7  and  N2_8
REMARK    4  A    between atoms: N2_8  and  C7_10
ROOT
HETATM    1  C7  UNL     1      15.907  10.859   5.928  1.00  0.00     0.114 A
HETATM    2  N3  UNL     1      15.402  11.544   6.969  1.00  0.00    -0.338 N
ATOM      3  H3  UNL     1      14.637  11.152   7.518  1.00  0.00     0.168 HD
HETATM    4  C8  UNL     1      15.916  12.757   7.287  1.00  0.00     0.182 A
HETATM    5  N4  UNL     1      16.925  13.303   6.586  1.00  0.00    -0.352 N
ATOM      6  H4  UNL     1      17.296  14.218   6.844  1.00  0.00     0.166 HD
HETATM    7  C9  UNL     1      17.437  12.635   5.549  1.00  0.00     0.047 A
HETATM    8  C10 UNL     1      18.480  13.254   4.864  1.00  0.00     0.030 A
HETATM    9  C11 UNL     1      19.022  12.597   3.802  1.00  0.00     0.002 A
HETATM   10  C12 UNL     1      18.539  11.349   3.424  1.00  0.00     0.001 A
HETATM   11  C13 UNL     1      17.502  10.743   4.114  1.00  0.00     0.017 A
HETATM   12  C14 UNL     1      16.948  11.398   5.187  1.00  0.00     0.034 A
ENDROOT
BRANCH   1  13
HETATM   13  N2  UNL     1      15.439   9.704   5.603  1.00  0.00    -0.375 N
ATOM     14  H2  UNL     1      16.055   8.894   5.674  1.00  0.00     0.161 HD
BRANCH  13  15
HETATM   15  C6  UNL     1      14.084   9.498   5.143  1.00  0.00     0.126 C
BRANCH  15  16
HETATM   16  C5  UNL     1      14.050   9.483   3.610  1.00  0.00     0.058 C
BRANCH  16  17
HETATM   17  C4  UNL     1      13.496  10.766   3.116  1.00  0.00    -0.057 A
HETATM   18  C3  UNL     1      12.114  10.949   3.089  1.00  0.00     0.009 A
HETATM   19  C2  UNL     1      11.595  12.141   2.630  1.00  0.00     0.027 A
HETATM   20  C1  UNL     1      12.381  13.185   2.188  1.00  0.00     0.046 A
HETATM   21  N1  UNL     1      11.793  14.390   1.727  1.00  0.00    -0.102 NA
HETATM   22  C16 UNL     1      13.746  12.986   2.223  1.00  0.00     0.027 A
HETATM   23  C15 UNL     1      14.293  11.801   2.677  1.00  0.00     0.009 A
ENDBRANCH  16  17
ENDBRANCH  15  16
ENDBRANCH  13  15
ENDBRANCH   1  13
TORSDOF 4
ENDMDL