MODEL 1
REMARK VINA RESULT: -8.712373895      0.000      0.000
REMARK  5 active torsions:
REMARK  status: ('A' for Active; 'I' for Inactive)
REMARK    1  A    between atoms: N1_1  and  N2_4
REMARK    2  A    between atoms: N2_4  and  C1_6
REMARK    3  A    between atoms: C3_10  and  C4_11
REMARK    4  A    between atoms: C4_11  and  C5_12
REMARK    5  A    between atoms: C5_12  and  C6_13
ROOT
HETATM    1  C1  UNL     1      16.707  13.259   7.223  1.00  0.00     0.710 A
HETATM    2  N3  UNL     1      16.030  12.263   6.602  1.00  0.00    -0.197 N
ATOM      3  H3  UNL     1      16.145  11.296   6.907  1.00  0.00     0.183 HD
HETATM    4  C2  UNL     1      15.200  12.556   5.572  1.00  0.00     0.132 A
HETATM    5  C3  UNL     1      15.060  13.857   5.176  1.00  0.00     0.042 A
HETATM    6  N4  UNL     1      15.729  14.833   5.791  1.00  0.00    -0.289 N
ATOM      7  H4  UNL     1      15.622  15.803   5.492  1.00  0.00     0.187 HD
HETATM    8  N5  UNL     1      16.534  14.524   6.794  1.00  0.00    -0.131 N
ATOM      9  H5  UNL     1      17.044  15.273   7.261  1.00  0.00     0.205 HD
ENDROOT
BRANCH   5  10
HETATM   10  C4  UNL     1      14.143  14.191   4.042  1.00  0.00     0.064 C
BRANCH  10  11
HETATM   11  C5  UNL     1      13.962  15.687   3.900  1.00  0.00     0.045 C
BRANCH  11  12
HETATM   12  C6  UNL     1      13.339  15.960   2.619  1.00  0.00    -0.047 A
HETATM   13  C7  UNL     1      12.380  15.056   2.159  1.00  0.00     0.008 A
HETATM   14  C8  UNL     1      11.712  15.245   0.968  1.00  0.00     0.001 A
HETATM   15  C9  UNL     1      11.982  16.355   0.187  1.00  0.00     0.012 A
HETATM   16  C10 UNL     1      12.921  17.261   0.615  1.00  0.00    -0.025 A
HETATM   17  C11 UNL     1      13.210  18.382  -0.168  1.00  0.00     0.012 A
HETATM   18  C15 UNL     1      13.579  17.053   1.812  1.00  0.00    -0.020 A
HETATM   19  C12 UNL     1      14.163  19.280   0.268  1.00  0.00     0.001 A
HETATM   20  C13 UNL     1      14.831  19.088   1.458  1.00  0.00     0.001 A
HETATM   21  C14 UNL     1      14.517  17.960   2.214  1.00  0.00     0.013 A
ENDBRANCH  11  12
ENDBRANCH  10  11
ENDBRANCH   5  10
BRANCH   1  22
HETATM   22  N2  UNL     1      17.503  12.982   8.209  1.00  0.00    -0.137 N
ATOM     23  H2  UNL     1      18.137  12.188   8.113  1.00  0.00     0.205 HD
BRANCH  22  24
HETATM   24  N1  UNL     1      17.534  13.713   9.389  1.00  0.00    -0.331 N
ATOM     25  H12 UNL     1      16.859  13.465  10.112  1.00  0.00     0.177 HD
ATOM     26  H11 UNL     1      18.193  14.474   9.557  1.00  0.00     0.177 HD
ENDBRANCH  22  24
ENDBRANCH   1  22
TORSDOF 5
ENDMDL