MODEL 3
REMARK VINA RESULT: -7.421685303      2.311      3.690
REMARK  4 active torsions:
REMARK  status: ('A' for Active; 'I' for Inactive)
REMARK    1  A    between atoms: C2_3  and  N2_4
REMARK    2  A    between atoms: N2_4  and  C3_5
REMARK    3  A    between atoms: C6_12  and  C7_13
REMARK    4  A    between atoms: C7_13  and  C8_14
ROOT
HETATM    1  N1  UNL     1      17.313  13.749   6.839  1.00  0.00    -0.190 NA
HETATM    2  C1  UNL     1      16.643  14.506   6.276  1.00  0.00     0.119 C
HETATM    3  C2  UNL     1      15.776  15.467   5.529  1.00  0.00     0.278 C
ENDROOT
BRANCH   3   4
HETATM    4  N2  UNL     1      15.034  14.804   4.635  1.00  0.00    -0.389 NA
BRANCH   4   5
HETATM    5  C3  UNL     1      14.389  14.203   3.854  1.00  0.00     0.188 A
HETATM    6  N3  UNL     1      14.671  12.899   3.527  1.00  0.00    -0.327 N
HETATM    7  C4  UNL     1      13.936  12.205   2.646  1.00  0.00     0.182 A
ATOM      8  H3  UNL     1      15.468  12.443   3.969  1.00  0.00     0.169 HD
HETATM    9  N4  UNL     1      12.892  12.757   2.049  1.00  0.00    -0.361 N
HETATM   10  C5  UNL     1      12.529  14.021   2.295  1.00  0.00     0.101 A
ATOM     11  H4  UNL     1      12.350  12.205   1.384  1.00  0.00     0.166 HD
HETATM   12  C6  UNL     1      13.286  14.746   3.206  1.00  0.00     0.020 A
BRANCH  12  13
HETATM   13  C7  UNL     1      12.938  16.142   3.504  1.00  0.00     0.086 C
BRANCH  13  14
HETATM   14  C8  UNL     1      13.600  17.072   2.557  1.00  0.00    -0.026 A
HETATM   15  C9  UNL     1      14.688  17.853   2.868  1.00  0.00     0.096 A
HETATM   16  N5  UNL     1      15.009  18.556   1.771  1.00  0.00    -0.365 N
HETATM   17  C10 UNL     1      14.174  18.261   0.767  1.00  0.00     0.042 A
ATOM     18  H5  UNL     1      15.780  19.221   1.711  1.00  0.00     0.165 HD
HETATM   19  C11 UNL     1      14.068  18.699  -0.559  1.00  0.00     0.030 A
HETATM   20  C15 UNL     1      13.283  17.329   1.247  1.00  0.00    -0.002 A
HETATM   21  C12 UNL     1      13.093  18.224  -1.404  1.00  0.00     0.002 A
HETATM   22  C13 UNL     1      12.207  17.293  -0.916  1.00  0.00     0.001 A
HETATM   23  C14 UNL     1      12.298  16.848   0.395  1.00  0.00     0.014 A
ENDBRANCH  13  14
ENDBRANCH  12  13
ENDBRANCH   4   5
ENDBRANCH   3   4
TORSDOF 4
ENDMDL