MODEL 3
REMARK VINA RESULT: -7.099427091      2.964      4.852
REMARK  3 active torsions:
REMARK  status: ('A' for Active; 'I' for Inactive)
REMARK    1  A    between atoms: C3_7  and  C4_8
REMARK    2  A    between atoms: N3_12  and  C8_13
REMARK    3  A    between atoms: C8_13  and  C9_14
ROOT
HETATM    1  C4  UNL     1      16.348  14.616   4.928  1.00  0.00     0.060 C
HETATM    2  C5  UNL     1      15.466  15.729   5.450  1.00  0.00     0.020 C
HETATM    3  C6  UNL     1      14.756  16.294   4.250  1.00  0.00     0.046 C
HETATM    4  C7  UNL     1      13.751  15.227   3.817  1.00  0.00     0.063 C
HETATM    5  N3  UNL     1      14.361  14.016   3.550  1.00  0.00    -0.371 N
HETATM    6  C15 UNL     1      15.657  13.700   4.000  1.00  0.00     0.072 C
ENDROOT
BRANCH   5   7
HETATM    7  C8  UNL     1      13.570  12.840   3.481  1.00  0.00     0.160 C
BRANCH   7   8
HETATM    8  C9  UNL     1      14.199  11.523   3.797  1.00  0.00     0.204 C
HETATM    9  C10 UNL     1      13.965  10.481   2.807  1.00  0.00     0.035 C
HETATM   10  C11 UNL     1      13.760   9.086   3.296  1.00  0.00     0.002 C
HETATM   11  C12 UNL     1      14.255   8.784   4.671  1.00  0.00     0.002 C
HETATM   12  C13 UNL     1      13.068   9.063   5.610  1.00  0.00     0.027 C
HETATM   13  C14 UNL     1      12.634  10.487   5.219  1.00  0.00     0.233 C
HETATM   14  N4  UNL     1      13.869  11.232   5.174  1.00  0.00    -0.069 N
ATOM     15  H42 UNL     1      14.627  10.755   5.661  1.00  0.00     0.277 HD
ATOM     16  H41 UNL     1      13.835  12.074   5.750  1.00  0.00     0.277 HD
ENDBRANCH   7   8
ENDBRANCH   5   7
BRANCH   1  17
HETATM   17  C3  UNL     1      16.934  13.848   6.049  1.00  0.00    -0.015 A
HETATM   18  C1  UNL     1      16.495  13.874   7.354  1.00  0.00     0.116 A
HETATM   19  N1  UNL     1      17.252  13.055   8.102  1.00  0.00    -0.312 N
HETATM   20  N2  UNL     1      18.145  12.524   7.294  1.00  0.00    -0.312 N
ATOM     21  H1  UNL     1      17.154  12.878   9.101  1.00  0.00     0.186 HD
HETATM   22  C2  UNL     1      17.994  12.970   6.048  1.00  0.00     0.116 A
ATOM     23  H2  UNL     1      18.859  11.857   7.585  1.00  0.00     0.186 HD
ENDBRANCH   1  17
TORSDOF 3
ENDMDL