MODEL 2
REMARK VINA RESULT: -7.806719110      2.267      2.487
REMARK  4 active torsions:
REMARK  status: ('A' for Active; 'I' for Inactive)
REMARK    1  A    between atoms: C5_6  and  N2_7
REMARK    2  A    between atoms: N2_7  and  C6_9
REMARK    3  A    between atoms: C6_9  and  C7_10
REMARK    4  A    between atoms: C7_10  and  C8_11
ROOT
HETATM    1  N1  UNL     1      13.405  18.498  -1.272  1.00  0.00    -0.190 NA
HETATM    2  C1  UNL     1      13.456  18.064  -0.188  1.00  0.00     0.119 C
HETATM    3  C2  UNL     1      13.536  17.522   1.137  1.00  0.00     0.128 A
HETATM    4  C3  UNL     1      12.791  16.395   1.464  1.00  0.00     0.046 A
HETATM    5  C4  UNL     1      12.842  15.833   2.750  1.00  0.00     0.052 A
HETATM    6  C5  UNL     1      13.648  16.423   3.679  1.00  0.00     0.115 A
HETATM    7  N4  UNL     1      14.359  17.518   3.329  1.00  0.00    -0.285 N
ATOM      8  H4  UNL     1      14.960  17.958   4.026  1.00  0.00     0.188 HD
HETATM    9  N5  UNL     1      14.302  18.045   2.100  1.00  0.00    -0.289 N
ATOM     10  H5  UNL     1      14.861  18.872   1.891  1.00  0.00     0.188 HD
ENDROOT
BRANCH   6  11
HETATM   11  N2  UNL     1      13.770  15.998   4.853  1.00  0.00    -0.375 N
ATOM     12  H2  UNL     1      13.263  16.505   5.578  1.00  0.00     0.161 HD
BRANCH  11  13
HETATM   13  C6  UNL     1      14.545  14.877   5.279  1.00  0.00     0.126 C
BRANCH  13  14
HETATM   14  C7  UNL     1      16.045  15.131   5.227  1.00  0.00     0.060 C
BRANCH  14  15
HETATM   15  C8  UNL     1      16.763  13.939   5.672  1.00  0.00    -0.029 A
HETATM   16  C9  UNL     1      17.198  13.548   6.915  1.00  0.00     0.096 A
HETATM   17  N3  UNL     1      17.833  12.340   6.822  1.00  0.00    -0.365 N
HETATM   18  C10 UNL     1      17.818  11.940   5.539  1.00  0.00     0.042 A
ATOM     19  H3  UNL     1      18.249  11.826   7.599  1.00  0.00     0.165 HD
HETATM   20  C11 UNL     1      18.315  10.807   4.893  1.00  0.00     0.030 A
HETATM   21  C15 UNL     1      17.164  12.908   4.807  1.00  0.00    -0.002 A
HETATM   22  C12 UNL     1      18.172  10.626   3.539  1.00  0.00     0.002 A
HETATM   23  C13 UNL     1      17.522  11.586   2.803  1.00  0.00     0.001 A
HETATM   24  C14 UNL     1      17.023  12.723   3.449  1.00  0.00     0.014 A
ENDBRANCH  14  15
ENDBRANCH  13  14
ENDBRANCH  11  13
ENDBRANCH   6  11
TORSDOF 4
ENDMDL