MODEL 3
REMARK VINA RESULT: -7.952724996      1.985      4.900
REMARK  4 active torsions:
REMARK  status: ('A' for Active; 'I' for Inactive)
REMARK    1  A    between atoms: N3_11  and  C8_12
REMARK    2  A    between atoms: C8_12  and  C9_13
REMARK    3  A    between atoms: C9_13  and  C10_14
REMARK    4  A    between atoms: C16_20  and  N4_21
ROOT
HETATM    1  N1  UNL     1      17.396  13.795   8.868  1.00  0.00    -0.191 NA
HETATM    2  C1  UNL     1      16.712  13.478   7.986  1.00  0.00     0.103 C
HETATM    3  C2  UNL     1      15.867  13.064   6.882  1.00  0.00     0.089 A
HETATM    4  C3  UNL     1      15.264  11.817   6.963  1.00  0.00     0.041 A
HETATM    5  C4  UNL     1      14.460  11.452   5.890  1.00  0.00     0.011 A
HETATM    6  C5  UNL     1      13.723  10.314   5.636  1.00  0.00     0.032 A
HETATM    7  C6  UNL     1      13.116  10.493   4.411  1.00  0.00     0.090 A
HETATM    8  N2  UNL     1      13.454  11.690   3.913  1.00  0.00    -0.351 N
ATOM      9  H2  UNL     1      13.149  12.081   3.021  1.00  0.00     0.166 HD
HETATM   10  C7  UNL     1      14.272  12.283   4.804  1.00  0.00     0.119 A
HETATM   11  N3  UNL     1      14.882  13.503   4.759  1.00  0.00    -0.317 N
HETATM   12  C16 UNL     1      15.664  13.875   5.790  1.00  0.00     0.123 A
ENDROOT
BRANCH  12  13
HETATM   13  N4  UNL     1      16.255  15.024   5.776  1.00  0.00    -0.384 N
ATOM     14  H42 UNL     1      15.708  15.881   5.691  1.00  0.00     0.157 HD
ATOM     15  H41 UNL     1      17.272  15.036   5.851  1.00  0.00     0.157 HD
ENDBRANCH  12  13
BRANCH  11  16
HETATM   16  C8  UNL     1      14.711  14.391   3.651  1.00  0.00     0.137 C
BRANCH  16  17
HETATM   17  C9  UNL     1      13.596  15.392   3.872  1.00  0.00     0.059 C
BRANCH  17  18
HETATM   18  C10 UNL     1      13.547  16.393   2.777  1.00  0.00    -0.057 A
HETATM   19  C11 UNL     1      12.644  16.203   1.754  1.00  0.00     0.007 A
HETATM   20  C12 UNL     1      12.518  17.072   0.692  1.00  0.00     0.001 A
HETATM   21  C13 UNL     1      13.338  18.173   0.664  1.00  0.00     0.000 A
HETATM   22  C14 UNL     1      14.259  18.378   1.692  1.00  0.00     0.001 A
HETATM   23  C15 UNL     1      14.367  17.500   2.743  1.00  0.00     0.007 A
ENDBRANCH  17  18
ENDBRANCH  16  17
ENDBRANCH  11  16
TORSDOF 4
ENDMDL