MODEL 2
REMARK VINA RESULT: -8.453775927      0.183      1.070
REMARK  3 active torsions:
REMARK  status: ('A' for Active; 'I' for Inactive)
REMARK    1  A    between atoms: C4_4  and  C5_5
REMARK    2  A    between atoms: C9_9  and  C10_10
REMARK    3  A    between atoms: C10_10  and  N1_11
ROOT
HETATM    1  C5  UNL     1      14.965  12.952   4.788  1.00  0.00    -0.025 A
HETATM    2  C6  UNL     1      15.963  13.264   5.690  1.00  0.00     0.012 A
HETATM    3  C7  UNL     1      16.207  14.585   5.998  1.00  0.00     0.001 A
HETATM    4  C8  UNL     1      15.451  15.581   5.402  1.00  0.00     0.009 A
HETATM    5  C9  UNL     1      14.452  15.309   4.502  1.00  0.00    -0.039 A
HETATM    6  C14 UNL     1      14.230  13.971   4.212  1.00  0.00     0.021 A
ENDROOT
BRANCH   5   7
HETATM    7  C10 UNL     1      13.636  16.374   3.863  1.00  0.00     0.176 C
BRANCH   7   8
HETATM    8  N1  UNL     1      14.475  17.456   3.400  1.00  0.00    -0.222 N
HETATM    9  C11 UNL     1      14.344  17.893   2.196  1.00  0.00     0.680 A
HETATM   10  N2  UNL     1      15.078  18.895   1.678  1.00  0.00    -0.188 N
HETATM   11  N4  UNL     1      13.425  17.325   1.396  1.00  0.00    -0.188 N
HETATM   12  C12 UNL     1      14.880  19.297   0.392  1.00  0.00     0.199 A
ATOM     13  H2  UNL     1      15.786  19.354   2.251  1.00  0.00     0.185 HD
HETATM   14  N3  UNL     1      13.947  18.698  -0.373  1.00  0.00    -0.348 N
HETATM   15  C13 UNL     1      13.204  17.695   0.129  1.00  0.00     0.199 A
ATOM     16  H3  UNL     1      13.804  19.006  -1.335  1.00  0.00     0.167 HD
ATOM     17  H4  UNL     1      12.862  16.566   1.778  1.00  0.00     0.185 HD
ATOM     18  H1  UNL     1      15.166  17.872   4.024  1.00  0.00     0.178 HD
ENDBRANCH   7   8
ENDBRANCH   5   7
BRANCH   1  19
HETATM   19  C4  UNL     1      14.704  11.544   4.480  1.00  0.00    -0.026 A
HETATM   20  C3  UNL     1      15.149  10.559   5.349  1.00  0.00     0.012 A
HETATM   21  C2  UNL     1      14.916   9.223   5.094  1.00  0.00     0.001 A
HETATM   22  C1  UNL     1      14.235   8.802   3.972  1.00  0.00     0.000 A
HETATM   23  C16 UNL     1      13.789   9.785   3.100  1.00  0.00     0.001 A
HETATM   24  C15 UNL     1      14.024  11.139   3.357  1.00  0.00     0.012 A
ENDBRANCH   1  19
TORSDOF 3
ENDMDL