MODEL 4
REMARK VINA RESULT: -7.899085207      2.205      3.457
REMARK  4 active torsions:
REMARK  status: ('A' for Active; 'I' for Inactive)
REMARK    1  A    between atoms: C4_4  and  C5_5
REMARK    2  A    between atoms: C5_5  and  N1_6
REMARK    3  A    between atoms: N1_6  and  C6_8
REMARK    4  A    between atoms: C9_17  and  C10_18
ROOT
HETATM    1  C6  UNL     1      13.190  13.671   2.841  1.00  0.00     0.133 A
HETATM    2  N2  UNL     1      11.950  13.375   2.413  1.00  0.00    -0.337 N
ATOM      3  H2  UNL     1      11.301  14.107   2.124  1.00  0.00     0.168 HD
HETATM    4  C7  UNL     1      11.596  12.078   2.378  1.00  0.00     0.183 A
HETATM    5  N3  UNL     1      12.432  11.092   2.751  1.00  0.00    -0.337 N
ATOM      6  H3  UNL     1      12.113  10.124   2.706  1.00  0.00     0.168 HD
HETATM    7  C8  UNL     1      13.682  11.355   3.185  1.00  0.00     0.138 A
HETATM    8  N4  UNL     1      14.715  10.627   3.612  1.00  0.00    -0.330 N
ATOM      9  H4  UNL     1      14.717   9.610   3.686  1.00  0.00     0.168 HD
HETATM   10  C9  UNL     1      15.744  11.410   3.929  1.00  0.00     0.087 A
HETATM   11  N5  UNL     1      15.337  12.670   3.690  1.00  0.00    -0.339 N
ATOM     12  H5  UNL     1      15.909  13.502   3.837  1.00  0.00     0.167 HD
HETATM   13  C13 UNL     1      14.070  12.681   3.231  1.00  0.00     0.122 A
ENDROOT
BRANCH   1  14
HETATM   14  N1  UNL     1      13.599  14.882   2.902  1.00  0.00    -0.370 N
ATOM     15  H1  UNL     1      14.603  15.023   3.019  1.00  0.00     0.161 HD
BRANCH  14  16
HETATM   16  C5  UNL     1      12.792  16.053   2.823  1.00  0.00     0.160 C
BRANCH  16  17
HETATM   17  C4  UNL     1      13.354  17.077   1.899  1.00  0.00    -0.041 A
HETATM   18  C3  UNL     1      12.801  17.217   0.647  1.00  0.00     0.009 A
HETATM   19  C2  UNL     1      13.267  18.144  -0.264  1.00  0.00     0.001 A
HETATM   20  C1  UNL     1      14.323  18.950   0.107  1.00  0.00     0.000 A
HETATM   21  C15 UNL     1      14.888  18.822   1.360  1.00  0.00     0.001 A
HETATM   22  C14 UNL     1      14.405  17.891   2.251  1.00  0.00     0.009 A
ENDBRANCH  16  17
ENDBRANCH  14  16
ENDBRANCH   1  14
BRANCH  10  23
HETATM   23  C10 UNL     1      17.082  10.980   4.445  1.00  0.00     0.053 A
HETATM   24  C11 UNL     1      18.092  10.475   3.434  1.00  0.00     0.013 A
HETATM   25  C12 UNL     1      18.284  11.782   4.110  1.00  0.00     0.013 A
ENDBRANCH  10  23
TORSDOF 4
ENDMDL