MODEL 3
REMARK VINA RESULT: -8.307971481      1.821      3.513
REMARK  3 active torsions:
REMARK  status: ('A' for Active; 'I' for Inactive)
REMARK    1  A    between atoms: C1_2  and  C2_3
REMARK    2  A    between atoms: C7_8  and  C8_9
REMARK    3  A    between atoms: C8_9  and  N2_10
ROOT
HETATM    1  N2  UNL     1      13.503  15.483   3.618  1.00  0.00    -0.385 N
ATOM      2  H2  UNL     1      13.828  16.058   4.395  1.00  0.00     0.160 HD
HETATM    3  C9  UNL     1      13.948  14.286   3.585  1.00  0.00     0.043 A
HETATM    4  C10 UNL     1      13.574  13.413   2.616  1.00  0.00     0.047 A
HETATM    5  C11 UNL     1      14.192  12.160   2.570  1.00  0.00     0.092 A
HETATM    6  N3  UNL     1      15.139  11.856   3.480  1.00  0.00    -0.351 N
ATOM      7  H3  UNL     1      15.586  10.940   3.444  1.00  0.00     0.166 HD
HETATM    8  C12 UNL     1      15.507  12.724   4.428  1.00  0.00     0.117 A
HETATM    9  N4  UNL     1      16.508  12.421   5.302  1.00  0.00    -0.352 N
ATOM     10  H4  UNL     1      16.949  11.502   5.242  1.00  0.00     0.166 HD
HETATM   11  C13 UNL     1      16.933  13.273   6.230  1.00  0.00     0.090 A
HETATM   12  C14 UNL     1      16.329  14.523   6.318  1.00  0.00     0.018 A
HETATM   13  C15 UNL     1      15.324  14.878   5.465  1.00  0.00     0.019 A
HETATM   14  C16 UNL     1      14.935  13.964   4.527  1.00  0.00     0.034 A
ENDROOT
BRANCH   1  15
HETATM   15  C8  UNL     1      12.607  16.117   2.704  1.00  0.00     0.159 C
BRANCH  15  16
HETATM   16  C7  UNL     1      13.264  17.100   1.836  1.00  0.00    -0.029 A
HETATM   17  C2  UNL     1      12.805  17.206   0.542  1.00  0.00    -0.015 A
HETATM   18  C3  UNL     1      13.452  18.114  -0.271  1.00  0.00     0.013 A
HETATM   19  C4  UNL     1      14.506  18.909   0.133  1.00  0.00     0.001 A
HETATM   20  C5  UNL     1      14.945  18.795   1.446  1.00  0.00     0.001 A
HETATM   21  C6  UNL     1      14.323  17.890   2.286  1.00  0.00     0.010 A
BRANCH  17  22
HETATM   22  C1  UNL     1      11.623  16.499   0.072  1.00  0.00     0.112 C
HETATM   23  N1  UNL     1      11.697  15.641  -1.035  1.00  0.00    -0.114 NA
ENDBRANCH  17  22
ENDBRANCH  15  16
ENDBRANCH   1  15
TORSDOF 3
ENDMDL