MODEL 5
REMARK VINA RESULT: -5.892605429      3.137      6.404
REMARK  2 active torsions:
REMARK  status: ('A' for Active; 'I' for Inactive)
REMARK       I    between atoms: C1_2  and  N1_3
REMARK       I    between atoms: C1_2  and  N2_9
REMARK    1  A    between atoms: N1_3  and  C2_5
REMARK    2  A    between atoms: C2_5  and  C3_6
ROOT
HETATM    1  O1  UNL     1       2.785 140.483 350.448  1.00  0.00    -0.247 OA
HETATM    2  C1  UNL     1       2.932 140.535 351.680  1.00  0.00     0.322 C
HETATM    3  N1  UNL     1       2.557 141.673 352.414  1.00  0.00    -0.322 N
ATOM      4  H1  UNL     1       2.739 141.606 353.416  1.00  0.00     0.169 HD
HETATM    5  N2  UNL     1       3.502 139.378 352.325  1.00  0.00    -0.331 N
HETATM    6  C6  UNL     1       3.691 139.385 353.731  1.00  0.00     0.128 C
HETATM    7  C7  UNL     1       4.488 138.215 354.245  1.00  0.00     0.023 C
HETATM    8  C8  UNL     1       4.122 136.909 353.639  1.00  0.00     0.040 C
HETATM    9  C9  UNL     1       3.723 136.938 352.212  1.00  0.00     0.188 C
HETATM   10  F1  UNL     1       4.495 136.012 351.498  1.00  0.00    -0.248 F
HETATM   11  C10 UNL     1       3.862 138.249 351.521  1.00  0.00     0.164 C
ENDROOT
BRANCH   3  12
HETATM   12  C2  UNL     1       1.978 142.882 352.012  1.00  0.00     0.070 C
BRANCH  12  13
HETATM   13  C3  UNL     1       2.239 144.167 352.655  1.00  0.00     0.024 A
HETATM   14  C4  UNL     1       2.792 145.407 352.007  1.00  0.00     0.010 A
HETATM   15  C5  UNL     1       1.339 145.342 352.460  1.00  0.00     0.010 A
ENDBRANCH  12  13
ENDBRANCH   3  12
TORSDOF 2
ENDMDL