MODEL 5
REMARK VINA RESULT: -5.562972259      2.704      3.967
REMARK  3 active torsions:
REMARK  status: ('A' for Active; 'I' for Inactive)
REMARK    1  A    between atoms: C1_2  and  C2_3
REMARK       I    between atoms: C1_2  and  N1_6
REMARK    2  A    between atoms: C2_3  and  C3_4
REMARK    3  A    between atoms: N1_6  and  C4_8
ROOT
HETATM    1  C4  UNL     1       3.233 141.240 352.155  1.00  0.00     0.088 C
HETATM    2  C5  UNL     1       3.901 142.539 352.609  1.00  0.00     0.030 C
HETATM    3  C6  UNL     1       3.015 143.663 352.177  1.00  0.00    -0.012 C
HETATM    4  C7  UNL     1       1.898 143.790 353.187  1.00  0.00     0.005 C
HETATM    5  C8  UNL     1       1.232 142.418 353.055  1.00  0.00     0.007 C
HETATM    6  C9  UNL     1       1.828 141.761 351.849  1.00  0.00     0.009 C
HETATM    7  C10 UNL     1       2.236 142.998 351.027  1.00  0.00     0.011 C
ENDROOT
BRANCH   1   8
HETATM    8  N1  UNL     1       3.239 140.236 353.166  1.00  0.00    -0.356 N
HETATM    9  C1  UNL     1       4.232 139.217 353.184  1.00  0.00     0.220 C
HETATM   10  O1  UNL     1       5.133 139.182 352.297  1.00  0.00    -0.274 OA
ATOM     11  H1  UNL     1       2.520 140.248 353.890  1.00  0.00     0.162 HD
BRANCH   9  12
HETATM   12  C2  UNL     1       4.261 138.160 354.227  1.00  0.00     0.134 C
BRANCH  12  13
HETATM   13  C3  UNL     1       4.144 136.797 353.606  1.00  0.00     0.231 C
HETATM   14  F1  UNL     1       3.056 136.766 352.768  1.00  0.00    -0.255 F
ENDBRANCH  12  13
ENDBRANCH   9  12
ENDBRANCH   1   8
TORSDOF 3
ENDMDL