MODEL 1
REMARK VINA RESULT: -5.783909187      0.000      0.000
REMARK  2 active torsions:
REMARK  status: ('A' for Active; 'I' for Inactive)
REMARK    1  A    between atoms: C1_2  and  C2_4
REMARK    2  A    between atoms: N2_9  and  C7_10
ROOT
HETATM    1  C2  UNL     1       3.577 138.448 352.720  1.00  0.00     0.098 C
HETATM    2  C3  UNL     1       4.237 137.700 351.576  1.00  0.00     0.025 C
HETATM    3  C4  UNL     1       4.831 138.806 350.732  1.00  0.00     0.042 C
HETATM    4  C5  UNL     1       5.347 139.715 351.864  1.00  0.00     0.035 C
HETATM    5  C6  UNL     1       3.948 139.918 352.484  1.00  0.00     0.095 C
HETATM    6  N2  UNL     1       3.215 140.297 351.357  1.00  0.00    -0.374 N
HETATM    7  C10 UNL     1       3.727 139.724 350.187  1.00  0.00     0.272 C
HETATM    8  F1  UNL     1       2.760 138.985 349.541  1.00  0.00    -0.227 F
ENDROOT
BRANCH   1   9
HETATM    9  C1  UNL     1       3.931 137.972 354.034  1.00  0.00     0.237 C
HETATM   10  N1  UNL     1       4.567 136.711 354.183  1.00  0.00    -0.062 NA
HETATM   11  O1  UNL     1       3.699 138.630 355.074  1.00  0.00    -0.276 OA
ENDBRANCH   1   9
BRANCH   6  12
HETATM   12  C7  UNL     1       2.156 141.162 351.391  1.00  0.00     0.082 A
HETATM   13  C8  UNL     1       1.675 141.786 352.678  1.00  0.00     0.027 A
HETATM   14  C9  UNL     1       2.254 142.651 351.638  1.00  0.00     0.027 A
ENDBRANCH   6  12
TORSDOF 2
ENDMDL