MODEL 2
REMARK VINA RESULT: -6.003253545      4.463      5.807
REMARK  3 active torsions:
REMARK  status: ('A' for Active; 'I' for Inactive)
REMARK    1  A    between atoms: C1_2  and  C2_4
REMARK    2  A    between atoms: C8_10  and  C9_11
REMARK    3  A    between atoms: C9_11  and  N1_12
ROOT
HETATM    1  C2  UNL     1       4.741 138.163 352.642  1.00  0.00     0.097 C
HETATM    2  C3  UNL     1       4.625 139.099 353.829  1.00  0.00     0.001 C
HETATM    3  C4  UNL     1       5.535 140.269 353.621  1.00  0.00     0.006 C
HETATM    4  C5  UNL     1       4.941 140.929 352.382  1.00  0.00     0.005 C
HETATM    5  C6  UNL     1       3.665 140.168 352.074  1.00  0.00    -0.007 C
HETATM    6  C7  UNL     1       3.272 139.764 353.509  1.00  0.00     0.010 C
HETATM    7  C8  UNL     1       3.970 138.818 351.509  1.00  0.00     0.033 C
ENDROOT
BRANCH   7   8
HETATM    8  C9  UNL     1       4.756 138.847 350.233  1.00  0.00     0.282 C
BRANCH   8   9
HETATM    9  N1  UNL     1       3.884 138.819 349.101  1.00  0.00     0.129 N
HETATM   10  C10 UNL     1       4.393 138.388 347.810  1.00  0.00     0.345 A
HETATM   11  C11 UNL     1       3.439 137.552 348.551  1.00  0.00     0.433 A
HETATM   12  F1  UNL     1       2.123 137.547 348.119  1.00  0.00    -0.214 F
ENDBRANCH   8   9
ENDBRANCH   7   8
BRANCH   1  13
HETATM   13  C1  UNL     1       4.084 136.862 352.937  1.00  0.00     0.177 C
HETATM   14  O1  UNL     1       3.123 136.408 352.282  1.00  0.00    -0.648 OA
HETATM   15  O2  UNL     1       4.564 136.110 353.999  1.00  0.00    -0.648 OA
ENDBRANCH   1  13
TORSDOF 3
ENDMDL