MODEL 5
REMARK VINA RESULT: -5.714155487      3.983      5.785
REMARK  3 active torsions:
REMARK  status: ('A' for Active; 'I' for Inactive)
REMARK    1  A    between atoms: C1_2  and  C2_4
REMARK    2  A    between atoms: C3_5  and  C4_6
REMARK    3  A    between atoms: C5_8  and  C6_9
ROOT
HETATM    1  C2  UNL     1       3.754 141.972 352.141  1.00  0.00     0.086 A
HETATM    2  C3  UNL     1       2.526 141.663 352.960  1.00  0.00     0.032 A
HETATM    3  C5  UNL     1       3.118 140.678 351.967  1.00  0.00     0.010 A
ENDROOT
BRANCH   3   4
HETATM    4  C6  UNL     1       3.500 139.334 352.386  1.00  0.00    -0.009 C
HETATM    5  C7  UNL     1       4.467 138.591 351.502  1.00  0.00     0.005 C
HETATM    6  C8  UNL     1       4.153 137.108 351.697  1.00  0.00     0.000 C
HETATM    7  C9  UNL     1       4.272 136.713 353.111  1.00  0.00     0.000 C
HETATM    8  C10 UNL     1       3.738 137.644 354.143  1.00  0.00     0.000 C
HETATM    9  C11 UNL     1       3.916 139.109 353.811  1.00  0.00     0.005 C
ENDBRANCH   3   4
BRANCH   1  10
HETATM   10  C1  UNL     1       5.007 142.304 352.789  1.00  0.00     0.236 C
HETATM   11  N1  UNL     1       5.132 143.477 353.580  1.00  0.00    -0.062 NA
HETATM   12  O1  UNL     1       6.018 141.596 352.689  1.00  0.00    -0.276 OA
ENDBRANCH   1  10
BRANCH   2  13
HETATM   13  C4  UNL     1       1.209 142.327 352.656  1.00  0.00     0.228 C
HETATM   14  F1  UNL     1       0.590 142.628 353.840  1.00  0.00    -0.255 F
ENDBRANCH   2  13
TORSDOF 3
ENDMDL