MODEL 3
REMARK VINA RESULT: -6.421656013      1.412      1.468
REMARK  3 active torsions:
REMARK  status: ('A' for Active; 'I' for Inactive)
REMARK    1  A    between atoms: C2_2  and  C3_3
REMARK    2  A    between atoms: C3_3  and  N1_4
REMARK       I    between atoms: N1_4  and  C4_6
REMARK    3  A    between atoms: C4_6  and  C5_8
ROOT
HETATM    1  C5  UNL     1       3.419 142.869 351.887  1.00  0.00     0.086 C
HETATM    2  C6  UNL     1       4.277 143.586 352.942  1.00  0.00     0.019 C
HETATM    3  C7  UNL     1       3.477 144.856 353.102  1.00  0.00    -0.006 C
HETATM    4  C8  UNL     1       3.410 145.460 351.685  1.00  0.00     0.049 C
HETATM    5  C9  UNL     1       2.092 144.872 351.260  1.00  0.00     0.109 C
HETATM    6  F1  UNL     1       1.630 145.035 350.048  1.00  0.00    -0.242 F
HETATM    7  C10 UNL     1       1.223 145.309 352.450  1.00  0.00     0.049 C
HETATM    8  C11 UNL     1       2.079 144.325 353.203  1.00  0.00     0.001 C
HETATM    9  C12 UNL     1       2.074 143.496 351.907  1.00  0.00     0.043 C
ENDROOT
BRANCH   1  10
HETATM   10  C4  UNL     1       3.436 141.438 352.212  1.00  0.00     0.222 C
HETATM   11  N1  UNL     1       4.676 140.753 352.259  1.00  0.00    -0.357 N
ATOM     12  H1  UNL     1       5.531 141.274 352.066  1.00  0.00     0.162 HD
HETATM   13  O1  UNL     1       2.403 140.761 352.457  1.00  0.00    -0.273 OA
BRANCH  11  14
HETATM   14  C3  UNL     1       4.773 139.341 352.574  1.00  0.00     0.149 C
BRANCH  14  15
HETATM   15  C2  UNL     1       4.822 139.100 354.038  1.00  0.00    -0.018 C
HETATM   16  C1  UNL     1       3.807 138.480 354.610  1.00  0.00     0.008 C
ENDBRANCH  14  15
ENDBRANCH  11  14
ENDBRANCH   1  10
TORSDOF 3
ENDMDL