MODEL 1
REMARK VINA RESULT: -4.786478542      0.000      0.000
REMARK  3 active torsions:
REMARK  status: ('A' for Active; 'I' for Inactive)
REMARK    1  A    between atoms: C2_2  and  C3_4
REMARK    2  A    between atoms: C3_4  and  C4_5
REMARK    3  A    between atoms: C4_5  and  N1_6
ROOT
HETATM    1  N1  UNL     1       4.771 141.099 352.488  1.00  0.00     0.115 N
HETATM    2  C5  UNL     1       3.771 140.085 352.693  1.00  0.00     0.302 C
HETATM    3  C6  UNL     1       4.585 138.931 353.253  1.00  0.00     0.264 C
HETATM    4  N2  UNL     1       5.710 139.530 353.905  1.00  0.00    -0.047 N
ATOM      5  H21 UNL     1       6.589 139.062 353.686  1.00  0.00     0.279 HD
ATOM      6  H22 UNL     1       5.716 139.366 354.912  1.00  0.00     0.279 HD
HETATM    7  C7  UNL     1       5.724 140.936 353.565  1.00  0.00     0.502 C
ENDROOT
BRANCH   1   8
HETATM    8  C4  UNL     1       4.178 142.414 352.538  1.00  0.00     0.279 C
BRANCH   8   9
HETATM    9  C3  UNL     1       2.845 142.424 351.800  1.00  0.00     0.076 C
BRANCH   9  10
HETATM   10  C2  UNL     1       1.849 143.281 352.503  1.00  0.00    -0.019 C
HETATM   11  C1  UNL     1       0.978 142.725 353.315  1.00  0.00     0.027 C
HETATM   12 BR1  UNL     1       1.818 145.173 352.238  1.00  0.00    -0.057 Br
ENDBRANCH   9  10
ENDBRANCH   8   9
ENDBRANCH   1   8
TORSDOF 3
ENDMDL