MODEL 2
REMARK VINA RESULT: -6.091290464      2.607      5.062
REMARK  3 active torsions:
REMARK  status: ('A' for Active; 'I' for Inactive)
REMARK    1  A    between atoms: C2_2  and  C3_3
REMARK    2  A    between atoms: C3_3  and  N1_5
REMARK       I    between atoms: N1_5  and  C4_7
REMARK    3  A    between atoms: C4_7  and  C5_9
ROOT
HETATM    1  N1  UNL     1       3.696 141.785 352.136  1.00  0.00    -0.327 N
ATOM      2  H1  UNL     1       4.674 141.725 351.855  1.00  0.00     0.165 HD
HETATM    3  C4  UNL     1       3.100 143.064 352.275  1.00  0.00     0.225 C
HETATM    4  O1  UNL     1       1.883 143.101 352.626  1.00  0.00    -0.273 OA
ENDROOT
BRANCH   3   5
HETATM    5  C5  UNL     1       3.796 144.326 352.042  1.00  0.00     0.086 C
HETATM    6  C6  UNL     1       3.621 145.340 353.182  1.00  0.00    -0.001 C
HETATM    7  C7  UNL     1       4.349 144.634 354.284  1.00  0.00     0.006 C
HETATM    8  C11 UNL     1       4.507 146.457 352.684  1.00  0.00     0.006 C
HETATM    9  C8  UNL     1       5.488 143.905 353.603  1.00  0.00     0.006 C
HETATM   10  C9  UNL     1       5.306 144.239 352.152  1.00  0.00    -0.001 C
HETATM   11  C10 UNL     1       5.642 145.714 351.976  1.00  0.00     0.006 C
ENDBRANCH   3   5
BRANCH   1  12
HETATM   12  C3  UNL     1       2.975 140.579 352.376  1.00  0.00     0.294 C
HETATM   13  F1  UNL     1       2.662 139.977 351.159  1.00  0.00    -0.223 F
BRANCH  12  14
HETATM   14  C2  UNL     1       3.676 139.627 353.256  1.00  0.00     0.021 C
HETATM   15  C1  UNL     1       4.877 139.937 353.706  1.00  0.00     0.011 C
ENDBRANCH  12  14
ENDBRANCH   1  12
TORSDOF 3
ENDMDL