MODEL 5
REMARK VINA RESULT: -6.427771649      3.870      6.339
REMARK  3 active torsions:
REMARK  status: ('A' for Active; 'I' for Inactive)
REMARK    1  A    between atoms: C4_4  and  C5_5
REMARK    2  A    between atoms: C7_7  and  C8_9
REMARK       I    between atoms: C8_9  and  N1_11
REMARK    3  A    between atoms: N1_11  and  C9_13
ROOT
HETATM    1  C1  UNL     1       3.395 134.276 352.448  1.00  0.00     0.017 C
HETATM    2  C2  UNL     1       3.578 135.435 352.727  1.00  0.00    -0.090 C
HETATM    3  C3  UNL     1       3.796 136.811 353.066  1.00  0.00     0.060 C
HETATM    4  C4  UNL     1       4.816 137.472 352.553  1.00  0.00    -0.013 C
ENDROOT
BRANCH   4   5
HETATM    5  C5  UNL     1       5.001 138.883 352.928  1.00  0.00     0.016 C
HETATM    6  C6  UNL     1       3.741 139.557 353.494  1.00  0.00     0.062 C
HETATM    7  C7  UNL     1       4.209 140.799 352.757  1.00  0.00     0.184 C
HETATM    8  F1  UNL     1       5.173 141.507 353.468  1.00  0.00    -0.233 F
HETATM    9  C12 UNL     1       4.854 139.871 351.760  1.00  0.00     0.062 C
BRANCH   7  10
HETATM   10  C8  UNL     1       3.176 141.615 352.137  1.00  0.00     0.258 C
HETATM   11  O1  UNL     1       2.214 141.063 351.538  1.00  0.00    -0.270 OA
HETATM   12  N1  UNL     1       3.253 143.027 352.208  1.00  0.00    -0.354 N
ATOM     13  H1  UNL     1       4.040 143.456 352.695  1.00  0.00     0.163 HD
BRANCH  12  14
HETATM   14  C9  UNL     1       2.239 143.889 351.605  1.00  0.00     0.084 A
HETATM   15  C10 UNL     1       2.436 145.340 351.504  1.00  0.00     0.027 A
HETATM   16  C11 UNL     1       1.575 144.848 352.629  1.00  0.00     0.027 A
ENDBRANCH  12  14
ENDBRANCH   7  10
ENDBRANCH   4   5
TORSDOF 3
ENDMDL