MODEL 1
REMARK VINA RESULT: -5.593742086      0.000      0.000
REMARK  3 active torsions:
REMARK  status: ('A' for Active; 'I' for Inactive)
REMARK    1  A    between atoms: C1_2  and  N1_3
REMARK    2  A    between atoms: N1_3  and  C2_5
REMARK    3  A    between atoms: C2_5  and  C3_6
ROOT
HETATM    1  C2  UNL     1       3.995 140.679 352.216  1.00  0.00     0.040 C
HETATM    2  C8  UNL     1       5.035 141.455 353.072  1.00  0.00     0.032 C
HETATM    3  C9  UNL     1       5.765 140.376 353.825  1.00  0.00     0.002 C
HETATM    4  C10 UNL     1       4.688 139.418 354.166  1.00  0.00     0.002 C
HETATM    5  C11 UNL     1       3.481 139.732 353.276  1.00  0.00     0.032 C
ENDROOT
BRANCH   1   6
HETATM    6  N1  UNL     1       4.836 139.859 351.370  1.00  0.00    -0.358 N
ATOM      7  H1  UNL     1       5.778 140.217 351.209  1.00  0.00     0.162 HD
BRANCH   6   8
HETATM    8  C1  UNL     1       4.541 138.656 350.748  1.00  0.00     0.349 C
HETATM    9  O1  UNL     1       5.076 137.549 350.938  1.00  0.00    -0.284 OA
ENDBRANCH   6   8
ENDBRANCH   1   6
BRANCH   1  10
HETATM   10  C3  UNL     1       3.131 141.654 351.669  1.00  0.00    -0.006 A
HETATM   11  C4  UNL     1       3.161 142.957 352.395  1.00  0.00     0.050 C
HETATM   12  C5  UNL     1       1.695 142.869 352.576  1.00  0.00     0.175 C
HETATM   13  F1  UNL     1       1.133 142.006 353.436  1.00  0.00    -0.249 F
HETATM   14  C6  UNL     1       1.917 142.243 351.238  1.00  0.00     0.031 A
HETATM   15  C7  UNL     1       2.104 140.962 350.872  1.00  0.00     0.021 A
ENDBRANCH   1  10
TORSDOF 3
ENDMDL