MODEL 5
REMARK VINA RESULT: -6.730732168      1.905      2.626
REMARK  9 active torsions:
REMARK  status: ('A' for Active; 'I' for Inactive)
REMARK    1  A    between atoms: O1_2  and  C2_3
REMARK    2  A    between atoms: C2_3  and  C3_4
REMARK    3  A    between atoms: C3_4  and  C4_5
REMARK    4  A    between atoms: C4_5  and  C5_6
REMARK    5  A    between atoms: C5_6  and  O2_7
REMARK    6  A    between atoms: O2_7  and  N1_8
REMARK    7  A    between atoms: C12_17  and  C13_18
REMARK    8  A    between atoms: C16_22  and  S2_23
REMARK    9  A    between atoms: N3_30  and  O4_32
ROOT
HETATM    1  N1  UNL     1      20.948 -20.707 -11.982  1.00  0.00    -0.275 N
ATOM      2  H1  UNL     1      20.328 -20.487 -12.762  1.00  0.00     0.193 HD
HETATM    3  C6  UNL     1      22.200 -20.880 -12.226  1.00  0.00     0.011 C
HETATM    4  C7  UNL     1      23.008 -21.195 -11.021  1.00  0.00     0.062 C
HETATM    5  C8  UNL     1      23.483 -22.643 -11.179  1.00  0.00     0.084 C
HETATM    6  C9  UNL     1      23.674 -22.861 -12.645  1.00  0.00     0.132 C
HETATM    7  O3  UNL     1      22.967 -23.732 -13.154  1.00  0.00    -0.298 OA
HETATM    8  C10 UNL     1      24.609 -22.169 -13.588  1.00  0.00     0.063 C
HETATM    9  C11 UNL     1      24.857 -23.046 -14.736  1.00  0.00     0.042 C
HETATM   10  C12 UNL     1      25.082 -22.386 -16.056  1.00  0.00     0.118 C
HETATM   11  N2  UNL     1      24.298 -21.225 -16.222  1.00  0.00    -0.412 N
ATOM     12  H2  UNL     1      23.704 -21.096 -17.042  1.00  0.00     0.153 HD
HETATM   13  C18 UNL     1      24.372 -20.246 -15.203  1.00  0.00     0.120 C
HETATM   14  C19 UNL     1      24.069 -20.808 -13.848  1.00  0.00     0.019 C
HETATM   15  C20 UNL     1      22.568 -20.729 -13.644  1.00  0.00     0.061 C
ENDROOT
BRANCH   1  16
HETATM   16  O2  UNL     1      20.407 -20.804 -10.727  1.00  0.00    -0.281 OA
BRANCH  16  17
HETATM   17  C5  UNL     1      20.169 -19.675  -9.908  1.00  0.00     0.201 C
BRANCH  17  18
HETATM   18  C4  UNL     1      20.002 -18.420 -10.759  1.00  0.00     0.037 C
BRANCH  18  19
HETATM   19  C3  UNL     1      18.984 -17.539 -10.127  1.00  0.00     0.088 C
BRANCH  19  20
HETATM   20  C2  UNL     1      18.186 -16.733 -11.044  1.00  0.00     0.137 C
HETATM   21  N3  UNL     1      17.210 -15.960 -10.789  1.00  0.00    -0.251 N
ATOM     22  H3  UNL     1      16.772 -15.474 -11.572  1.00  0.00     0.196 HD
BRANCH  20  23
HETATM   23  O1  UNL     1      18.534 -16.809 -12.421  1.00  0.00    -0.343 OA
HETATM   24  C1  UNL     1      17.569 -16.494 -13.421  1.00  0.00     0.211 C
ENDBRANCH  20  23
BRANCH  21  25
HETATM   25  O4  UNL     1      16.717 -15.739  -9.559  1.00  0.00    -0.288 OA
ATOM     26  H4  UNL     1      16.042 -15.101  -9.358  1.00  0.00     0.244 HD
ENDBRANCH  21  25
ENDBRANCH  19  20
ENDBRANCH  18  19
ENDBRANCH  17  18
ENDBRANCH  16  17
ENDBRANCH   1  16
BRANCH  10  27
HETATM   27  C13 UNL     1      26.563 -22.123 -16.205  1.00  0.00     0.021 A
HETATM   28  S1  UNL     1      27.755 -21.963 -14.998  1.00  0.00    -0.103 SA
HETATM   29  C14 UNL     1      29.117 -21.686 -15.981  1.00  0.00     0.051 A
HETATM   30  C15 UNL     1      28.592 -21.728 -17.247  1.00  0.00     0.027 A
HETATM   31  C16 UNL     1      27.273 -21.953 -17.361  1.00  0.00     0.015 A
BRANCH  31  32
HETATM   32  S2  UNL     1      26.442 -22.035 -18.977  1.00  0.00    -0.133 SA
HETATM   33  C17 UNL     1      25.804 -20.446 -19.489  1.00  0.00     0.095 C
ENDBRANCH  31  32
ENDBRANCH  10  27
TORSDOF 9
ENDMDL