MODEL 2
REMARK VINA RESULT: -7.406113394      2.293      3.249
REMARK  9 active torsions:
REMARK  status: ('A' for Active; 'I' for Inactive)
REMARK    1  A    between atoms: C2_2  and  C3_3
REMARK    2  A    between atoms: C3_3  and  C4_4
REMARK    3  A    between atoms: C4_4  and  N1_5
REMARK    4  A    between atoms: C5_6  and  S1_7
REMARK    5  A    between atoms: S1_7  and  C6_8
REMARK    6  A    between atoms: C6_8  and  C7_9
REMARK    7  A    between atoms: C14_23  and  C15_24
REMARK    8  A    between atoms: C20_32  and  C21_33
REMARK    9  A    between atoms: C21_33  and  O1_35
ROOT
HETATM    1  N1  UNL     1      23.011 -21.783 -12.852  1.00  0.00    -0.323 N
HETATM    2  C5  UNL     1      22.900 -22.321 -11.579  1.00  0.00     0.148 A
HETATM    3  N5  UNL     1      22.139 -21.445 -10.902  1.00  0.00    -0.335 N
ATOM      4  H5  UNL     1      21.877 -21.560  -9.923  1.00  0.00     0.168 HD
HETATM    5  C14 UNL     1      21.758 -20.387 -11.666  1.00  0.00     0.066 A
HETATM    6  C20 UNL     1      22.327 -20.650 -12.917  1.00  0.00     0.070 A
ENDROOT
BRANCH   2   7
HETATM    7  S1  UNL     1      23.502 -23.832 -10.929  1.00  0.00    -0.086 SA
BRANCH   7   8
HETATM    8  C6  UNL     1      25.119 -24.359 -10.871  1.00  0.00     0.160 C
BRANCH   8   9
HETATM    9  C7  UNL     1      26.172 -23.413 -10.486  1.00  0.00     0.109 A
HETATM   10  N2  UNL     1      26.014 -22.236  -9.794  1.00  0.00    -0.287 N
HETATM   11  N3  UNL     1      27.173 -21.631  -9.661  1.00  0.00    -0.287 N
ATOM     12  H2  UNL     1      25.126 -21.884  -9.436  1.00  0.00     0.188 HD
HETATM   13  C8  UNL     1      28.090 -22.386 -10.252  1.00  0.00     0.099 A
ATOM     14  H3  UNL     1      27.338 -20.741  -9.189  1.00  0.00     0.188 HD
HETATM   15  N4  UNL     1      27.474 -23.479 -10.759  1.00  0.00    -0.323 N
HETATM   16  C13 UNL     1      29.556 -22.042 -10.321  1.00  0.00     0.078 C
HETATM   17  C9  UNL     1      28.123 -24.541 -11.525  1.00  0.00     0.131 C
HETATM   18  C10 UNL     1      28.500 -23.914 -12.887  1.00  0.00     0.020 C
HETATM   19  C11 UNL     1      28.825 -22.450 -12.675  1.00  0.00     0.002 C
HETATM   20  C12 UNL     1      29.984 -22.237 -11.764  1.00  0.00     0.007 C
ENDBRANCH   8   9
ENDBRANCH   7   8
ENDBRANCH   2   7
BRANCH   1  21
HETATM   21  C4  UNL     1      23.904 -22.439 -13.825  1.00  0.00     0.158 C
BRANCH  21  22
HETATM   22  C3  UNL     1      25.288 -21.926 -13.761  1.00  0.00    -0.011 C
BRANCH  22  23
HETATM   23  C2  UNL     1      26.083 -21.395 -14.855  1.00  0.00    -0.033 C
HETATM   24  C1  UNL     1      26.073 -19.972 -15.220  1.00  0.00     0.036 C
ENDBRANCH  22  23
ENDBRANCH  21  22
ENDBRANCH   1  21
BRANCH   6  25
HETATM   25  C21 UNL     1      21.974 -19.829 -14.129  1.00  0.00     0.166 C
HETATM   26  C22 UNL     1      22.460 -20.383 -15.434  1.00  0.00     0.046 C
BRANCH  25  27
HETATM   27  O1  UNL     1      20.543 -19.977 -14.252  1.00  0.00    -0.390 OA
ATOM     28  H1  UNL     1      20.217 -19.825 -13.373  1.00  0.00     0.210 HD
ENDBRANCH  25  27
ENDBRANCH   6  25
BRANCH   5  29
HETATM   29  C15 UNL     1      20.983 -19.283 -11.157  1.00  0.00    -0.030 C
HETATM   30  C16 UNL     1      20.180 -19.575 -10.076  1.00  0.00     0.010 C
HETATM   31  C17 UNL     1      19.379 -18.474  -9.535  1.00  0.00     0.260 C
HETATM   32  N6  UNL     1      18.707 -17.662 -10.502  1.00  0.00    -0.072 N
HETATM   33  C18 UNL     1      19.515 -17.365 -11.662  1.00  0.00     0.237 C
ATOM     34  H62 UNL     1      17.821 -18.087 -10.777  1.00  0.00     0.277 HD
ATOM     35  H61 UNL     1      18.357 -16.804 -10.075  1.00  0.00     0.277 HD
HETATM   36  C19 UNL     1      20.947 -17.859 -11.471  1.00  0.00     0.068 C
ENDBRANCH   5  29
TORSDOF 9
ENDMDL