MODEL 3
REMARK VINA RESULT: -7.144043066      1.266      1.466
REMARK  9 active torsions:
REMARK  status: ('A' for Active; 'I' for Inactive)
REMARK    1  A    between atoms: C2_2  and  C3_3
REMARK    2  A    between atoms: C3_3  and  C4_4
REMARK    3  A    between atoms: C4_4  and  C5_5
REMARK    4  A    between atoms: C5_5  and  C6_6
REMARK    5  A    between atoms: C6_6  and  O1_7
REMARK    6  A    between atoms: O1_7  and  N1_8
REMARK    7  A    between atoms: C7_9  and  O2_10
REMARK    8  A    between atoms: C10_14  and  O3_15
REMARK    9  A    between atoms: C12_20  and  O5_21
ROOT
HETATM    1  N1  UNL     1      22.160 -21.209 -12.921  1.00  0.00    -0.173 N
HETATM    2  C7  UNL     1      23.316 -22.083 -12.588  1.00  0.00     0.184 A
HETATM    3  C8  UNL     1      24.229 -21.899 -13.556  1.00  0.00     0.068 A
HETATM    4  C9  UNL     1      23.683 -20.965 -14.437  1.00  0.00     0.107 A
HETATM    5  C10 UNL     1      22.484 -20.585 -13.959  1.00  0.00     0.198 A
HETATM    6  N2  UNL     1      24.130 -20.752 -15.747  1.00  0.00    -0.301 N
HETATM    7  C11 UNL     1      23.098 -20.358 -16.639  1.00  0.00     0.281 C
HETATM    8  O4  UNL     1      21.963 -20.905 -16.450  1.00  0.00    -0.265 OA
HETATM    9  C12 UNL     1      23.440 -19.475 -17.644  1.00  0.00     0.132 C
HETATM   10  C14 UNL     1      24.692 -19.003 -17.733  1.00  0.00     0.018 C
HETATM   11  C15 UNL     1      25.750 -19.428 -16.742  1.00  0.00     0.057 C
HETATM   12  C16 UNL     1      25.435 -20.890 -16.411  1.00  0.00     0.116 C
HETATM   13  C17 UNL     1      26.454 -21.639 -15.708  1.00  0.00     0.099 C
HETATM   14  C18 UNL     1      26.620 -23.030 -16.346  1.00  0.00     0.023 C
HETATM   15  C19 UNL     1      25.450 -23.916 -16.088  1.00  0.00     0.003 C
HETATM   16  C20 UNL     1      25.357 -24.500 -14.734  1.00  0.00     0.022 C
HETATM   17  C21 UNL     1      26.003 -23.750 -13.641  1.00  0.00     0.110 C
HETATM   18  S1  UNL     1      27.621 -23.042 -13.963  1.00  0.00    -0.067 SA
HETATM   19  N3  UNL     1      26.534 -21.662 -14.327  1.00  0.00    -0.219 NA
HETATM   20  C22 UNL     1      25.619 -22.360 -13.521  1.00  0.00     0.031 C
ENDROOT
BRANCH   1  21
HETATM   21  O1  UNL     1      21.154 -21.536 -12.153  1.00  0.00    -0.269 OA
BRANCH  21  22
HETATM   22  C6  UNL     1      20.665 -21.279 -10.937  1.00  0.00     0.202 C
BRANCH  22  23
HETATM   23  C5  UNL     1      21.032 -19.719 -10.855  1.00  0.00     0.029 C
BRANCH  23  24
HETATM   24  C4  UNL     1      19.968 -19.019 -10.101  1.00  0.00     0.002 C
BRANCH  24  25
HETATM   25  C3  UNL     1      19.682 -17.643 -10.594  1.00  0.00    -0.000 C
BRANCH  25  26
HETATM   26  C2  UNL     1      18.438 -17.190  -9.826  1.00  0.00    -0.005 C
HETATM   27  C1  UNL     1      17.763 -16.043 -10.519  1.00  0.00     0.005 C
ENDBRANCH  25  26
ENDBRANCH  24  25
ENDBRANCH  23  24
ENDBRANCH  22  23
ENDBRANCH  21  22
ENDBRANCH   1  21
BRANCH   2  28
HETATM   28  O2  UNL     1      23.353 -22.890 -11.484  1.00  0.00    -0.344 OA
ATOM     29  H2  UNL     1      23.855 -23.696 -11.443  1.00  0.00     0.219 HD
ENDBRANCH   2  28
BRANCH   5  30
HETATM   30  O3  UNL     1      21.728 -19.593 -14.583  1.00  0.00    -0.343 OA
ATOM     31  H3  UNL     1      20.931 -19.735 -15.081  1.00  0.00     0.219 HD
ENDBRANCH   5  30
BRANCH   9  32
HETATM   32  O5  UNL     1      22.514 -19.023 -18.599  1.00  0.00    -0.351 OA
HETATM   33  C13 UNL     1      22.596 -19.391 -19.954  1.00  0.00     0.210 C
ENDBRANCH   9  32
TORSDOF 9
ENDMDL