MODEL 3
REMARK VINA RESULT: -7.313421247      4.386      8.072
REMARK  8 active torsions:
REMARK  status: ('A' for Active; 'I' for Inactive)
REMARK    1  A    between atoms: C3_6  and  C4_7
REMARK    2  A    between atoms: C7_10  and  C8_11
REMARK    3  A    between atoms: C9_14  and  C10_15
REMARK    4  A    between atoms: C10_15  and  O2_16
REMARK    5  A    between atoms: C10_15  and  C11_18
REMARK    6  A    between atoms: C11_18  and  N3_19
REMARK    7  A    between atoms: C14_22  and  N4_23
REMARK    8  A    between atoms: N4_23  and  C15_25
ROOT
HETATM    1  C10 UNL     1      25.732 -24.537 -12.215  1.00  0.00     0.215 C
ENDROOT
BRANCH   1   2
HETATM    2  C9  UNL     1      25.777 -25.142 -10.853  1.00  0.00     0.135 A
HETATM    3  N2  UNL     1      24.803 -25.273  -9.935  1.00  0.00    -0.320 N
HETATM    4  C8  UNL     1      25.298 -25.870  -8.828  1.00  0.00     0.186 A
ATOM      5  H2  UNL     1      23.837 -24.969 -10.056  1.00  0.00     0.169 HD
HETATM    6  O3  UNL     1      26.555 -26.085  -9.102  1.00  0.00    -0.217 OA
HETATM    7  N5  UNL     1      26.862 -25.663 -10.293  1.00  0.00    -0.244 N
ATOM      8  H5  UNL     1      27.783 -25.724 -10.726  1.00  0.00     0.196 HD
BRANCH   4   9
HETATM    9  C7  UNL     1      24.635 -26.219  -7.586  1.00  0.00     0.073 A
HETATM   10  C2  UNL     1      24.424 -25.420  -6.473  1.00  0.00     0.045 A
HETATM   11  C1  UNL     1      24.857 -24.017  -6.363  1.00  0.00     0.071 C
HETATM   12  N1  UNL     1      23.774 -26.191  -5.598  1.00  0.00    -0.265 N
HETATM   13  O1  UNL     1      23.587 -27.381  -6.109  1.00  0.00    -0.241 OA
ATOM     14  H1  UNL     1      23.468 -25.897  -4.670  1.00  0.00     0.194 HD
HETATM   15  C3  UNL     1      24.090 -27.456  -7.314  1.00  0.00     0.096 A
BRANCH  15  16
HETATM   16  C4  UNL     1      24.039 -28.672  -8.147  1.00  0.00     0.038 C
HETATM   17  C5  UNL     1      22.807 -29.472  -7.819  1.00  0.00     0.016 C
HETATM   18  C6  UNL     1      25.254 -29.552  -7.947  1.00  0.00     0.016 C
ENDBRANCH  15  16
ENDBRANCH   4   9
ENDBRANCH   1   2
BRANCH   1  19
HETATM   19  O2  UNL     1      26.664 -23.515 -12.261  1.00  0.00    -0.386 OA
ATOM     20  H2  UNL     1      27.530 -23.907 -12.273  1.00  0.00     0.210 HD
ENDBRANCH   1  19
BRANCH   1  21
HETATM   21  C11 UNL     1      24.344 -24.074 -12.504  1.00  0.00     0.311 C
BRANCH  21  22
HETATM   22  N3  UNL     1      24.065 -22.678 -12.343  1.00  0.00     0.091 N
HETATM   23  C12 UNL     1      23.724 -22.125 -13.601  1.00  0.00     0.274 C
HETATM   24  C13 UNL     1      22.961 -20.847 -13.645  1.00  0.00     0.055 C
HETATM   25  C14 UNL     1      21.912 -20.803 -12.597  1.00  0.00     0.080 C
HETATM   26  C22 UNL     1      22.701 -20.975 -11.265  1.00  0.00     0.055 C
HETATM   27  C23 UNL     1      23.194 -22.416 -11.275  1.00  0.00     0.274 C
BRANCH  25  28
HETATM   28  N4  UNL     1      21.035 -19.727 -12.496  1.00  0.00    -0.413 N
ATOM     29  H4  UNL     1      20.445 -19.491 -13.295  1.00  0.00     0.154 HD
BRANCH  28  30
HETATM   30  C15 UNL     1      20.939 -18.960 -11.328  1.00  0.00     0.077 C
HETATM   31  C16 UNL     1      19.954 -19.405 -10.310  1.00  0.00     0.025 C
HETATM   32  C17 UNL     1      19.229 -18.232  -9.651  1.00  0.00     0.006 C
HETATM   33  C18 UNL     1      18.433 -17.440 -10.666  1.00  0.00    -0.019 C
HETATM   34  C19 UNL     1      18.129 -16.087 -10.046  1.00  0.00     0.010 C
HETATM   35  C20 UNL     1      19.258 -17.187 -11.915  1.00  0.00     0.006 C
HETATM   36  C21 UNL     1      20.722 -17.470 -11.634  1.00  0.00     0.025 C
ENDBRANCH  28  30
ENDBRANCH  25  28
ENDBRANCH  21  22
ENDBRANCH   1  21
TORSDOF 8
ENDMDL