MODEL 1
REMARK VINA RESULT: -7.242951290      0.000      0.000
REMARK  9 active torsions:
REMARK  status: ('A' for Active; 'I' for Inactive)
REMARK    1  A    between atoms: C2_2  and  N1_3
REMARK    2  A    between atoms: N1_3  and  C4_5
REMARK    3  A    between atoms: C4_5  and  C5_6
REMARK    4  A    between atoms: C7_8  and  C8_9
REMARK    5  A    between atoms: C10_13  and  C11_14
REMARK    6  A    between atoms: C11_14  and  C12_15
REMARK    7  A    between atoms: C12_15  and  O3_16
REMARK    8  A    between atoms: C12_15  and  C13_18
REMARK    9  A    between atoms: C23_31  and  O7_32
ROOT
HETATM    1  C8  UNL     1      23.959 -24.447 -12.383  1.00  0.00     0.331 C
HETATM    2  O1  UNL     1      24.433 -23.833 -13.638  1.00  0.00    -0.203 OA
HETATM    3  O2  UNL     1      25.119 -22.754 -13.248  1.00  0.00    -0.236 OA
HETATM    4  C9  UNL     1      24.167 -21.782 -12.878  1.00  0.00     0.242 C
HETATM    5  C10 UNL     1      22.862 -22.562 -12.812  1.00  0.00     0.154 C
HETATM    6  O6  UNL     1      23.083 -23.562 -11.830  1.00  0.00    -0.347 OA
ENDROOT
BRANCH   5   7
HETATM    7  C11 UNL     1      21.679 -21.738 -12.425  1.00  0.00     0.071 C
BRANCH   7   8
HETATM    8  C12 UNL     1      22.116 -20.900 -11.209  1.00  0.00     0.153 C
BRANCH   8   9
HETATM    9  O3  UNL     1      21.780 -21.720 -10.081  1.00  0.00    -0.391 OA
ATOM     10  H3  UNL     1      21.966 -22.604 -10.375  1.00  0.00     0.210 HD
ENDBRANCH   8   9
BRANCH   8  11
HETATM   11  C13 UNL     1      21.224 -19.706 -11.117  1.00  0.00    -0.027 A
HETATM   12  C14 UNL     1      21.337 -18.777 -12.116  1.00  0.00     0.012 A
HETATM   13  C15 UNL     1      20.533 -17.651 -12.172  1.00  0.00     0.040 A
HETATM   14  C16 UNL     1      19.596 -17.490 -11.173  1.00  0.00     0.102 A
HETATM   15  C17 UNL     1      19.482 -18.419 -10.175  1.00  0.00     0.102 A
HETATM   16  O5  UNL     1      18.761 -16.384 -11.166  1.00  0.00    -0.346 OA
HETATM   17  C18 UNL     1      20.301 -19.555 -10.126  1.00  0.00     0.049 A
HETATM   18  O4  UNL     1      18.536 -18.229  -9.192  1.00  0.00    -0.346 OA
HETATM   19  C19 UNL     1      17.644 -17.147  -9.139  1.00  0.00     0.202 C
HETATM   20  C20 UNL     1      17.603 -16.301 -10.364  1.00  0.00     0.202 C
ENDBRANCH   8  11
ENDBRANCH   7   8
ENDBRANCH   5   7
BRANCH   1  21
HETATM   21  C7  UNL     1      25.195 -24.703 -11.604  1.00  0.00    -0.000 A
HETATM   22  C6  UNL     1      25.562 -24.148 -10.410  1.00  0.00     0.023 A
HETATM   23  C5  UNL     1      26.819 -24.378  -9.855  1.00  0.00    -0.007 A
HETATM   24  C23 UNL     1      27.731 -25.208 -10.537  1.00  0.00     0.073 A
HETATM   25  C22 UNL     1      27.357 -25.762 -11.721  1.00  0.00     0.038 A
HETATM   26  C21 UNL     1      26.121 -25.529 -12.263  1.00  0.00     0.015 A
BRANCH  23  27
HETATM   27  C4  UNL     1      27.391 -23.586  -8.769  1.00  0.00     0.163 C
BRANCH  27  28
HETATM   28  N1  UNL     1      27.242 -24.010  -7.414  1.00  0.00    -0.391 N
HETATM   29  C3  UNL     1      27.958 -24.901  -6.607  1.00  0.00     0.149 C
BRANCH  28  30
HETATM   30  C2  UNL     1      26.094 -23.298  -6.792  1.00  0.00     0.075 C
HETATM   31  C1  UNL     1      25.097 -24.024  -6.401  1.00  0.00     0.029 C
ENDBRANCH  28  30
ENDBRANCH  27  28
ENDBRANCH  23  27
BRANCH  24  32
HETATM   32  O7  UNL     1      28.993 -25.423  -9.939  1.00  0.00    -0.360 OA
ATOM     33  H7  UNL     1      29.676 -24.785 -10.112  1.00  0.00     0.217 HD
ENDBRANCH  24  32
ENDBRANCH   1  21
TORSDOF 9
ENDMDL