MODEL 4
REMARK VINA RESULT: -6.990080935      3.902      6.033
REMARK  8 active torsions:
REMARK  status: ('A' for Active; 'I' for Inactive)
REMARK    1  A    between atoms: C2_2  and  O1_3
REMARK    2  A    between atoms: O1_3  and  C3_4
REMARK    3  A    between atoms: C3_4  and  O2_5
REMARK    4  A    between atoms: O2_5  and  O3_6
REMARK    5  A    between atoms: C14_22  and  C15_23
REMARK    6  A    between atoms: C15_23  and  C16_24
REMARK    7  A    between atoms: C16_24  and  C17_25
REMARK    8  A    between atoms: C18_26  and  C20_28
ROOT
HETATM    1  C3  UNL     1      26.869 -24.782  -6.594  1.00  0.00     0.448 C
HETATM    2  O4  UNL     1      26.785 -25.119  -7.935  1.00  0.00    -0.261 OA
HETATM    3  C4  UNL     1      25.638 -25.023  -8.606  1.00  0.00     0.247 C
HETATM    4  O5  UNL     1      24.479 -24.919  -7.822  1.00  0.00    -0.190 OA
HETATM    5  O6  UNL     1      24.073 -26.204  -7.719  1.00  0.00    -0.192 OA
HETATM    6  C5  UNL     1      24.624 -26.625  -6.563  1.00  0.00     0.253 A
HETATM    7  C6  UNL     1      23.833 -26.025  -5.377  1.00  0.00     0.088 C
HETATM    8  O7  UNL     1      25.024 -27.789  -6.081  1.00  0.00    -0.306 OA
HETATM    9  C7  UNL     1      25.958 -26.842  -6.607  1.00  0.00     0.234 A
HETATM   10  C8  UNL     1      26.880 -27.612  -7.386  1.00  0.00     0.079 C
HETATM   11  C9  UNL     1      26.646 -28.005  -8.786  1.00  0.00    -0.013 C
HETATM   12  C10 UNL     1      27.909 -27.857  -9.664  1.00  0.00     0.010 C
HETATM   13  C11 UNL     1      25.535 -27.425  -9.539  1.00  0.00     0.015 C
HETATM   14  C12 UNL     1      25.318 -26.007  -9.661  1.00  0.00     0.058 C
HETATM   15  C13 UNL     1      25.862 -25.335 -10.936  1.00  0.00     0.021 C
HETATM   16  C14 UNL     1      25.034 -24.020 -10.700  1.00  0.00     0.037 C
HETATM   17  C22 UNL     1      25.726 -23.720  -9.403  1.00  0.00     0.050 C
HETATM   18  N1  UNL     1      26.269 -22.661  -9.081  1.00  0.00    -0.401 N
ATOM     19  H11 UNL     1      26.328 -21.793  -9.612  1.00  0.00     0.155 HD
ATOM     20  H12 UNL     1      26.740 -22.458  -8.199  1.00  0.00     0.155 HD
HETATM   21  O8  UNL     1      26.598 -25.902  -5.819  1.00  0.00    -0.264 OA
ENDROOT
BRANCH  16  22
HETATM   22  C15 UNL     1      25.203 -23.074 -11.795  1.00  0.00     0.014 C
BRANCH  22  23
HETATM   23  C16 UNL     1      23.913 -22.572 -12.329  1.00  0.00     0.028 C
BRANCH  23  24
HETATM   24  C17 UNL     1      22.852 -22.436 -11.312  1.00  0.00    -0.024 C
HETATM   25  C18 UNL     1      21.973 -21.463 -11.401  1.00  0.00    -0.088 C
HETATM   26  C19 UNL     1      22.036 -20.484 -12.529  1.00  0.00     0.043 C
BRANCH  25  27
HETATM   27  C20 UNL     1      20.872 -21.268 -10.402  1.00  0.00     0.029 C
HETATM   28  C21 UNL     1      20.447 -19.832 -10.298  1.00  0.00     0.010 C
ENDBRANCH  25  27
ENDBRANCH  23  24
ENDBRANCH  22  23
ENDBRANCH  16  22
BRANCH   1  29
HETATM   29  O1  UNL     1      28.001 -24.090  -6.322  1.00  0.00    -0.307 OA
BRANCH  29  30
HETATM   30  C2  UNL     1      29.191 -24.576  -6.090  1.00  0.00     0.172 C
HETATM   31  C1  UNL     1      30.274 -23.685  -5.545  1.00  0.00     0.033 C
ENDBRANCH  29  30
ENDBRANCH   1  29
BRANCH   1  32
HETATM   32  O2  UNL     1      25.906 -23.741  -6.379  1.00  0.00    -0.146 OA
BRANCH  32  33
HETATM   33  O3  UNL     1      26.511 -22.584  -6.205  1.00  0.00    -0.243 OA
ATOM     34  H3  UNL     1      26.076 -22.081  -5.526  1.00  0.00     0.254 HD
ENDBRANCH  32  33
ENDBRANCH   1  32
TORSDOF 8
ENDMDL