MODEL 2
REMARK VINA RESULT: -6.212917762      1.491      2.300
REMARK  8 active torsions:
REMARK  status: ('A' for Active; 'I' for Inactive)
REMARK    1  A    between atoms: C2_2  and  C3_3
REMARK    2  A    between atoms: C3_3  and  C4_4
REMARK    3  A    between atoms: C3_3  and  S1_6
REMARK    4  A    between atoms: C3_3  and  C7_9
REMARK    5  A    between atoms: C9_13  and  C10_14
REMARK    6  A    between atoms: C12_18  and  N4_19
REMARK    7  A    between atoms: N4_19  and  C13_21
REMARK    8  A    between atoms: C17_25  and  N5_26
ROOT
HETATM    1  S1  UNL     1      22.105 -20.093 -22.840  1.00  0.00    -0.034 SA
HETATM    2  C6  UNL     1      22.336 -18.791 -21.674  1.00  0.00     0.134 C
HETATM    3  N1  UNL     1      22.506 -17.917 -20.903  1.00  0.00    -0.184 NA
ENDROOT
BRANCH   1   4
HETATM    4  C3  UNL     1      21.662 -21.632 -21.994  1.00  0.00     0.072 C
BRANCH   4   5
HETATM    5  C2  UNL     1      22.952 -22.454 -21.902  1.00  0.00     0.024 C
HETATM    6  C1  UNL     1      22.602 -23.902 -21.655  1.00  0.00     0.007 C
ENDBRANCH   4   5
BRANCH   4   7
HETATM    7  C4  UNL     1      20.705 -22.442 -22.820  1.00  0.00     0.024 C
HETATM    8  C5  UNL     1      20.194 -21.721 -24.036  1.00  0.00     0.007 C
ENDBRANCH   4   7
BRANCH   4   9
HETATM    9  C7  UNL     1      21.146 -21.327 -20.635  1.00  0.00     0.090 A
HETATM   10  C8  UNL     1      19.827 -21.263 -20.242  1.00  0.00     0.124 A
HETATM   11  N2  UNL     1      19.800 -20.962 -18.946  1.00  0.00    -0.343 N
HETATM   12  C9  UNL     1      21.066 -20.842 -18.541  1.00  0.00     0.166 A
ATOM     13  H2  UNL     1      18.968 -20.845 -18.369  1.00  0.00     0.167 HD
HETATM   14  O2  UNL     1      21.833 -21.062 -19.556  1.00  0.00    -0.294 OA
BRANCH  12  15
HETATM   15  C10 UNL     1      21.443 -20.510 -17.153  1.00  0.00     0.075 A
HETATM   16  C11 UNL     1      20.661 -19.961 -16.170  1.00  0.00     0.113 A
HETATM   17  N3  UNL     1      21.207 -19.741 -15.010  1.00  0.00    -0.345 N
HETATM   18  C12 UNL     1      22.485 -20.053 -14.823  1.00  0.00     0.147 A
ATOM     19  H3  UNL     1      20.660 -19.334 -14.252  1.00  0.00     0.167 HD
HETATM   20  S2  UNL     1      22.940 -20.687 -16.355  1.00  0.00    -0.049 SA
BRANCH  18  21
HETATM   21  N4  UNL     1      23.240 -19.915 -13.760  1.00  0.00    -0.344 N
ATOM     22  H4  UNL     1      24.223 -19.655 -13.836  1.00  0.00     0.164 HD
BRANCH  21  23
HETATM   23  C13 UNL     1      22.614 -20.148 -12.465  1.00  0.00     0.225 C
HETATM   24  C14 UNL     1      22.162 -21.593 -12.476  1.00  0.00     0.054 C
HETATM   25  C15 UNL     1      21.591 -21.903 -11.109  1.00  0.00     0.008 C
HETATM   26  C16 UNL     1      20.353 -20.994 -11.005  1.00  0.00     0.054 C
HETATM   27  C17 UNL     1      20.915 -19.588 -11.065  1.00  0.00     0.225 C
HETATM   28  O1  UNL     1      21.519 -19.342 -12.296  1.00  0.00    -0.343 OA
BRANCH  27  29
HETATM   29  N5  UNL     1      19.844 -18.655 -10.810  1.00  0.00    -0.340 N
HETATM   30  C18 UNL     1      19.369 -18.551  -9.618  1.00  0.00     0.198 C
HETATM   31  N6  UNL     1      18.309 -17.628  -9.358  1.00  0.00    -0.067 NA
HETATM   32  N7  UNL     1      19.825 -19.310  -8.501  1.00  0.00    -0.067 NA
ATOM     33  H5  UNL     1      19.468 -18.084 -11.566  1.00  0.00     0.164 HD
ENDBRANCH  27  29
ENDBRANCH  21  23
ENDBRANCH  18  21
ENDBRANCH  12  15
ENDBRANCH   4   9
ENDBRANCH   1   4
TORSDOF 8
ENDMDL