MODEL 5
REMARK VINA RESULT: -6.059548850      2.208      3.764
REMARK  9 active torsions:
REMARK  status: ('A' for Active; 'I' for Inactive)
REMARK    1  A    between atoms: C2_2  and  C3_3
REMARK    2  A    between atoms: C3_3  and  C4_4
REMARK    3  A    between atoms: C4_4  and  C5_5
REMARK    4  A    between atoms: C6_6  and  O1_7
REMARK    5  A    between atoms: C8_9  and  O2_10
REMARK    6  A    between atoms: C12_15  and  N1_16
REMARK    7  A    between atoms: C14_20  and  O3_21
REMARK    8  A    between atoms: C16_23  and  O4_24
REMARK    9  A    between atoms: C18_26  and  O5_27
ROOT
HETATM    1  C5  UNL     1      22.955 -21.332 -13.571  1.00  0.00     0.013 A
HETATM    2  C6  UNL     1      23.978 -21.855 -12.881  1.00  0.00     0.111 A
HETATM    3  C8  UNL     1      25.194 -22.123 -13.505  1.00  0.00     0.106 A
HETATM    4  C9  UNL     1      25.416 -21.867 -14.877  1.00  0.00    -0.011 A
HETATM    5  C10 UNL     1      26.666 -22.142 -15.567  1.00  0.00     0.052 C
HETATM    6  C11 UNL     1      24.303 -21.329 -15.497  1.00  0.00     0.034 A
HETATM    7  C12 UNL     1      24.603 -21.070 -16.846  1.00  0.00     0.053 C
HETATM    8  C13 UNL     1      23.659 -21.001 -17.882  1.00  0.00     0.044 A
HETATM    9  C14 UNL     1      24.157 -21.391 -19.084  1.00  0.00     0.117 A
HETATM   10  C16 UNL     1      23.302 -21.302 -20.190  1.00  0.00     0.136 A
HETATM   11  C18 UNL     1      22.010 -20.845 -20.094  1.00  0.00     0.105 A
HETATM   12  C20 UNL     1      21.555 -20.466 -18.855  1.00  0.00     0.058 A
HETATM   13  C21 UNL     1      22.359 -20.533 -17.725  1.00  0.00     0.058 A
HETATM   14  C22 UNL     1      21.699 -20.135 -16.573  1.00  0.00     0.299 C
HETATM   15  O6  UNL     1      20.780 -19.315 -16.770  1.00  0.00    -0.259 OA
HETATM   16  O7  UNL     1      21.975 -20.554 -15.356  1.00  0.00    -0.273 OA
HETATM   17  C23 UNL     1      23.106 -21.060 -14.900  1.00  0.00     0.101 A
ENDROOT
BRANCH   1  18
HETATM   18  C4  UNL     1      21.666 -21.054 -12.887  1.00  0.00     0.044 C
BRANCH  18  19
HETATM   19  C3  UNL     1      21.669 -19.684 -12.238  1.00  0.00     0.004 C
BRANCH  19  20
HETATM   20  C2  UNL     1      21.089 -19.731 -10.844  1.00  0.00    -0.004 C
HETATM   21  C1  UNL     1      20.653 -21.160 -10.560  1.00  0.00     0.005 C
ENDBRANCH  19  20
ENDBRANCH  18  19
ENDBRANCH   1  18
BRANCH   2  22
HETATM   22  O1  UNL     1      23.843 -22.144 -11.506  1.00  0.00    -0.352 OA
HETATM   23  C7  UNL     1      23.493 -23.466 -11.147  1.00  0.00     0.210 C
ENDBRANCH   2  22
BRANCH   3  24
HETATM   24  O2  UNL     1      26.183 -22.656 -12.716  1.00  0.00    -0.357 OA
ATOM     25  H2  UNL     1      25.938 -23.393 -12.170  1.00  0.00     0.217 HD
ENDBRANCH   3  24
BRANCH   7  26
HETATM   26  N1  UNL     1      25.747 -20.867 -17.110  1.00  0.00    -0.398 N
ATOM     27  H12 UNL     1      26.422 -21.611 -16.937  1.00  0.00     0.156 HD
ATOM     28  H11 UNL     1      25.968 -19.959 -17.520  1.00  0.00     0.156 HD
ENDBRANCH   7  26
BRANCH   9  29
HETATM   29  O3  UNL     1      25.445 -21.870 -19.241  1.00  0.00    -0.352 OA
HETATM   30  C15 UNL     1      25.525 -23.305 -19.399  1.00  0.00     0.210 C
ENDBRANCH   9  29
BRANCH  10  31
HETATM   31  O4  UNL     1      23.830 -21.702 -21.407  1.00  0.00    -0.351 OA
HETATM   32  C17 UNL     1      24.431 -20.781 -22.304  1.00  0.00     0.210 C
ENDBRANCH  10  31
BRANCH  11  33
HETATM   33  O5  UNL     1      21.203 -20.769 -21.188  1.00  0.00    -0.353 OA
HETATM   34  C19 UNL     1      19.890 -21.184 -21.341  1.00  0.00     0.210 C
ENDBRANCH  11  33
TORSDOF 9
ENDMDL