MODEL 2
REMARK VINA RESULT: -6.463337072      0.200      2.227
REMARK  9 active torsions:
REMARK  status: ('A' for Active; 'I' for Inactive)
REMARK    1  A    between atoms: C2_2  and  C3_3
REMARK    2  A    between atoms: C3_3  and  C4_4
REMARK    3  A    between atoms: C10_12  and  O3_13
REMARK    4  A    between atoms: N1_15  and  C11_16
REMARK    5  A    between atoms: C13_18  and  O4_19
REMARK    6  A    between atoms: C14_21  and  C15_22
REMARK    7  A    between atoms: C17_24  and  O5_25
REMARK    8  A    between atoms: C19_27  and  O6_28
REMARK    9  A    between atoms: C21_30  and  O7_31
ROOT
HETATM    1  C4  UNL     1      24.645 -22.602 -14.451  1.00  0.00     0.101 C
HETATM    2  C5  UNL     1      25.491 -21.865 -13.467  1.00  0.00     0.211 C
HETATM    3  O1  UNL     1      25.306 -22.458 -12.218  1.00  0.00    -0.348 OA
HETATM    4  C6  UNL     1      24.025 -22.993 -12.392  1.00  0.00     0.195 C
HETATM    5  C7  UNL     1      23.687 -23.892 -11.258  1.00  0.00     0.085 C
HETATM    6  O2  UNL     1      24.100 -23.614 -13.615  1.00  0.00    -0.336 OA
HETATM    7  C8  UNL     1      23.072 -21.836 -12.526  1.00  0.00     0.065 A
HETATM    8  C9  UNL     1      22.784 -21.275 -13.754  1.00  0.00     0.020 A
HETATM    9  C10 UNL     1      21.890 -20.248 -13.528  1.00  0.00     0.152 A
HETATM   10  N1  UNL     1      21.615 -20.153 -12.209  1.00  0.00    -0.308 N
HETATM   11  C13 UNL     1      22.325 -21.106 -11.610  1.00  0.00     0.156 A
HETATM   12  C14 UNL     1      23.449 -21.855 -14.959  1.00  0.00     0.094 C
ENDROOT
BRANCH  12  13
HETATM   13  C15 UNL     1      23.640 -20.940 -16.061  1.00  0.00    -0.041 A
HETATM   14  C16 UNL     1      22.710 -20.627 -17.040  1.00  0.00     0.047 A
HETATM   15  C17 UNL     1      22.939 -19.748 -18.076  1.00  0.00     0.104 A
HETATM   16  C19 UNL     1      24.171 -19.142 -18.141  1.00  0.00     0.135 A
HETATM   17  C21 UNL     1      25.155 -19.408 -17.189  1.00  0.00     0.104 A
HETATM   18  C23 UNL     1      24.880 -20.294 -16.173  1.00  0.00     0.047 A
BRANCH  15  19
HETATM   19  O5  UNL     1      21.932 -19.516 -18.996  1.00  0.00    -0.353 OA
HETATM   20  C18 UNL     1      21.414 -20.456 -19.876  1.00  0.00     0.210 C
ENDBRANCH  15  19
BRANCH  16  21
HETATM   21  O6  UNL     1      24.416 -18.255 -19.178  1.00  0.00    -0.351 OA
HETATM   22  C20 UNL     1      24.786 -18.817 -20.432  1.00  0.00     0.210 C
ENDBRANCH  16  21
BRANCH  17  23
HETATM   23  O7  UNL     1      26.383 -18.762 -17.310  1.00  0.00    -0.353 OA
HETATM   24  C22 UNL     1      27.407 -19.413 -18.032  1.00  0.00     0.210 C
ENDBRANCH  17  23
ENDBRANCH  12  13
BRANCH   1  25
HETATM   25  C3  UNL     1      25.411 -23.322 -15.515  1.00  0.00     0.067 C
BRANCH  25  26
HETATM   26  C2  UNL     1      25.483 -24.782 -15.287  1.00  0.00    -0.034 C
HETATM   27  C1  UNL     1      25.319 -25.627 -16.285  1.00  0.00     0.007 C
ENDBRANCH  25  26
ENDBRANCH   1  25
BRANCH   9  28
HETATM   28  O3  UNL     1      21.324 -19.405 -14.475  1.00  0.00    -0.345 OA
ATOM     29  H3  UNL     1      20.435 -19.070 -14.486  1.00  0.00     0.219 HD
ENDBRANCH   9  28
BRANCH  11  30
HETATM   30  O4  UNL     1      22.360 -21.392 -10.243  1.00  0.00    -0.345 OA
ATOM     31  H4  UNL     1      22.431 -20.704  -9.592  1.00  0.00     0.219 HD
ENDBRANCH  11  30
BRANCH  10  32
HETATM   32  C11 UNL     1      20.723 -19.206 -11.555  1.00  0.00     0.129 C
HETATM   33  C12 UNL     1      21.181 -17.792 -11.697  1.00  0.00     0.027 C
ENDBRANCH  10  32
TORSDOF 9
ENDMDL