MODEL 2
REMARK VINA RESULT: -6.274499803      0.985      2.356
REMARK  10 active torsions:
REMARK  status: ('A' for Active; 'I' for Inactive)
REMARK    1  A    between atoms: C2_2  and  C3_3
REMARK    2  A    between atoms: C3_3  and  C4_5
REMARK    3  A    between atoms: C4_5  and  C5_6
REMARK    4  A    between atoms: C5_6  and  C6_7
REMARK    5  A    between atoms: C5_6  and  C8_9
REMARK    6  A    between atoms: C9_10  and  O2_11
REMARK    7  A    between atoms: N1_13  and  C10_14
REMARK    8  A    between atoms: C10_14  and  C11_15
REMARK    9  A    between atoms: C11_15  and  O3_16
REMARK   10  A    between atoms: C13_23  and  C14_24
ROOT
HETATM    1  C8  UNL     1      22.159 -20.112 -14.575  1.00  0.00     0.050 A
HETATM    2  C9  UNL     1      21.228 -20.065 -15.602  1.00  0.00     0.158 A
HETATM    3  N1  UNL     1      21.467 -20.317 -16.885  1.00  0.00    -0.300 N
HETATM    4  C12 UNL     1      22.690 -20.650 -17.280  1.00  0.00     0.202 A
HETATM    5  S1  UNL     1      23.033 -20.973 -18.838  1.00  0.00    -0.038 SA
HETATM    6  N2  UNL     1      23.682 -20.724 -16.336  1.00  0.00    -0.229 N
HETATM    7  N3  UNL     1      24.944 -21.093 -16.483  1.00  0.00    -0.295 N
ATOM      8  H3  UNL     1      25.366 -21.336 -17.379  1.00  0.00     0.187 HD
HETATM    9  C13 UNL     1      25.592 -21.110 -15.333  1.00  0.00     0.033 A
HETATM   10  C21 UNL     1      24.630 -20.703 -14.382  1.00  0.00     0.059 A
HETATM   11  C22 UNL     1      23.447 -20.471 -15.040  1.00  0.00     0.076 A
ENDROOT
BRANCH   1  12
HETATM   12  C5  UNL     1      21.852 -20.022 -13.122  1.00  0.00    -0.038 C
BRANCH  12  13
HETATM   13  C4  UNL     1      21.732 -18.712 -12.500  1.00  0.00     0.117 C
BRANCH  13  14
HETATM   14  C3  UNL     1      20.768 -18.453 -11.433  1.00  0.00     0.130 C
HETATM   15  O1  UNL     1      20.816 -19.048 -10.324  1.00  0.00    -0.298 OA
BRANCH  14  16
HETATM   16  C2  UNL     1      19.624 -17.471 -11.502  1.00  0.00     0.074 C
HETATM   17  C1  UNL     1      18.784 -17.462 -10.250  1.00  0.00     0.013 C
ENDBRANCH  14  16
ENDBRANCH  13  14
ENDBRANCH  12  13
BRANCH  12  18
HETATM   18  C6  UNL     1      21.408 -21.270 -12.521  1.00  0.00    -0.022 C
HETATM   19  C7  UNL     1      22.220 -22.036 -11.557  1.00  0.00     0.036 C
ENDBRANCH  12  18
ENDBRANCH   1  12
BRANCH   2  20
HETATM   20  O2  UNL     1      19.929 -19.721 -15.285  1.00  0.00    -0.345 OA
ATOM     21  H2  UNL     1      19.225 -20.222 -15.681  1.00  0.00     0.219 HD
ENDBRANCH   2  20
BRANCH   3  22
HETATM   22  C10 UNL     1      20.425 -20.198 -17.890  1.00  0.00     0.159 C
BRANCH  22  23
HETATM   23  C11 UNL     1      19.599 -21.427 -18.026  1.00  0.00     0.184 C
BRANCH  23  24
HETATM   24  O3  UNL     1      18.408 -21.458 -17.376  1.00  0.00    -0.399 OA
ATOM     25  H3  UNL     1      17.967 -22.297 -17.308  1.00  0.00     0.209 HD
ENDBRANCH  23  24
ENDBRANCH  22  23
ENDBRANCH   3  22
BRANCH   9  26
HETATM   26  C14 UNL     1      27.009 -21.557 -15.013  1.00  0.00     0.042 C
HETATM   27  C15 UNL     1      27.092 -23.028 -15.171  1.00  0.00     0.037 C
HETATM   28  C16 UNL     1      28.195 -23.718 -14.451  1.00  0.00     0.169 C
HETATM   29  O4  UNL     1      28.768 -22.992 -13.412  1.00  0.00    -0.381 OA
HETATM   30  C17 UNL     1      27.869 -22.205 -12.732  1.00  0.00     0.054 C
HETATM   31  C18 UNL     1      28.615 -21.596 -11.524  1.00  0.00     0.045 C
HETATM   32  C19 UNL     1      26.693 -22.961 -12.159  1.00  0.00     0.045 C
HETATM   33  C20 UNL     1      27.335 -21.089 -13.596  1.00  0.00     0.048 C
ENDBRANCH   9  26
TORSDOF 10
ENDMDL