MODEL 5
REMARK VINA RESULT: -5.664361498      2.908      4.465
REMARK  7 active torsions:
REMARK  status: ('A' for Active; 'I' for Inactive)
REMARK    1  A    between atoms: O1_2  and  C2_3
REMARK    2  A    between atoms: C2_3  and  O3_5
REMARK    3  A    between atoms: O3_5  and  C3_6
REMARK    4  A    between atoms: C3_6  and  C4_7
REMARK    5  A    between atoms: C9_12  and  C10_13
REMARK    6  A    between atoms: C14_20  and  C15_21
REMARK    7  A    between atoms: C15_21  and  C16_22
ROOT
HETATM    1  C4  UNL     1     -11.938 -15.996  -0.022  1.00  0.00     0.039 C
HETATM    2  C5  UNL     1     -13.084 -16.834  -0.439  1.00  0.00     0.011 C
HETATM    3  C6  UNL     1     -14.411 -16.400   0.006  1.00  0.00     0.004 C
HETATM    4  C7  UNL     1     -14.430 -15.346   1.065  1.00  0.00     0.027 C
HETATM    5  C8  UNL     1     -13.479 -14.271   0.695  1.00  0.00    -0.023 C
HETATM    6  C9  UNL     1     -12.305 -14.541   0.182  1.00  0.00    -0.071 C
ENDROOT
BRANCH   6   7
HETATM    7  C10 UNL     1     -11.319 -13.551  -0.313  1.00  0.00     0.048 C
HETATM    8  C11 UNL     1     -10.727 -12.820   0.937  1.00  0.00     0.043 C
HETATM    9  C12 UNL     1     -10.936 -11.352   0.681  1.00  0.00     0.183 C
HETATM   10  C13 UNL     1      -9.767 -10.692   0.033  1.00  0.00     0.040 C
HETATM   11  N1  UNL     1     -12.118 -11.340  -0.201  1.00  0.00    -0.066 N
HETATM   12  C14 UNL     1     -11.732 -12.398  -1.097  1.00  0.00     0.201 C
ATOM     13  H12 UNL     1     -13.025 -11.441   0.254  1.00  0.00     0.278 HD
ATOM     14  H11 UNL     1     -12.353 -10.446  -0.632  1.00  0.00     0.278 HD
BRANCH  12  15
HETATM   15  C15 UNL     1     -12.511 -12.521  -2.329  1.00  0.00     0.111 C
BRANCH  15  16
HETATM   16  C16 UNL     1     -13.476 -11.370  -2.428  1.00  0.00     0.125 C
HETATM   17  C17 UNL     1     -13.140 -10.284  -3.420  1.00  0.00     0.091 C
HETATM   18  O4  UNL     1     -14.477 -11.297  -1.757  1.00  0.00    -0.298 OA
ENDBRANCH  15  16
ENDBRANCH  12  15
ENDBRANCH   6   7
BRANCH   1  19
HETATM   19  C3  UNL     1     -11.083 -16.579   1.030  1.00  0.00     0.190 C
BRANCH  19  20
HETATM   20  O3  UNL     1      -9.764 -16.667   1.049  1.00  0.00    -0.297 OA
BRANCH  20  21
HETATM   21  C2  UNL     1      -8.739 -17.410   0.617  1.00  0.00     0.406 C
HETATM   22  O2  UNL     1      -8.204 -18.229   1.390  1.00  0.00    -0.230 OA
BRANCH  21  23
HETATM   23  O1  UNL     1      -8.189 -17.353  -0.666  1.00  0.00    -0.303 OA
HETATM   24  C1  UNL     1      -8.220 -18.474  -1.528  1.00  0.00     0.215 C
ENDBRANCH  21  23
ENDBRANCH  20  21
ENDBRANCH  19  20
ENDBRANCH   1  19
TORSDOF 7
ENDMDL