MODEL 4
REMARK VINA RESULT: -5.491810230      6.886     10.310
REMARK  7 active torsions:
REMARK  status: ('A' for Active; 'I' for Inactive)
REMARK    1  A    between atoms: C2_2  and  C3_3
REMARK    2  A    between atoms: C3_3  and  C5_6
REMARK    3  A    between atoms: C3_3  and  N2_12
REMARK    4  A    between atoms: C5_6  and  C6_7
REMARK    5  A    between atoms: N2_12  and  C11_14
REMARK    6  A    between atoms: C11_14  and  N3_15
REMARK    7  A    between atoms: C11_14  and  C13_18
ROOT
HETATM    1  C3  UNL     1     -12.778 -17.447   0.951  1.00  0.00     0.121 C
HETATM    2  C4  UNL     1     -13.172 -18.545  -0.006  1.00  0.00     0.091 C
HETATM    3  N1  UNL     1     -13.453 -19.386  -0.747  1.00  0.00    -0.195 NA
ENDROOT
BRANCH   1   4
HETATM    4  C2  UNL     1     -14.031 -17.194   1.726  1.00  0.00     0.042 C
HETATM    5  C1  UNL     1     -14.200 -18.401   2.684  1.00  0.00     0.009 C
ENDBRANCH   1   4
BRANCH   1   6
HETATM    6  C5  UNL     1     -12.280 -16.316   0.146  1.00  0.00     0.051 C
BRANCH   6   7
HETATM    7  C6  UNL     1     -12.431 -14.926   0.665  1.00  0.00    -0.011 C
HETATM    8  C7  UNL     1     -13.274 -14.157  -0.357  1.00  0.00     0.005 C
HETATM    9  C8  UNL     1     -12.366 -13.090  -0.927  1.00  0.00     0.000 C
HETATM   10  C9  UNL     1     -11.581 -12.734   0.334  1.00  0.00     0.000 C
HETATM   11  C10 UNL     1     -11.191 -14.125   0.813  1.00  0.00     0.005 C
ENDBRANCH   6   7
ENDBRANCH   1   6
BRANCH   1  12
HETATM   12  N2  UNL     1     -11.747 -18.004   1.807  1.00  0.00    -0.354 N
ATOM     13  H2  UNL     1     -12.088 -18.353   2.702  1.00  0.00     0.163 HD
BRANCH  12  14
HETATM   14  C11 UNL     1     -10.379 -18.145   1.621  1.00  0.00     0.116 C
BRANCH  14  15
HETATM   15  N3  UNL     1      -9.474 -17.313   1.739  1.00  0.00    -0.362 N
HETATM   16  C12 UNL     1      -8.473 -16.602   1.163  1.00  0.00     0.120 C
ATOM     17  H3  UNL     1      -9.485 -17.031   2.719  1.00  0.00     0.165 HD
ENDBRANCH  14  15
BRANCH  14  18
HETATM   18  C13 UNL     1      -9.889 -19.527   1.221  1.00  0.00     0.055 A
HETATM   19  C14 UNL     1      -9.595 -20.564   2.079  1.00  0.00     0.038 A
HETATM   20  C15 UNL     1      -9.718 -20.515   3.560  1.00  0.00     0.071 C
HETATM   21  N4  UNL     1      -9.186 -21.610   1.342  1.00  0.00    -0.302 N
HETATM   22  N5  UNL     1      -9.203 -21.290   0.073  1.00  0.00    -0.300 N
ATOM     23  H4  UNL     1      -8.903 -22.516   1.714  1.00  0.00     0.186 HD
HETATM   24  C16 UNL     1      -8.836 -22.125  -1.078  1.00  0.00     0.177 C
HETATM   25  C17 UNL     1      -9.637 -19.998  -0.033  1.00  0.00     0.040 A
HETATM   26  C18 UNL     1      -9.779 -19.292  -1.314  1.00  0.00     0.071 C
ENDBRANCH  14  18
ENDBRANCH  12  14
ENDBRANCH   1  12
TORSDOF 7
ENDMDL