MODEL 1
REMARK VINA RESULT: -6.691027142      0.000      0.000
REMARK  7 active torsions:
REMARK  status: ('A' for Active; 'I' for Inactive)
REMARK    1  A    between atoms: C2_2  and  N1_3
REMARK    2  A    between atoms: C2_2  and  C5_9
REMARK    3  A    between atoms: N1_3  and  O1_4
REMARK    4  A    between atoms: O1_4  and  C3_5
REMARK    5  A    between atoms: C3_5  and  C4_6
REMARK    6  A    between atoms: C4_6  and  O2_7
REMARK    7  A    between atoms: N2_11  and  C7_12
ROOT
HETATM    1  C5  UNL     1     -10.273 -11.037   0.927  1.00  0.00     0.076 A
HETATM    2  C6  UNL     1     -11.578 -11.445   0.646  1.00  0.00     0.123 A
HETATM    3  N2  UNL     1     -11.615 -11.197  -0.661  1.00  0.00    -0.316 N
HETATM    4  S1  UNL     1     -10.064 -10.620  -0.676  1.00  0.00    -0.007 SA
ENDROOT
BRANCH   3   5
HETATM    5  C7  UNL     1     -12.649 -11.524  -1.671  1.00  0.00     0.044 C
HETATM    6  C8  UNL     1     -14.010 -11.335  -1.193  1.00  0.00     0.036 C
HETATM    7  C9  UNL     1     -14.969 -11.891  -2.257  1.00  0.00    -0.012 C
HETATM    8  C10 UNL     1     -14.752 -11.164  -3.550  1.00  0.00     0.009 C
HETATM    9  C14 UNL     1     -14.633 -13.355  -2.430  1.00  0.00     0.009 C
HETATM   10  C11 UNL     1     -13.310 -11.254  -3.978  1.00  0.00    -0.012 C
HETATM   11  C12 UNL     1     -13.018 -12.726  -4.261  1.00  0.00     0.009 C
HETATM   12  C16 UNL     1     -12.390 -10.715  -2.918  1.00  0.00     0.036 C
HETATM   13  C13 UNL     1     -13.240 -13.517  -2.987  1.00  0.00    -0.012 C
HETATM   14  C15 UNL     1     -12.295 -12.985  -1.975  1.00  0.00     0.036 C
ENDBRANCH   3   5
BRANCH   1  15
HETATM   15  C2  UNL     1      -9.408 -11.041   2.145  1.00  0.00     0.133 C
HETATM   16  C1  UNL     1      -9.953 -11.940   3.276  1.00  0.00     0.089 C
BRANCH  15  17
HETATM   17  N1  UNL     1      -8.468 -10.361   2.305  1.00  0.00    -0.285 NA
BRANCH  17  18
HETATM   18  O1  UNL     1      -7.454  -9.653   2.673  1.00  0.00    -0.207 OA
BRANCH  18  19
HETATM   19  C3  UNL     1      -6.915  -9.855   4.063  1.00  0.00     0.243 C
BRANCH  19  20
HETATM   20  C4  UNL     1      -6.330 -11.270   3.826  1.00  0.00     0.194 C
BRANCH  20  21
HETATM   21  O2  UNL     1      -5.073 -11.270   3.408  1.00  0.00    -0.399 OA
ATOM     22  H2  UNL     1      -4.464 -11.672   4.016  1.00  0.00     0.209 HD
ENDBRANCH  20  21
ENDBRANCH  19  20
ENDBRANCH  18  19
ENDBRANCH  17  18
ENDBRANCH  15  17
ENDBRANCH   1  15
TORSDOF 7
ENDMDL