MODEL 3
REMARK VINA RESULT: -5.609414374      1.353      5.384
REMARK  5 active torsions:
REMARK  status: ('A' for Active; 'I' for Inactive)
REMARK    1  A    between atoms: C2_2  and  N1_4
REMARK    2  A    between atoms: N1_4  and  C4_6
REMARK    3  A    between atoms: C4_6  and  C6_8
REMARK    4  A    between atoms: C6_8  and  N2_9
REMARK    5  A    between atoms: C7_10  and  C8_11
ROOT
HETATM    1  N2  UNL     1     -11.356 -12.611  -0.410  1.00  0.00    -0.305 N
HETATM    2  C7  UNL     1     -11.710 -13.704   0.293  1.00  0.00     0.122 A
HETATM    3  N4  UNL     1     -11.210 -13.628   1.518  1.00  0.00    -0.341 N
ATOM      4  H4  UNL     1     -11.330 -14.325   2.253  1.00  0.00     0.167 HD
HETATM    5  C13 UNL     1     -10.505 -12.460   1.637  1.00  0.00     0.068 A
HETATM    6  C14 UNL     1      -9.783 -11.839   2.626  1.00  0.00     0.081 A
HETATM    7  S1  UNL     1      -9.258 -10.407   1.866  1.00  0.00    -0.109 SA
HETATM    8  C15 UNL     1      -9.964 -10.637   0.329  1.00  0.00     0.082 A
HETATM    9  C16 UNL     1     -10.601 -11.848   0.458  1.00  0.00     0.074 A
ENDROOT
BRANCH   1  10
HETATM   10  C6  UNL     1     -11.731 -12.405  -1.735  1.00  0.00     0.123 C
BRANCH  10  11
HETATM   11  C4  UNL     1     -12.859 -11.546  -2.132  1.00  0.00     0.017 C
HETATM   12  C5  UNL     1     -12.430 -10.391  -3.045  1.00  0.00     0.069 C
BRANCH  11  13
HETATM   13  N1  UNL     1     -13.816 -11.222  -1.160  1.00  0.00    -0.388 N
ATOM     14  H1  UNL     1     -13.521 -11.164  -0.185  1.00  0.00     0.159 HD
BRANCH  13  15
HETATM   15  C2  UNL     1     -15.150 -10.978  -1.464  1.00  0.00     0.073 C
HETATM   16  C1  UNL     1     -16.112 -12.138  -1.379  1.00  0.00     0.031 C
HETATM   17  C3  UNL     1     -15.784  -9.799  -0.765  1.00  0.00     0.031 C
ENDBRANCH  13  15
ENDBRANCH  11  13
ENDBRANCH  10  11
ENDBRANCH   1  10
BRANCH   2  18
HETATM   18  C8  UNL     1     -12.539 -14.889  -0.119  1.00  0.00     0.290 C
HETATM   19  C9  UNL     1     -13.974 -14.547   0.282  1.00  0.00     0.045 C
HETATM   20  C10 UNL     1     -14.555 -15.887   0.601  1.00  0.00     0.033 C
HETATM   21  C11 UNL     1     -13.399 -16.611   1.209  1.00  0.00     0.273 C
HETATM   22  N3  UNL     1     -12.194 -15.951   0.805  1.00  0.00     0.096 N
HETATM   23  C12 UNL     1     -11.233 -16.872   0.242  1.00  0.00     0.310 C
ENDBRANCH   2  18
TORSDOF 5
ENDMDL