MODEL 3
REMARK VINA RESULT: -6.098585552      1.688      2.286
REMARK  5 active torsions:
REMARK  status: ('A' for Active; 'I' for Inactive)
REMARK    1  A    between atoms: C1_2  and  C2_3
REMARK       I    between atoms: C1_2  and  N3_15
REMARK    2  A    between atoms: C2_3  and  S1_4
REMARK    3  A    between atoms: S1_4  and  C3_5
REMARK    4  A    between atoms: C4_8  and  C5_9
REMARK    5  A    between atoms: N3_15  and  C8_17
ROOT
HETATM    1  C2  UNL     1     -12.738 -14.448   0.776  1.00  0.00     0.184 C
ENDROOT
BRANCH   1   2
HETATM    2  C1  UNL     1     -12.328 -15.852   0.588  1.00  0.00     0.227 C
HETATM    3  O1  UNL     1     -13.089 -16.636  -0.014  1.00  0.00    -0.273 OA
HETATM    4  N3  UNL     1     -11.084 -16.288   1.090  1.00  0.00    -0.356 N
ATOM      5  H3  UNL     1     -10.470 -15.638   1.581  1.00  0.00     0.162 HD
BRANCH   4   6
HETATM    6  C8  UNL     1     -10.690 -17.668   0.901  1.00  0.00     0.084 C
HETATM    7  C9  UNL     1      -9.801 -17.736  -0.308  1.00  0.00     0.025 C
HETATM    8  C10 UNL     1      -8.360 -17.728   0.199  1.00  0.00     0.002 C
HETATM    9  C11 UNL     1      -8.125 -19.087   0.826  1.00  0.00     0.000 C
HETATM   10  C12 UNL     1      -9.093 -19.282   1.969  1.00  0.00     0.002 C
HETATM   11  C13 UNL     1      -9.996 -18.107   2.170  1.00  0.00     0.025 C
ENDBRANCH   4   6
ENDBRANCH   1   2
BRANCH   1  12
HETATM   12  S1  UNL     1     -12.009 -13.443  -0.535  1.00  0.00    -0.094 SA
BRANCH  12  13
HETATM   13  C3  UNL     1     -10.908 -12.251   0.272  1.00  0.00     0.130 A
HETATM   14  N1  UNL     1     -10.575 -12.179   1.545  1.00  0.00    -0.333 N
HETATM   15  C4  UNL     1      -9.757 -11.236   1.938  1.00  0.00     0.092 A
ATOM     16  H1  UNL     1     -10.950 -12.849   2.217  1.00  0.00     0.168 HD
HETATM   17  N2  UNL     1      -9.306 -10.394   1.007  1.00  0.00    -0.314 N
HETATM   18  S2  UNL     1     -10.042 -10.946  -0.402  1.00  0.00     0.012 SA
ATOM     19  H2  UNL     1      -8.669  -9.605   1.122  1.00  0.00     0.175 HD
BRANCH  15  20
HETATM   20  C5  UNL     1      -9.356 -11.123   3.384  1.00  0.00     0.054 A
HETATM   21  C6  UNL     1      -8.000 -10.632   3.724  1.00  0.00     0.013 A
HETATM   22  C7  UNL     1      -8.242 -12.074   3.789  1.00  0.00     0.013 A
ENDBRANCH  15  20
ENDBRANCH  12  13
ENDBRANCH   1  12
TORSDOF 5
ENDMDL