MODEL 2
REMARK VINA RESULT: -5.839298292      2.842      7.182
REMARK  6 active torsions:
REMARK  status: ('A' for Active; 'I' for Inactive)
REMARK    1  A    between atoms: O1_2  and  C2_3
REMARK    2  A    between atoms: C4_5  and  C5_6
REMARK    3  A    between atoms: N1_7  and  C6_9
REMARK    4  A    between atoms: C13_16  and  O2_17
REMARK    5  A    between atoms: C14_19  and  O3_20
REMARK    6  A    between atoms: C16_22  and  O4_23
ROOT
HETATM    1  C2  UNL     1     -13.309 -13.823  -1.000  1.00  0.00     0.105 A
HETATM    2  C3  UNL     1     -12.738 -14.949  -0.445  1.00  0.00     0.055 A
HETATM    3  C4  UNL     1     -11.655 -14.891   0.405  1.00  0.00     0.018 A
HETATM    4  C13 UNL     1     -11.144 -13.641   0.691  1.00  0.00     0.113 A
HETATM    5  C14 UNL     1     -11.721 -12.501   0.129  1.00  0.00     0.138 A
HETATM    6  C16 UNL     1     -12.805 -12.571  -0.720  1.00  0.00     0.138 A
ENDROOT
BRANCH   3   7
HETATM    7  C5  UNL     1     -11.065 -16.107   0.983  1.00  0.00     0.097 C
HETATM    8  N1  UNL     1      -9.797 -16.312   0.948  1.00  0.00    -0.393 N
ATOM      9  H1  UNL     1      -9.174 -15.629   0.516  1.00  0.00     0.159 HD
BRANCH   8  10
HETATM   10  C6  UNL     1      -9.265 -17.524   1.531  1.00  0.00     0.081 C
HETATM   11  C7  UNL     1     -10.423 -18.371   1.991  1.00  0.00     0.025 C
HETATM   12  C8  UNL     1      -9.851 -19.647   2.563  1.00  0.00     0.002 C
HETATM   13  C9  UNL     1      -9.168 -20.440   1.507  1.00  0.00     0.004 C
HETATM   14  C10 UNL     1      -8.574 -19.660   0.399  1.00  0.00    -0.017 C
HETATM   15  C11 UNL     1      -7.243 -20.332   0.030  1.00  0.00     0.010 C
HETATM   16  C12 UNL     1      -8.293 -18.235   0.670  1.00  0.00     0.029 C
ENDBRANCH   8  10
ENDBRANCH   3   7
BRANCH   4  17
HETATM   17  O2  UNL     1     -10.056 -13.532   1.540  1.00  0.00    -0.357 OA
ATOM     18  H2  UNL     1     -10.139 -13.818   2.441  1.00  0.00     0.217 HD
ENDBRANCH   4  17
BRANCH   1  19
HETATM   19  O1  UNL     1     -14.394 -13.909  -1.849  1.00  0.00    -0.353 OA
HETATM   20  C1  UNL     1     -15.697 -14.068  -1.318  1.00  0.00     0.210 C
ENDBRANCH   1  19
BRANCH   5  21
HETATM   21  O3  UNL     1     -11.219 -11.230   0.408  1.00  0.00    -0.351 OA
HETATM   22  C15 UNL     1     -10.089 -10.799  -0.359  1.00  0.00     0.210 C
ENDBRANCH   5  21
BRANCH   6  23
HETATM   23  O4  UNL     1     -13.348 -11.410  -1.256  1.00  0.00    -0.351 OA
HETATM   24  C17 UNL     1     -13.039 -10.957  -2.564  1.00  0.00     0.210 C
ENDBRANCH   6  23
TORSDOF 6
ENDMDL