MODEL 4
REMARK VINA RESULT: -6.410829678      3.723      5.983
REMARK  8 active torsions:
REMARK  status: ('A' for Active; 'I' for Inactive)
REMARK    1  A    between atoms: O1_2  and  C2_3
REMARK    2  A    between atoms: C2_3  and  C3_5
REMARK    3  A    between atoms: C3_5  and  C4_6
REMARK    4  A    between atoms: C4_6  and  C5_7
REMARK       I    between atoms: C5_7  and  N1_9
REMARK    5  A    between atoms: N1_9  and  C6_11
REMARK    6  A    between atoms: C7_13  and  C8_14
REMARK    7  A    between atoms: C8_14  and  O4_15
REMARK    8  A    between atoms: C8_14  and  C9_17
ROOT
HETATM    1  C6  UNL     1     -10.797 -12.801   1.182  1.00  0.00     0.083 A
HETATM    2  S1  UNL     1     -11.276 -11.374   0.272  1.00  0.00    -0.069 SA
HETATM    3  C7  UNL     1     -12.374 -12.091  -0.837  1.00  0.00     0.043 A
HETATM    4  C12 UNL     1     -12.337 -13.390  -0.472  1.00  0.00    -0.034 A
HETATM    5  C13 UNL     1     -13.250 -14.398  -1.182  1.00  0.00     0.050 C
HETATM    6  C14 UNL     1     -11.530 -13.754   0.556  1.00  0.00    -0.021 A
HETATM    7  C15 UNL     1     -11.385 -15.222   0.937  1.00  0.00     0.052 C
ENDROOT
BRANCH   1   8
HETATM    8  N1  UNL     1      -9.859 -12.746   2.247  1.00  0.00    -0.321 N
HETATM    9  C5  UNL     1      -9.274 -11.777   3.010  1.00  0.00     0.223 C
HETATM   10  O3  UNL     1      -9.426 -10.548   2.947  1.00  0.00    -0.273 OA
ATOM     11  H1  UNL     1      -9.538 -13.677   2.511  1.00  0.00     0.169 HD
BRANCH   9  12
HETATM   12  C4  UNL     1      -8.283 -12.176   4.111  1.00  0.00     0.113 C
BRANCH  12  13
HETATM   13  C3  UNL     1      -7.064 -11.311   4.089  1.00  0.00     0.120 C
BRANCH  13  14
HETATM   14  C2  UNL     1      -5.932 -12.205   3.650  1.00  0.00     0.258 C
HETATM   15  O2  UNL     1      -5.950 -13.447   3.848  1.00  0.00    -0.265 OA
BRANCH  14  16
HETATM   16  O1  UNL     1      -4.824 -11.680   3.001  1.00  0.00    -0.326 OA
HETATM   17  C1  UNL     1      -3.774 -12.448   2.451  1.00  0.00     0.213 C
ENDBRANCH  14  16
ENDBRANCH  13  14
ENDBRANCH  12  13
ENDBRANCH   9  12
ENDBRANCH   1   8
BRANCH   3  18
HETATM   18  C8  UNL     1     -13.083 -11.312  -1.848  1.00  0.00     0.064 C
BRANCH  18  19
HETATM   19  O4  UNL     1     -14.202 -10.760  -1.454  1.00  0.00    -0.363 OA
ATOM     20  H4  UNL     1     -14.936 -10.852  -2.050  1.00  0.00     0.217 HD
ENDBRANCH  18  19
BRANCH  18  21
HETATM   21  C9  UNL     1     -12.749 -11.038  -3.229  1.00  0.00     0.035 C
HETATM   22  C10 UNL     1     -13.134 -12.272  -4.088  1.00  0.00     0.016 C
HETATM   23  C11 UNL     1     -13.517  -9.869  -3.817  1.00  0.00     0.016 C
ENDBRANCH  18  21
ENDBRANCH   3  18
TORSDOF 8
ENDMDL