MODEL 2
REMARK VINA RESULT: -6.114493416      2.201      6.457
REMARK  6 active torsions:
REMARK  status: ('A' for Active; 'I' for Inactive)
REMARK    1  A    between atoms: O1_2  and  C2_3
REMARK    2  A    between atoms: C2_3  and  C3_5
REMARK    3  A    between atoms: C3_5  and  C4_6
REMARK    4  A    between atoms: C4_6  and  C5_7
REMARK    5  A    between atoms: C5_7  and  C6_8
REMARK    6  A    between atoms: C8_11  and  C9_12
ROOT
HETATM    1  C6  UNL     1     -11.839 -12.433  -1.203  1.00  0.00     0.063 C
HETATM    2  C7  UNL     1     -12.527 -13.611  -0.555  1.00  0.00     0.025 A
HETATM    3  S1  UNL     1     -12.309 -14.995   0.413  1.00  0.00    -0.084 SA
HETATM    4  C8  UNL     1     -13.923 -15.555   0.463  1.00  0.00     0.090 A
HETATM    5  C10 UNL     1     -14.594 -14.620  -0.295  1.00  0.00    -0.004 A
HETATM    6  C11 UNL     1     -16.092 -14.800  -0.472  1.00  0.00     0.053 C
HETATM    7  C12 UNL     1     -13.854 -13.623  -0.812  1.00  0.00     0.091 A
HETATM    8  O5  UNL     1     -14.050 -12.472  -1.620  1.00  0.00    -0.339 OA
HETATM    9  C13 UNL     1     -12.859 -12.090  -2.260  1.00  0.00     0.069 C
HETATM   10  C14 UNL     1     -12.693 -12.946  -3.485  1.00  0.00     0.047 C
HETATM   11  C15 UNL     1     -12.912 -10.623  -2.563  1.00  0.00     0.047 C
ENDROOT
BRANCH   1  12
HETATM   12  C5  UNL     1     -11.595 -11.325  -0.234  1.00  0.00     0.013 C
BRANCH  12  13
HETATM   13  C4  UNL     1     -10.104 -11.353   0.122  1.00  0.00     0.011 C
BRANCH  13  14
HETATM   14  C3  UNL     1      -9.903 -11.178   1.604  1.00  0.00     0.111 C
BRANCH  14  15
HETATM   15  C2  UNL     1      -8.892 -10.105   1.788  1.00  0.00     0.258 C
HETATM   16  O2  UNL     1      -8.932  -9.014   1.153  1.00  0.00    -0.265 OA
BRANCH  15  17
HETATM   17  O1  UNL     1      -7.831 -10.251   2.685  1.00  0.00    -0.326 OA
HETATM   18  C1  UNL     1      -7.925 -11.170   3.765  1.00  0.00     0.213 C
ENDBRANCH  15  17
ENDBRANCH  14  15
ENDBRANCH  13  14
ENDBRANCH  12  13
ENDBRANCH   1  12
BRANCH   4  19
HETATM   19  C9  UNL     1     -14.477 -16.744   1.147  1.00  0.00     0.217 C
HETATM   20  O3  UNL     1     -14.263 -17.880   0.674  1.00  0.00    -0.643 OA
HETATM   21  O4  UNL     1     -15.223 -16.627   2.294  1.00  0.00    -0.643 OA
ENDBRANCH   4  19
TORSDOF 6
ENDMDL