MODEL 3
REMARK VINA RESULT: -6.289181703      1.187      1.627
REMARK  7 active torsions:
REMARK  status: ('A' for Active; 'I' for Inactive)
REMARK    1  A    between atoms: C2_2  and  C3_3
REMARK    2  A    between atoms: C7_7  and  C8_8
REMARK    3  A    between atoms: N1_9  and  O1_11
REMARK    4  A    between atoms: O1_11  and  C9_12
REMARK    5  A    between atoms: C9_12  and  C10_14
REMARK    6  A    between atoms: C10_14  and  C11_15
REMARK    7  A    between atoms: C11_15  and  O3_16
ROOT
HETATM    1  C3  UNL     1     -14.011 -13.760  -1.495  1.00  0.00     0.085 C
HETATM    2  C4  UNL     1     -12.852 -14.707  -1.109  1.00  0.00     0.074 C
HETATM    3  C5  UNL     1     -12.100 -13.792  -0.168  1.00  0.00    -0.072 C
HETATM    4  C6  UNL     1     -11.255 -14.317   0.954  1.00  0.00     0.044 C
HETATM    5  C7  UNL     1     -12.307 -12.532  -0.490  1.00  0.00    -0.027 C
HETATM    6  C12 UNL     1     -13.212 -12.494  -1.677  1.00  0.00     0.017 C
HETATM    7  C13 UNL     1     -14.075 -11.257  -1.561  1.00  0.00     0.023 C
HETATM    8  C14 UNL     1     -12.361 -12.491  -2.903  1.00  0.00     0.027 C
HETATM    9  C15 UNL     1     -12.958 -13.105  -4.119  1.00  0.00     0.112 C
HETATM   10  C16 UNL     1     -14.105 -13.981  -3.894  1.00  0.00     0.259 C
HETATM   11  O4  UNL     1     -14.610 -14.586  -4.869  1.00  0.00    -0.265 OA
HETATM   12  O5  UNL     1     -14.677 -14.189  -2.640  1.00  0.00    -0.309 OA
ENDROOT
BRANCH   5  13
HETATM   13  C8  UNL     1     -11.739 -11.370   0.209  1.00  0.00     0.122 C
HETATM   14  N1  UNL     1     -10.514 -11.073   0.199  1.00  0.00    -0.268 N
ATOM     15  H1  UNL     1      -9.960 -11.731  -0.349  1.00  0.00     0.194 HD
BRANCH  14  16
HETATM   16  O1  UNL     1      -9.778 -10.117   0.725  1.00  0.00    -0.200 OA
BRANCH  16  17
HETATM   17  C9  UNL     1      -9.020 -10.238   1.854  1.00  0.00     0.283 C
HETATM   18  O2  UNL     1      -8.078  -9.483   2.142  1.00  0.00    -0.263 OA
BRANCH  17  19
HETATM   19  C10 UNL     1      -9.376 -11.365   2.781  1.00  0.00     0.139 C
BRANCH  19  20
HETATM   20  C11 UNL     1      -8.223 -11.626   3.741  1.00  0.00     0.174 C
BRANCH  20  21
HETATM   21  O3  UNL     1      -8.070 -12.959   4.063  1.00  0.00    -0.400 OA
ATOM     22  H3  UNL     1      -7.669 -13.098   4.913  1.00  0.00     0.209 HD
ENDBRANCH  20  21
ENDBRANCH  19  20
ENDBRANCH  17  19
ENDBRANCH  16  17
ENDBRANCH  14  16
ENDBRANCH   5  13
BRANCH   1  23
HETATM   23  C2  UNL     1     -14.934 -13.617  -0.320  1.00  0.00     0.035 C
HETATM   24  C1  UNL     1     -15.628 -14.964  -0.118  1.00  0.00     0.008 C
ENDBRANCH   1  23
TORSDOF 7
ENDMDL