MODEL 3
REMARK VINA RESULT: -5.061786704      2.032      4.798
REMARK  2 active torsions:
REMARK  status: ('A' for Active; 'I' for Inactive)
REMARK    1  A    between atoms: C2_2  and  N1_3
REMARK    2  A    between atoms: C10_15  and  N4_16
ROOT
HETATM    1  C1  UNL     1      -0.713  20.865  75.867  1.00  0.00     0.041 C
HETATM    2  C2  UNL     1       0.416  21.755  75.329  1.00  0.00     0.052 C
HETATM    3  C5  UNL     1       1.627  21.466  76.157  1.00  0.00     0.039 C
HETATM    4  C6  UNL     1       2.081  22.580  77.018  1.00  0.00     0.019 C
HETATM    5  C7  UNL     1       0.980  23.378  77.655  1.00  0.00     0.013 C
HETATM    6  C8  UNL     1       0.787  24.036  76.314  1.00  0.00     0.019 C
HETATM    7  C9  UNL     1       0.006  23.207  75.350  1.00  0.00     0.039 C
HETATM    8  C10 UNL     1       2.293  23.805  76.115  1.00  0.00     0.192 C
ENDROOT
BRANCH   2   9
HETATM    9  N1  UNL     1       0.603  21.362  73.947  1.00  0.00    -0.277 N
HETATM   10  C3  UNL     1       1.656  21.560  73.137  1.00  0.00     0.202 A
HETATM   11  N2  UNL     1       1.426  21.032  71.914  1.00  0.00    -0.346 N
HETATM   12  C4  UNL     1       0.210  20.500  71.972  1.00  0.00     0.198 A
ATOM     13  H2  UNL     1       2.056  21.040  71.112  1.00  0.00     0.167 HD
HETATM   14  N3  UNL     1      -0.282  20.702  73.201  1.00  0.00    -0.292 N
ATOM     15  H3  UNL     1      -1.201  20.395  73.520  1.00  0.00     0.188 HD
ENDBRANCH   2   9
BRANCH   8  16
HETATM   16  N4  UNL     1       3.024  24.805  76.836  1.00  0.00    -0.074 N
ATOM     17  H43 UNL     1       2.636  25.738  76.704  1.00  0.00     0.274 HD
ATOM     18  H42 UNL     1       2.885  24.733  77.844  1.00  0.00     0.274 HD
ATOM     19  H41 UNL     1       4.009  24.755  76.577  1.00  0.00     0.274 HD
ENDBRANCH   8  16
TORSDOF 2
ENDMDL