MODEL 5
REMARK VINA RESULT: -4.524606074      2.935      4.235
REMARK  1 active torsions:
REMARK  status: ('A' for Active; 'I' for Inactive)
REMARK    1  A    between atoms: N1_5  and  C4_7
ROOT
HETATM    1  C1  UNL     1       0.265  25.473  77.011  1.00  0.00     0.132 C
HETATM    2  C2  UNL     1       0.725  25.245  78.449  1.00  0.00     0.102 C
HETATM    3  S1  UNL     1       1.707  23.703  78.201  1.00  0.00    -0.093 SA
HETATM    4  C3  UNL     1       0.940  23.230  76.658  1.00  0.00     0.136 C
HETATM    5  N1  UNL     1       1.265  22.217  75.971  1.00  0.00    -0.366 N
ATOM      6  H1  UNL     1       2.023  21.655  76.359  1.00  0.00     0.162 HD
HETATM    7  N2  UNL     1      -0.050  24.211  76.425  1.00  0.00    -0.370 N
ATOM      8  H2  UNL     1      -0.902  24.035  75.891  1.00  0.00     0.161 HD
ENDROOT
BRANCH   5   9
HETATM    9  C4  UNL     1       0.733  21.747  74.743  1.00  0.00     0.087 C
HETATM   10  C5  UNL     1       1.808  21.345  73.726  1.00  0.00     0.051 C
HETATM   11  C6  UNL     1       1.058  21.270  72.386  1.00  0.00     0.169 C
HETATM   12  O1  UNL     1       0.162  20.222  72.508  1.00  0.00    -0.391 OA
HETATM   13  C7  UNL     1      -0.839  20.442  73.430  1.00  0.00     0.169 C
HETATM   14  C8  UNL     1      -0.295  20.673  74.839  1.00  0.00     0.051 C
ENDBRANCH   5   9
TORSDOF 1
ENDMDL