MODEL 1
REMARK VINA RESULT: -5.888565766      0.000      0.000
REMARK  2 active torsions:
REMARK  status: ('A' for Active; 'I' for Inactive)
REMARK    1  A    between atoms: C2_8  and  N4_9
REMARK    2  A    between atoms: N4_9  and  C3_11
ROOT
HETATM    1  C1  UNL     1       0.250  19.079  71.270  1.00  0.00     0.216 A
HETATM    2  N1  UNL     1      -0.900  18.461  71.618  1.00  0.00    -0.281 N
ATOM      3  H1  UNL     1      -1.230  17.675  71.057  1.00  0.00     0.189 HD
HETATM    4  N2  UNL     1      -1.606  18.843  72.657  1.00  0.00    -0.228 N
ATOM      5  H2  UNL     1      -2.470  18.351  72.887  1.00  0.00     0.209 HD
HETATM    6  N3  UNL     1      -1.211  19.863  73.413  1.00  0.00    -0.118 N
ATOM      7  H3  UNL     1      -1.769  20.148  74.218  1.00  0.00     0.207 HD
HETATM    8  C2  UNL     1      -0.087  20.511  73.122  1.00  0.00     0.695 A
HETATM    9  N5  UNL     1       0.643  20.106  72.035  1.00  0.00    -0.185 N
ATOM     10  H5  UNL     1       1.506  20.597  71.803  1.00  0.00     0.185 HD
ENDROOT
BRANCH   8  11
HETATM   11  N4  UNL     1       0.409  21.508  73.764  1.00  0.00    -0.220 N
ATOM     12  H4  UNL     1       0.051  22.439  73.545  1.00  0.00     0.178 HD
BRANCH  11  13
HETATM   13  C3  UNL     1       1.433  21.405  74.772  1.00  0.00     0.099 C
HETATM   14  C4  UNL     1       2.316  22.616  74.791  1.00  0.00     0.026 C
HETATM   15  C5  UNL     1       2.100  23.521  75.964  1.00  0.00     0.002 C
HETATM   16  C6  UNL     1       0.684  24.003  75.928  1.00  0.00     0.000 C
HETATM   17  C7  UNL     1      -0.043  23.194  76.993  1.00  0.00     0.000 C
HETATM   18  C8  UNL     1      -0.324  21.801  76.549  1.00  0.00     0.002 C
HETATM   19  C9  UNL     1       0.867  21.022  76.098  1.00  0.00     0.026 C
ENDBRANCH  11  13
ENDBRANCH   8  11
TORSDOF 2
ENDMDL