MODEL 5
REMARK VINA RESULT: -3.810565142      3.298      5.808
REMARK  2 active torsions:
REMARK  status: ('A' for Active; 'I' for Inactive)
REMARK    1  A    between atoms: C2_2  and  C3_3
REMARK    2  A    between atoms: C4_4  and  N1_5
ROOT
HETATM    1  C3  UNL     1       4.849  24.985  75.015  1.00  0.00     0.148 C
HETATM    2  C4  UNL     1       4.589  26.407  75.532  1.00  0.00     0.323 C
HETATM    3  N2  UNL     1       5.985  26.578  75.082  1.00  0.00    -0.090 NA
HETATM    4  O1  UNL     1       5.980  26.742  73.769  1.00  0.00    -0.281 OA
HETATM    5  C5  UNL     1       7.072  26.279  73.094  1.00  0.00     0.145 C
HETATM    6  C6  UNL     1       8.195  27.282  73.144  1.00  0.00     0.041 C
HETATM    7  C7  UNL     1       7.503  24.892  73.490  1.00  0.00     0.059 C
HETATM    8  C8  UNL     1       7.261  24.588  74.931  1.00  0.00     0.026 C
HETATM    9  C9  UNL     1       7.041  23.075  75.088  1.00  0.00     0.033 C
HETATM   10  C10 UNL     1       8.498  24.885  75.778  1.00  0.00     0.033 C
HETATM   11  N3  UNL     1       6.162  25.259  75.502  1.00  0.00    -0.204 NA
ENDROOT
BRANCH   2  12
HETATM   12  N1  UNL     1       4.484  26.417  76.963  1.00  0.00    -0.057 N
ATOM     13  H13 UNL     1       4.200  27.332  77.315  1.00  0.00     0.276 HD
ATOM     14  H12 UNL     1       3.685  25.873  77.287  1.00  0.00     0.276 HD
ATOM     15  H11 UNL     1       5.355  26.102  77.392  1.00  0.00     0.276 HD
ENDBRANCH   2  12
BRANCH   1  16
HETATM   16  C2  UNL     1       4.075  23.944  75.728  1.00  0.00    -0.013 C
HETATM   17  C1  UNL     1       3.118  23.321  75.069  1.00  0.00     0.008 C
ENDBRANCH   1  16
TORSDOF 2
ENDMDL