MODEL 3
REMARK VINA RESULT: -4.611548300      2.151      4.374
REMARK  3 active torsions:
REMARK  status: ('A' for Active; 'I' for Inactive)
REMARK    1  A    between atoms: O1_1  and  C1_3
REMARK    2  A    between atoms: C1_3  and  C2_4
REMARK    3  A    between atoms: N1_8  and  C6_9
ROOT
HETATM    1  C2  UNL     1       1.547  22.556  75.918  1.00  0.00     0.110 C
HETATM    2  C3  UNL     1       2.606  23.624  75.734  1.00  0.00     0.029 C
HETATM    3  C4  UNL     1       3.784  22.909  75.119  1.00  0.00     0.022 C
HETATM    4  C5  UNL     1       3.191  21.646  74.589  1.00  0.00     0.125 C
HETATM    5  N1  UNL     1       1.742  21.734  74.744  1.00  0.00    -0.355 N
ENDROOT
BRANCH   5   6
HETATM    6  C6  UNL     1       0.825  21.117  73.885  1.00  0.00     0.142 C
HETATM    7  N2  UNL     1      -0.271  20.570  74.167  1.00  0.00    -0.350 N
HETATM    8  C7  UNL     1      -1.060  20.000  73.155  1.00  0.00     0.073 C
ATOM      9  H2  UNL     1      -0.588  20.539  75.136  1.00  0.00     0.167 HD
HETATM   10  C8  UNL     1      -0.236  19.618  71.944  1.00  0.00     0.127 C
HETATM   11  S1  UNL     1       1.039  20.949  72.119  1.00  0.00    -0.089 SA
ENDBRANCH   5   6
BRANCH   1  12
HETATM   12  C1  UNL     1       0.206  23.249  75.916  1.00  0.00     0.189 C
BRANCH  12  13
HETATM   13  O1  UNL     1      -0.681  22.462  76.639  1.00  0.00    -0.399 OA
ATOM     14  H1  UNL     1      -1.489  22.953  76.741  1.00  0.00     0.209 HD
ENDBRANCH  12  13
ENDBRANCH   1  12
TORSDOF 3
ENDMDL