MODEL 4
REMARK VINA RESULT: -4.633419486      0.716      1.129
REMARK  2 active torsions:
REMARK  status: ('A' for Active; 'I' for Inactive)
REMARK    1  A    between atoms: C5_5  and  N1_6
REMARK    2  A    between atoms: N1_6  and  N2_8
ROOT
HETATM    1  C1  UNL     1       1.721  23.871  79.008  1.00  0.00     0.018 C
HETATM    2  C2  UNL     1       1.611  24.573  77.691  1.00  0.00    -0.017 C
HETATM    3  C3  UNL     1       2.197  25.944  77.808  1.00  0.00     0.018 C
HETATM    4  C4  UNL     1       2.302  23.845  76.571  1.00  0.00     0.088 C
HETATM    5  C5  UNL     1       1.262  22.999  75.969  1.00  0.00     0.099 C
HETATM    6  N3  UNL     1       0.114  23.401  76.339  1.00  0.00    -0.369 N
ATOM      7  H3  UNL     1      -0.761  22.966  76.046  1.00  0.00     0.161 HD
HETATM    8  C6  UNL     1       0.187  24.553  77.229  1.00  0.00     0.031 C
HETATM    9  C7  UNL     1      -0.240  25.767  76.483  1.00  0.00     0.039 C
HETATM   10  C8  UNL     1      -0.796  24.313  78.352  1.00  0.00     0.039 C
ENDROOT
BRANCH   5  11
HETATM   11  N1  UNL     1       1.534  21.910  75.111  1.00  0.00    -0.230 N
ATOM     12  H1  UNL     1       2.371  21.361  75.309  1.00  0.00     0.194 HD
BRANCH  11  13
HETATM   13  N2  UNL     1       0.772  21.525  74.035  1.00  0.00    -0.038 N
HETATM   14  O1  UNL     1      -0.447  21.282  74.095  1.00  0.00    -0.516 OA
HETATM   15  O2  UNL     1       1.377  21.393  72.809  1.00  0.00    -0.516 OA
ENDBRANCH  11  13
ENDBRANCH   5  11
TORSDOF 2
ENDMDL