MODEL 5
REMARK VINA RESULT: -5.052108660      3.438      5.648
REMARK  2 active torsions:
REMARK  status: ('A' for Active; 'I' for Inactive)
REMARK    1  A    between atoms: C5_6  and  C7_9
REMARK    2  A    between atoms: C7_9  and  C8_10
ROOT
HETATM    1  N1  UNL     1      -2.171  25.126  78.967  1.00  0.00    -0.197 NA
HETATM    2  C1  UNL     1      -1.252  24.623  78.512  1.00  0.00     0.064 C
HETATM    3  C2  UNL     1      -0.066  23.982  77.952  1.00  0.00     0.094 C
HETATM    4  C3  UNL     1       1.118  24.070  78.910  1.00  0.00     0.021 C
HETATM    5  C4  UNL     1       2.251  23.631  77.971  1.00  0.00     0.026 C
HETATM    6  C5  UNL     1       1.891  24.248  76.639  1.00  0.00     0.057 C
HETATM    7  C6  UNL     1       2.770  25.349  76.311  1.00  0.00     0.069 C
HETATM    8  N2  UNL     1       3.468  26.212  76.071  1.00  0.00    -0.196 NA
HETATM    9  C10 UNL     1       0.472  24.769  76.775  1.00  0.00     0.044 C
ENDROOT
BRANCH   6  10
HETATM   10  C7  UNL     1       1.863  23.232  75.535  1.00  0.00     0.102 C
BRANCH  10  11
HETATM   11  C8  UNL     1       3.170  22.677  75.190  1.00  0.00     0.098 A
HETATM   12  N3  UNL     1       4.407  23.181  75.305  1.00  0.00    -0.340 N
HETATM   13  C9  UNL     1       5.303  22.288  74.851  1.00  0.00     0.198 A
ATOM     14  H3  UNL     1       4.634  24.102  75.679  1.00  0.00     0.168 HD
HETATM   15  N4  UNL     1       4.596  21.220  74.454  1.00  0.00    -0.295 N
HETATM   16  N5  UNL     1       3.327  21.453  74.656  1.00  0.00    -0.288 N
ATOM     17  H4  UNL     1       4.985  20.365  74.059  1.00  0.00     0.187 HD
ATOM     18  H5  UNL     1       2.570  20.803  74.441  1.00  0.00     0.188 HD
ENDBRANCH  10  11
ENDBRANCH   6  10
TORSDOF 2
ENDMDL