MODEL 1
REMARK VINA RESULT: -4.935638669      0.000      0.000
REMARK  1 active torsions:
REMARK  status: ('A' for Active; 'I' for Inactive)
REMARK    1  A    between atoms: C4_9  and  C5_10
ROOT
HETATM    1  C5  UNL     1       2.841  21.471  74.442  1.00  0.00     0.033 C
HETATM    2  C6  UNL     1       3.899  22.177  74.766  1.00  0.00     0.122 C
HETATM    3  C7  UNL     1       5.167  21.515  74.874  1.00  0.00     0.110 C
HETATM    4  N3  UNL     1       6.177  20.970  74.958  1.00  0.00    -0.191 NA
HETATM    5  C8  UNL     1       3.842  23.587  75.017  1.00  0.00     0.110 C
HETATM    6  N4  UNL     1       3.798  24.739  75.232  1.00  0.00    -0.191 NA
ENDROOT
BRANCH   1   7
HETATM    7  C4  UNL     1       1.488  22.098  74.311  1.00  0.00     0.120 C
HETATM    8  N1  UNL     1       0.745  21.350  73.379  1.00  0.00    -0.358 N
HETATM    9  C1  UNL     1       1.035  21.447  71.946  1.00  0.00     0.152 C
HETATM   10  C2  UNL     1      -0.266  20.520  73.869  1.00  0.00     0.136 C
HETATM   11  N2  UNL     1      -0.903  19.538  73.317  1.00  0.00    -0.380 N
HETATM   12  S1  UNL     1      -0.572  21.082  75.541  1.00  0.00    -0.092 SA
ATOM     13  H22 UNL     1      -0.728  19.217  72.365  1.00  0.00     0.158 HD
ATOM     14  H21 UNL     1      -1.641  18.932  73.675  1.00  0.00     0.158 HD
HETATM   15  C3  UNL     1       0.823  22.236  75.615  1.00  0.00     0.111 C
ENDBRANCH   1   7
TORSDOF 1
ENDMDL