MODEL 4
REMARK VINA RESULT: -3.402068046      1.829      3.228
REMARK  1 active torsions:
REMARK  status: ('A' for Active; 'I' for Inactive)
REMARK    1  A    between atoms: S1_2  and  C2_3
ROOT
HETATM    1  C2  UNL     1       2.796  23.366  76.628  1.00  0.00     0.126 C
HETATM    2  C3  UNL     1       2.628  24.120  77.911  1.00  0.00     0.134 C
HETATM    3  N1  UNL     1       1.905  25.324  77.623  1.00  0.00    -0.420 N
ATOM      4  H1  UNL     1       2.295  26.247  77.811  1.00  0.00     0.153 HD
HETATM    5  C4  UNL     1       0.608  25.152  77.059  1.00  0.00     0.119 C
HETATM    6  C5  UNL     1       0.338  23.887  76.341  1.00  0.00     0.089 C
HETATM    7  C6  UNL     1       1.486  23.015  76.010  1.00  0.00     0.179 C
HETATM    8  O1  UNL     1       1.177  21.708  76.423  1.00  0.00    -0.352 OA
HETATM    9  C7  UNL     1       0.465  21.234  75.311  1.00  0.00     0.197 C
HETATM   10  C8  UNL     1       1.460  21.648  74.231  1.00  0.00     0.197 C
HETATM   11  O2  UNL     1       1.720  22.945  74.629  1.00  0.00    -0.352 OA
ENDROOT
BRANCH   1  12
HETATM   12  S1  UNL     1       3.853  24.305  75.492  1.00  0.00    -0.162 SA
HETATM   13  C1  UNL     1       5.377  23.418  75.090  1.00  0.00     0.090 C
ENDBRANCH   1  12
TORSDOF 1
ENDMDL