MODEL 1
REMARK VINA RESULT: -4.019267890      0.000      0.000
REMARK  2 active torsions:
REMARK  status: ('A' for Active; 'I' for Inactive)
REMARK    1  A    between atoms: C2_2  and  C3_7
REMARK    2  A    between atoms: N1_3  and  O1_5
ROOT
HETATM    1  C3  UNL     1       0.108  24.725  77.839  1.00  0.00     0.227 C
HETATM    2  C4  UNL     1       1.116  24.327  78.872  1.00  0.00     0.054 C
HETATM    3  C5  UNL     1       2.293  23.787  78.035  1.00  0.00     0.071 C
HETATM    4  C6  UNL     1       1.757  23.963  76.643  1.00  0.00     0.457 C
HETATM    5  N2  UNL     1       0.746  22.939  76.528  1.00  0.00     0.121 N
HETATM    6  C7  UNL     1       0.526  22.472  75.200  1.00  0.00     0.312 C
HETATM    7  C8  UNL     1      -0.407  23.407  77.218  1.00  0.00     0.322 C
HETATM    8  N3  UNL     1       0.954  25.173  76.764  1.00  0.00     0.135 N
HETATM    9  C9  UNL     1       1.789  26.286  77.096  1.00  0.00     0.314 C
ENDROOT
BRANCH   1  10
HETATM   10  C2  UNL     1      -0.972  25.581  78.228  1.00  0.00     0.046 C
HETATM   11  C1  UNL     1      -1.396  25.821  79.647  1.00  0.00     0.068 C
HETATM   12  N1  UNL     1      -1.647  26.229  77.385  1.00  0.00    -0.275 N
ATOM     13  H1  UNL     1      -2.373  26.813  77.800  1.00  0.00     0.193 HD
BRANCH  12  14
HETATM   14  O1  UNL     1      -1.593  26.298  76.063  1.00  0.00    -0.290 OA
ATOM     15  H1  UNL     1      -0.948  26.659  75.466  1.00  0.00     0.244 HD
ENDBRANCH  12  14
ENDBRANCH   1  10
TORSDOF 2
ENDMDL