MODEL 2
REMARK VINA RESULT: -4.755638704      1.446      1.830
REMARK  2 active torsions:
REMARK  status: ('A' for Active; 'I' for Inactive)
REMARK    1  A    between atoms: C2_2  and  C3_3
REMARK    2  A    between atoms: C3_3  and  N1_4
REMARK       I    between atoms: C4_6  and  N3_8
ROOT
HETATM    1  N1  UNL     1     -20.564 -26.027 -12.871  1.00  0.00    -0.365 N
ATOM      2  H1  UNL     1     -20.089 -25.416 -12.208  1.00  0.00     0.162 HD
HETATM    3  C4  UNL     1     -19.858 -26.900 -13.514  1.00  0.00     0.186 C
HETATM    4  N2  UNL     1     -20.554 -27.731 -14.426  1.00  0.00    -0.064 NA
HETATM    5  N3  UNL     1     -18.464 -27.025 -13.319  1.00  0.00    -0.352 N
HETATM    6  C5  UNL     1     -17.797 -28.279 -13.589  1.00  0.00     0.156 C
HETATM    7  C6  UNL     1     -16.535 -28.423 -12.777  1.00  0.00     0.291 C
HETATM    8  N4  UNL     1     -15.632 -27.325 -12.929  1.00  0.00     0.087 N
HETATM    9  C7  UNL     1     -14.857 -27.182 -11.721  1.00  0.00     0.310 C
HETATM   10  C8  UNL     1     -16.235 -26.109 -13.382  1.00  0.00     0.291 C
HETATM   11  C9  UNL     1     -17.648 -25.924 -12.847  1.00  0.00     0.156 C
ENDROOT
BRANCH   1  12
HETATM   12  C3  UNL     1     -21.978 -25.871 -13.042  1.00  0.00     0.122 C
BRANCH  12  13
HETATM   13  C2  UNL     1     -22.420 -24.427 -12.876  1.00  0.00     0.015 C
HETATM   14  C1  UNL     1     -21.255 -23.542 -12.501  1.00  0.00     0.006 C
ENDBRANCH  12  13
ENDBRANCH   1  12
TORSDOF 2
ENDMDL