MODEL 1
REMARK VINA RESULT: -6.344626436      0.000      0.000
REMARK  2 active torsions:
REMARK  status: ('A' for Active; 'I' for Inactive)
REMARK    1  A    between atoms: C2_2  and  C3_3
REMARK    2  A    between atoms: C4_4  and  C5_5
REMARK       I    between atoms: N2_10  and  C8_12
ROOT
HETATM    1  C5  UNL     1     -19.646 -27.036 -14.110  1.00  0.00     0.169 C
HETATM    2  F1  UNL     1     -19.428 -26.478 -15.377  1.00  0.00    -0.229 F
HETATM    3  C6  UNL     1     -18.832 -26.257 -13.136  1.00  0.00     0.078 C
HETATM    4  C7  UNL     1     -19.626 -25.775 -11.939  1.00  0.00     0.147 C
HETATM    5  N1  UNL     1     -20.764 -25.045 -12.506  1.00  0.00    -0.325 N
HETATM    6  N2  UNL     1     -20.876 -23.809 -12.309  1.00  0.00    -0.276 N
ATOM      7  H2  UNL     1     -20.185 -23.300 -11.758  1.00  0.00     0.189 HD
HETATM    8  C8  UNL     1     -21.996 -23.140 -12.877  1.00  0.00     0.200 C
HETATM    9  N3  UNL     1     -21.898 -22.597 -14.030  1.00  0.00    -0.372 N
ATOM     10  H31 UNL     1     -22.701 -22.118 -14.437  1.00  0.00     0.158 HD
ATOM     11  H32 UNL     1     -21.041 -22.614 -14.583  1.00  0.00     0.158 HD
HETATM   12  N4  UNL     1     -23.190 -23.117 -12.107  1.00  0.00    -0.062 NA
HETATM   13  C9  UNL     1     -21.697 -25.837 -13.274  1.00  0.00     0.147 C
HETATM   14  C10 UNL     1     -21.100 -27.073 -13.852  1.00  0.00     0.078 C
ENDROOT
BRANCH   1  15
HETATM   15  C4  UNL     1     -19.107 -28.407 -14.193  1.00  0.00    -0.063 C
HETATM   16  C3  UNL     1     -18.653 -29.522 -14.276  1.00  0.00    -0.104 C
BRANCH  16  17
HETATM   17  C2  UNL     1     -18.086 -30.880 -14.400  1.00  0.00     0.089 C
HETATM   18  C1  UNL     1     -17.860 -31.243 -15.852  1.00  0.00     0.018 C
ENDBRANCH  16  17
ENDBRANCH   1  15
TORSDOF 2
ENDMDL