MODEL 5
REMARK VINA RESULT: -4.761551135      4.668      5.512
REMARK  2 active torsions:
REMARK  status: ('A' for Active; 'I' for Inactive)
REMARK       I    between atoms: C1_4  and  N3_6
REMARK    1  A    between atoms: C2_8  and  C3_9
REMARK    2  A    between atoms: C2_8  and  N4_11
ROOT
HETATM    1  N1  UNL     1     -16.680 -23.228 -13.065  1.00  0.00    -0.373 N
ATOM      2  H11 UNL     1     -17.646 -23.378 -13.352  1.00  0.00     0.158 HD
ATOM      3  H12 UNL     1     -16.390 -22.397 -12.551  1.00  0.00     0.158 HD
HETATM    4  C1  UNL     1     -15.780 -24.099 -13.348  1.00  0.00     0.187 C
HETATM    5  N2  UNL     1     -14.426 -23.889 -12.946  1.00  0.00    -0.064 NA
HETATM    6  N3  UNL     1     -16.182 -25.251 -14.063  1.00  0.00    -0.320 N
ATOM      7  H3  UNL     1     -15.903 -25.342 -15.040  1.00  0.00     0.169 HD
HETATM    8  C2  UNL     1     -16.883 -26.187 -13.534  1.00  0.00     0.095 C
ENDROOT
BRANCH   8   9
HETATM    9  C3  UNL     1     -17.342 -26.150 -12.105  1.00  0.00     0.191 C
HETATM   10 CL1  UNL     1     -19.109 -25.971 -12.022  1.00  0.00    -0.122 Cl
ENDBRANCH   8   9
BRANCH   8  11
HETATM   11  N4  UNL     1     -17.252 -27.314 -14.304  1.00  0.00    -0.370 N
HETATM   12  C4  UNL     1     -18.350 -27.205 -15.242  1.00  0.00     0.124 C
HETATM   13  C5  UNL     1     -19.362 -28.273 -14.809  1.00  0.00     0.020 C
HETATM   14  C6  UNL     1     -18.676 -29.600 -15.052  1.00  0.00     0.003 C
HETATM   15  C7  UNL     1     -17.546 -29.725 -14.083  1.00  0.00     0.020 C
HETATM   16  C8  UNL     1     -16.572 -28.588 -14.196  1.00  0.00     0.124 C
ENDBRANCH   8  11
TORSDOF 2
ENDMDL