MODEL 5
REMARK VINA RESULT: -5.005130376      3.201      5.124
REMARK  5 active torsions:
REMARK  status: ('A' for Active; 'I' for Inactive)
REMARK    1  A    between atoms: C3_3  and  C4_4
REMARK    2  A    between atoms: C4_4  and  O1_5
REMARK    3  A    between atoms: C5_7  and  C12_14
REMARK    4  A    between atoms: C6_8  and  C10_12
REMARK    5  A    between atoms: C7_9  and  C8_10
ROOT
HETATM    1  C1  UNL     1     -12.177 -24.310 -14.215  1.00  0.00     0.011 C
HETATM    2  C2  UNL     1     -13.139 -24.208 -13.063  1.00  0.00    -0.007 C
HETATM    3  C3  UNL     1     -14.582 -24.344 -13.486  1.00  0.00     0.021 C
HETATM    4  C5  UNL     1     -15.208 -25.133 -12.388  1.00  0.00     0.037 C
HETATM    5  C6  UNL     1     -14.241 -25.036 -11.196  1.00  0.00     0.003 C
HETATM    6  C7  UNL     1     -12.985 -25.283 -12.053  1.00  0.00     0.002 C
ENDROOT
BRANCH   3   7
HETATM    7  C4  UNL     1     -15.243 -23.012 -13.719  1.00  0.00     0.169 C
BRANCH   7   8
HETATM    8  O1  UNL     1     -16.312 -22.820 -12.861  1.00  0.00    -0.400 OA
ATOM      9  H1  UNL     1     -16.644 -21.932 -12.912  1.00  0.00     0.209 HD
ENDBRANCH   7   8
ENDBRANCH   3   7
BRANCH   4  10
HETATM   10  C12 UNL     1     -14.925 -26.596 -12.708  1.00  0.00     0.116 A
HETATM   11  C8  UNL     1     -15.437 -27.281 -11.477  1.00  0.00     0.036 A
HETATM   12  C9  UNL     1     -16.619 -27.711 -12.280  1.00  0.00     0.006 A
HETATM   13  C10 UNL     1     -17.264 -26.394 -12.638  1.00  0.00     0.003 A
HETATM   14  C11 UNL     1     -16.177 -26.979 -13.437  1.00  0.00     0.036 A
HETATM   15  F1  UNL     1     -13.742 -26.915 -13.204  1.00  0.00    -0.242 F
ENDBRANCH   4  10
TORSDOF 5
ENDMDL