MODEL 5
REMARK VINA RESULT: -5.037856497      2.852      3.728
REMARK  3 active torsions:
REMARK  status: ('A' for Active; 'I' for Inactive)
REMARK    1  A    between atoms: C5_5  and  C11_19
REMARK    2  A    between atoms: C6_6  and  C7_7
REMARK    3  A    between atoms: C7_7  and  N1_8
ROOT
HETATM    1  C1  UNL     1     -17.899 -31.081 -15.764  1.00  0.00     0.019 C
HETATM    2  C2  UNL     1     -17.661 -29.934 -14.855  1.00  0.00    -0.001 A
HETATM    3  C3  UNL     1     -17.557 -30.263 -13.373  1.00  0.00     0.020 C
HETATM    4  C4  UNL     1     -16.715 -29.157 -12.852  1.00  0.00     0.027 C
HETATM    5  C5  UNL     1     -17.357 -27.801 -12.904  1.00  0.00     0.029 C
HETATM    6  C6  UNL     1     -16.159 -26.906 -13.181  1.00  0.00     0.216 C
HETATM    7  N2  UNL     1     -15.095 -27.737 -13.643  1.00  0.00    -0.061 N
ATOM      8  H21 UNL     1     -14.318 -27.795 -12.985  1.00  0.00     0.278 HD
ATOM      9  H22 UNL     1     -14.577 -27.328 -14.420  1.00  0.00     0.278 HD
HETATM   10  C8  UNL     1     -15.665 -29.011 -13.954  1.00  0.00     0.231 C
HETATM   11  C9  UNL     1     -16.516 -29.019 -15.182  1.00  0.00     0.144 A
HETATM   12  F1  UNL     1     -15.874 -29.267 -16.363  1.00  0.00    -0.239 F
HETATM   13  C10 UNL     1     -17.457 -27.875 -15.301  1.00  0.00     0.038 A
HETATM   14  C11 UNL     1     -18.298 -27.631 -14.077  1.00  0.00     0.005 A
HETATM   15  C12 UNL     1     -18.586 -28.746 -15.002  1.00  0.00     0.010 A
ENDROOT
BRANCH   6  16
HETATM   16  C7  UNL     1     -15.816 -26.134 -11.929  1.00  0.00     0.263 C
BRANCH  16  17
HETATM   17  N1  UNL     1     -15.488 -24.764 -12.192  1.00  0.00    -0.077 N
ATOM     18  H13 UNL     1     -14.774 -24.692 -12.917  1.00  0.00     0.274 HD
ATOM     19  H12 UNL     1     -16.256 -24.290 -12.667  1.00  0.00     0.274 HD
ATOM     20  H11 UNL     1     -15.209 -24.255 -11.353  1.00  0.00     0.274 HD
ENDBRANCH  16  17
ENDBRANCH   6  16
TORSDOF 3
ENDMDL