MODEL 3
REMARK VINA RESULT: -5.090387473      2.985      4.694
REMARK  1 active torsions:
REMARK  status: ('A' for Active; 'I' for Inactive)
REMARK    1  A    between atoms: C3_3  and  C4_5
REMARK       I    between atoms: N1_8  and  C7_9
ROOT
HETATM    1  C1  UNL     1     -20.425 -25.340 -12.284  1.00  0.00     0.013 C
HETATM    2  C2  UNL     1     -19.306 -25.793 -12.355  1.00  0.00    -0.097 C
HETATM    3  C3  UNL     1     -17.941 -26.343 -12.421  1.00  0.00     0.164 C
HETATM    4 CL1  UNL     1     -16.822 -25.162 -13.137  1.00  0.00    -0.111 Cl
ENDROOT
BRANCH   3   5
HETATM    5  C4  UNL     1     -17.925 -27.622 -13.221  1.00  0.00     0.019 C
HETATM    6  C5  UNL     1     -16.584 -28.286 -13.184  1.00  0.00     0.027 C
HETATM    7  C6  UNL     1     -16.525 -29.282 -14.315  1.00  0.00     0.126 C
HETATM    8  N1  UNL     1     -17.860 -29.740 -14.691  1.00  0.00    -0.356 N
HETATM    9  C7  UNL     1     -18.207 -31.111 -14.670  1.00  0.00     0.183 C
HETATM   10  C8  UNL     1     -18.901 -28.806 -15.109  1.00  0.00     0.126 C
HETATM   11  N2  UNL     1     -18.409 -31.694 -13.545  1.00  0.00    -0.374 N
HETATM   12  N3  UNL     1     -18.331 -31.841 -15.865  1.00  0.00    -0.064 NA
ATOM     13  H22 UNL     1     -18.319 -31.165 -12.677  1.00  0.00     0.158 HD
ATOM     14  H21 UNL     1     -18.659 -32.682 -13.529  1.00  0.00     0.158 HD
HETATM   15  C9  UNL     1     -18.468 -27.443 -14.609  1.00  0.00     0.027 C
ENDBRANCH   3   5
TORSDOF 1
ENDMDL