MODEL 4
REMARK VINA RESULT: -5.344445267      3.503      5.489
REMARK  2 active torsions:
REMARK  status: ('A' for Active; 'I' for Inactive)
REMARK    1  A    between atoms: N1_5  and  C5_6
REMARK    2  A    between atoms: C5_6  and  C6_10
ROOT
HETATM    1  C5  UNL     1     -18.897 -27.838 -13.476  1.00  0.00     0.169 C
HETATM    2  N2  UNL     1     -19.357 -29.032 -13.562  1.00  0.00    -0.205 N
ATOM      3  H2  UNL     1     -20.365 -29.187 -13.579  1.00  0.00     0.201 HD
HETATM    4  F1  UNL     1     -18.525 -30.075 -13.630  1.00  0.00    -0.100 F
ENDROOT
BRANCH   1   5
HETATM    5  N1  UNL     1     -19.788 -26.708 -13.403  1.00  0.00    -0.363 N
HETATM    6  C4  UNL     1     -19.420 -25.626 -12.525  1.00  0.00     0.125 C
HETATM    7  C3  UNL     1     -20.617 -25.002 -11.839  1.00  0.00     0.024 C
HETATM    8  C2  UNL     1     -21.600 -24.635 -12.958  1.00  0.00    -0.015 C
HETATM    9  C1  UNL     1     -22.683 -23.717 -12.465  1.00  0.00     0.010 C
HETATM   10  C8  UNL     1     -22.127 -25.947 -13.480  1.00  0.00     0.024 C
HETATM   11  C7  UNL     1     -20.998 -26.672 -14.182  1.00  0.00     0.125 C
ENDBRANCH   1   5
BRANCH   1  12
HETATM   12  C6  UNL     1     -17.455 -27.650 -13.453  1.00  0.00     0.156 C
HETATM   13  N3  UNL     1     -16.853 -27.385 -14.563  1.00  0.00    -0.385 N
ATOM     14  H32 UNL     1     -17.436 -27.323 -15.398  1.00  0.00     0.157 HD
ATOM     15  H31 UNL     1     -15.842 -27.253 -14.547  1.00  0.00     0.157 HD
HETATM   16  N4  UNL     1     -16.649 -27.736 -12.296  1.00  0.00    -0.079 NA
ENDBRANCH   1  12
TORSDOF 2
ENDMDL