MODEL 5
REMARK VINA RESULT: -4.357457668      2.278      4.115
REMARK  2 active torsions:
REMARK  status: ('A' for Active; 'I' for Inactive)
REMARK    1  A    between atoms: N1_1  and  C1_5
REMARK    2  A    between atoms: S1_13  and  C6_14
ROOT
HETATM    1  C1  UNL     1     -18.386 -28.694 -14.811  1.00  0.00     0.184 C
HETATM    2  C2  UNL     1     -19.149 -27.436 -14.649  1.00  0.00     0.034 C
HETATM    3  C3  UNL     1     -18.946 -26.725 -13.341  1.00  0.00     0.036 C
HETATM    4  C4  UNL     1     -17.569 -26.710 -12.844  1.00  0.00     0.200 C
HETATM    5  N2  UNL     1     -16.981 -25.440 -12.594  1.00  0.00    -0.062 N
ATOM      6  H21 UNL     1     -17.562 -24.807 -12.046  1.00  0.00     0.278 HD
ATOM      7  H22 UNL     1     -16.910 -24.840 -13.415  1.00  0.00     0.278 HD
HETATM    8  C5  UNL     1     -15.688 -25.771 -11.970  1.00  0.00     0.297 C
HETATM    9  S1  UNL     1     -15.105 -27.070 -13.071  1.00  0.00    -0.174 SA
HETATM   10  C7  UNL     1     -16.661 -27.284 -13.946  1.00  0.00     0.072 C
HETATM   11  C8  UNL     1     -17.057 -28.712 -14.076  1.00  0.00     0.049 C
ENDROOT
BRANCH   1  12
HETATM   12  N1  UNL     1     -19.160 -29.887 -14.529  1.00  0.00    -0.075 N
ATOM     13  H13 UNL     1     -20.155 -29.670 -14.497  1.00  0.00     0.274 HD
ATOM     14  H12 UNL     1     -19.149 -30.520 -15.328  1.00  0.00     0.274 HD
ATOM     15  H11 UNL     1     -18.870 -30.373 -13.681  1.00  0.00     0.274 HD
ENDBRANCH   1  12
BRANCH   9  16
HETATM   16  C6  UNL     1     -14.794 -28.497 -12.058  1.00  0.00     0.179 C
HETATM   17 CL1  UNL     1     -15.436 -28.283 -10.422  1.00  0.00    -0.120 Cl
ENDBRANCH   9  16
TORSDOF 2
ENDMDL