MODEL 3
REMARK VINA RESULT: -5.782877522      2.885      6.455
REMARK  2 active torsions:
REMARK  status: ('A' for Active; 'I' for Inactive)
REMARK    1  A    between atoms: C1_2  and  N1_3
REMARK    2  A    between atoms: C1_2  and  C7_10
ROOT
HETATM    1  F1  UNL     1     -18.072 -27.163 -15.399  1.00  0.00    -0.227 F
HETATM    2  C1  UNL     1     -18.857 -27.866 -14.486  1.00  0.00     0.274 C
ENDROOT
BRANCH   2   3
HETATM    3  N1  UNL     1     -20.196 -27.398 -14.443  1.00  0.00    -0.366 N
HETATM    4  C2  UNL     1     -20.558 -26.537 -13.589  1.00  0.00    -0.016 C
HETATM    5  C3  UNL     1     -21.981 -26.031 -13.533  1.00  0.00     0.052 C
HETATM    6  C6  UNL     1     -19.774 -25.866 -12.530  1.00  0.00     0.052 C
HETATM    7  C4  UNL     1     -21.977 -24.870 -12.598  1.00  0.00     0.006 C
HETATM    8  C5  UNL     1     -20.545 -24.611 -12.204  1.00  0.00     0.006 C
ATOM      9  H1  UNL     1     -20.877 -27.762 -15.110  1.00  0.00     0.162 HD
ENDBRANCH   2   3
BRANCH   2  10
HETATM   10  C7  UNL     1     -18.754 -29.342 -14.775  1.00  0.00     0.052 A
HETATM   11  C8  UNL     1     -17.753 -30.055 -13.897  1.00  0.00     0.026 A
HETATM   12  C9  UNL     1     -18.050 -31.493 -13.608  1.00  0.00     0.237 C
HETATM   13  C11 UNL     1     -17.509 -29.908 -15.355  1.00  0.00     0.026 A
HETATM   14  N2  UNL     1     -17.498 -32.189 -14.724  1.00  0.00    -0.074 N
HETATM   15  C10 UNL     1     -17.532 -31.305 -15.867  1.00  0.00     0.237 C
ATOM     16  H22 UNL     1     -16.564 -32.555 -14.537  1.00  0.00     0.277 HD
ATOM     17  H21 UNL     1     -17.962 -33.079 -14.902  1.00  0.00     0.277 HD
ENDBRANCH   2  10
TORSDOF 2
ENDMDL