MODEL 3
REMARK VINA RESULT: -5.466654691      3.461      4.803
REMARK  2 active torsions:
REMARK  status: ('A' for Active; 'I' for Inactive)
REMARK    1  A    between atoms: C2_2  and  N1_3
REMARK    2  A    between atoms: C2_2  and  C4_8
ROOT
HETATM    1  C4  UNL     1     -19.560 -26.125 -13.608  1.00  0.00     0.018 C
HETATM    2  C5  UNL     1     -20.153 -26.907 -14.761  1.00  0.00     0.017 C
HETATM    3  C6  UNL     1     -19.065 -27.923 -15.052  1.00  0.00     0.059 C
HETATM    4  C7  UNL     1     -17.806 -27.163 -15.390  1.00  0.00     0.011 C
HETATM    5  C8  UNL     1     -17.250 -26.662 -14.051  1.00  0.00     0.011 C
HETATM    6  C9  UNL     1     -18.436 -26.946 -13.109  1.00  0.00     0.064 C
HETATM    7  C10 UNL     1     -18.735 -28.360 -13.630  1.00  0.00     0.251 C
HETATM    8  F1  UNL     1     -19.716 -29.000 -12.984  1.00  0.00    -0.206 F
HETATM    9  F2  UNL     1     -17.518 -29.031 -13.617  1.00  0.00    -0.206 F
ENDROOT
BRANCH   1  10
HETATM   10  C2  UNL     1     -20.544 -25.652 -12.599  1.00  0.00     0.084 C
HETATM   11  C1  UNL     1     -19.994 -25.720 -11.179  1.00  0.00     0.032 C
BRANCH  10  12
HETATM   12  N1  UNL     1     -21.069 -24.339 -12.780  1.00  0.00    -0.362 N
HETATM   13  C3  UNL     1     -22.247 -24.209 -13.290  1.00  0.00     0.197 C
HETATM   14  N2  UNL     1     -23.070 -25.293 -13.691  1.00  0.00    -0.067 NA
HETATM   15  N3  UNL     1     -22.756 -22.895 -13.465  1.00  0.00    -0.067 NA
ATOM     16  H1  UNL     1     -20.524 -23.519 -12.513  1.00  0.00     0.162 HD
ENDBRANCH  10  12
ENDBRANCH   1  10
TORSDOF 2
ENDMDL