MODEL 5
REMARK VINA RESULT: -8.700393752      1.392      1.716
REMARK  11 active torsions:
REMARK  status: ('A' for Active; 'I' for Inactive)
REMARK    1  A    between atoms: C2_2  and  O1_3
REMARK    2  A    between atoms: C2_2  and  C9_11
REMARK    3  A    between atoms: O1_3  and  C3_4
REMARK    4  A    between atoms: C3_4  and  C4_5
REMARK    5  A    between atoms: C4_5  and  N1_6
REMARK    6  A    between atoms: C12_14  and  C13_15
REMARK    7  A    between atoms: C15_17  and  O2_18
REMARK    8  A    between atoms: C19_23  and  C20_24
REMARK    9  A    between atoms: C21_25  and  C22_26
REMARK   10  A    between atoms: C26_32  and  O5_33
REMARK   11  A    between atoms: C33_42  and  O7_43
ROOT
HETATM    1  C13 UNL     1       1.981 -15.225 -18.276  1.00  0.00     0.022 C
HETATM    2  C14 UNL     1       2.810 -14.720 -19.431  1.00  0.00     0.040 C
HETATM    3  C15 UNL     1       1.871 -13.708 -20.096  1.00  0.00     0.129 C
HETATM    4  C16 UNL     1       0.763 -13.458 -19.139  1.00  0.00     0.009 C
HETATM    5  C17 UNL     1      -0.482 -14.258 -19.459  1.00  0.00     0.020 C
HETATM    6  C18 UNL     1       0.374 -12.008 -18.971  1.00  0.00     0.025 C
HETATM    7  C19 UNL     1       0.293 -11.728 -17.493  1.00  0.00     0.033 C
HETATM    8  C27 UNL     1      -0.328 -12.892 -16.738  1.00  0.00     0.176 C
HETATM    9  O6  UNL     1       0.451 -14.041 -16.808  1.00  0.00    -0.384 OA
HETATM   10  C28 UNL     1       1.362 -13.906 -17.816  1.00  0.00     0.136 C
ENDROOT
BRANCH   1  11
HETATM   11  C12 UNL     1       2.785 -15.776 -17.154  1.00  0.00    -0.003 C
HETATM   12  C11 UNL     1       2.399 -17.144 -16.721  1.00  0.00     0.001 C
HETATM   13  C10 UNL     1       1.239 -17.019 -15.724  1.00  0.00     0.015 C
HETATM   14  C31 UNL     1       3.587 -17.614 -15.914  1.00  0.00    -0.014 C
HETATM   15  C9  UNL     1       1.669 -17.988 -14.656  1.00  0.00     0.044 C
HETATM   16  C33 UNL     1       3.108 -17.575 -14.456  1.00  0.00     0.133 C
HETATM   17  C30 UNL     1       4.717 -16.682 -16.184  1.00  0.00     0.012 C
HETATM   18  C32 UNL     1       4.004 -19.022 -16.272  1.00  0.00     0.018 C
HETATM   19  C29 UNL     1       4.250 -15.865 -17.397  1.00  0.00     0.006 C
BRANCH  15  20
HETATM   20  C2  UNL     1       0.822 -17.956 -13.439  1.00  0.00     0.123 C
HETATM   21  C1  UNL     1       0.196 -19.293 -13.111  1.00  0.00     0.040 C
BRANCH  20  22
HETATM   22  O1  UNL     1      -0.180 -17.011 -13.650  1.00  0.00    -0.384 OA
BRANCH  22  23
HETATM   23  C3  UNL     1      -0.183 -15.989 -12.720  1.00  0.00     0.198 C
BRANCH  23  24
HETATM   24  C4  UNL     1      -0.581 -14.689 -13.393  1.00  0.00     0.298 C
BRANCH  24  25
HETATM   25  N1  UNL     1       0.441 -13.671 -13.263  1.00  0.00     0.090 N
HETATM   26  C5  UNL     1       1.313 -13.911 -12.156  1.00  0.00     0.272 C
HETATM   27  C6  UNL     1       1.265 -12.692 -11.262  1.00  0.00     0.032 C
HETATM   28  C7  UNL     1      -0.115 -12.134 -11.557  1.00  0.00     0.032 C
HETATM   29  C8  UNL     1      -0.207 -12.390 -13.049  1.00  0.00     0.272 C
ENDBRANCH  24  25
ENDBRANCH  23  24
ENDBRANCH  22  23
ENDBRANCH  20  22
ENDBRANCH  15  20
BRANCH  16  30
HETATM   30  O7  UNL     1       3.232 -16.270 -14.027  1.00  0.00    -0.394 OA
ATOM     31  H7  UNL     1       4.116 -16.058 -13.751  1.00  0.00     0.210 HD
ENDBRANCH  16  30
ENDBRANCH   1  11
BRANCH   3  32
HETATM   32  O2  UNL     1       2.537 -12.582 -20.527  1.00  0.00    -0.395 OA
ATOM     33  H2  UNL     1       2.220 -11.792 -20.105  1.00  0.00     0.210 HD
ENDBRANCH   3  32
BRANCH   7  34
HETATM   34  C20 UNL     1      -0.493 -10.512 -17.156  1.00  0.00    -0.021 C
HETATM   35  C21 UNL     1      -0.792 -10.078 -15.969  1.00  0.00     0.006 C
BRANCH  35  36
HETATM   36  C22 UNL     1      -1.591  -8.838 -15.806  1.00  0.00     0.202 C
HETATM   37  O3  UNL     1      -0.864  -7.787 -15.305  1.00  0.00    -0.342 OA
HETATM   38  C23 UNL     1      -1.437  -7.376 -14.118  1.00  0.00     0.161 C
HETATM   39  C24 UNL     1      -1.972  -5.974 -14.291  1.00  0.00     0.078 C
HETATM   40  C25 UNL     1      -0.349  -7.415 -13.050  1.00  0.00     0.078 C
HETATM   41  O4  UNL     1      -2.415  -8.273 -13.778  1.00  0.00    -0.323 OA
HETATM   42  C26 UNL     1      -2.745  -9.043 -14.863  1.00  0.00     0.293 C
BRANCH  42  43
HETATM   43  O5  UNL     1      -2.745 -10.399 -14.482  1.00  0.00    -0.368 OA
ATOM     44  H5  UNL     1      -1.839 -10.672 -14.399  1.00  0.00     0.212 HD
ENDBRANCH  42  43
ENDBRANCH  35  36
ENDBRANCH   7  34
TORSDOF 11
ENDMDL