MODEL 5
REMARK VINA RESULT: -7.183578387      2.379      7.040
REMARK  10 active torsions:
REMARK  status: ('A' for Active; 'I' for Inactive)
REMARK    1  A    between atoms: C2_2  and  O1_3
REMARK    2  A    between atoms: O1_3  and  C3_4
REMARK    3  A    between atoms: C3_4  and  C4_5
REMARK    4  A    between atoms: C4_5  and  N1_6
REMARK    5  A    between atoms: N1_6  and  C5_7
REMARK       I    between atoms: N1_6  and  C8_11
REMARK    6  A    between atoms: C5_7  and  C6_8
REMARK    7  A    between atoms: C6_8  and  O2_9
REMARK    8  A    between atoms: C8_11  and  O4_13
REMARK    9  A    between atoms: O4_13  and  C9_14
REMARK   10  A    between atoms: C22_34  and  C23_35
ROOT
HETATM    1  C9  UNL     1       3.045 -18.717 -14.868  1.00  0.00     0.100 C
HETATM    2  C10 UNL     1       4.423 -19.202 -15.226  1.00  0.00     0.041 C
HETATM    3  C11 UNL     1       4.486 -20.486 -15.965  1.00  0.00     0.003 C
HETATM    4  C12 UNL     1       3.190 -21.003 -16.485  1.00  0.00     0.003 C
HETATM    5  C13 UNL     1       2.032 -20.827 -15.586  1.00  0.00     0.036 C
HETATM    6  C14 UNL     1       2.215 -19.917 -14.416  1.00  0.00     0.169 C
HETATM    7  O5  UNL     1       2.578 -20.466 -13.234  1.00  0.00    -0.296 OA
HETATM    8  C15 UNL     1       2.651 -21.637 -12.602  1.00  0.00     0.360 C
HETATM    9  O6  UNL     1       1.693 -22.302 -12.044  1.00  0.00    -0.239 OA
HETATM   10  N2  UNL     1       3.901 -22.311 -12.477  1.00  0.00    -0.337 N
ATOM     11  H2  UNL     1       3.909 -23.317 -12.646  1.00  0.00     0.164 HD
HETATM   12  C16 UNL     1       5.161 -21.686 -12.132  1.00  0.00     0.125 C
HETATM   13  C17 UNL     1       5.014 -20.532 -11.203  1.00  0.00     0.020 C
HETATM   14  C18 UNL     1       5.502 -20.781  -9.821  1.00  0.00     0.003 C
HETATM   15  C19 UNL     1       4.925 -19.810  -8.833  1.00  0.00     0.020 C
HETATM   16  C20 UNL     1       4.119 -18.706  -9.427  1.00  0.00     0.122 C
HETATM   17  N3  UNL     1       2.704 -18.955  -9.307  1.00  0.00    -0.359 N
ATOM     18  H3  UNL     1       2.401 -19.630  -8.604  1.00  0.00     0.162 HD
HETATM   19  C21 UNL     1       1.694 -18.326 -10.100  1.00  0.00     0.248 C
HETATM   20  O7  UNL     1       0.711 -19.097 -10.391  1.00  0.00    -0.271 OA
HETATM   21  C22 UNL     1       1.734 -16.930 -10.561  1.00  0.00     0.281 C
HETATM   22  N4  UNL     1       2.470 -16.692 -11.759  1.00  0.00    -0.062 N
ATOM     23  H41 UNL     1       3.468 -16.823 -11.598  1.00  0.00     0.278 HD
ATOM     24  H42 UNL     1       2.461 -15.699 -11.992  1.00  0.00     0.278 HD
HETATM   25  C29 UNL     1       2.031 -17.484 -12.890  1.00  0.00     0.236 C
HETATM   26  C30 UNL     1       3.229 -17.745 -13.731  1.00  0.00     0.069 C
ENDROOT
BRANCH   1  27
HETATM   27  O4  UNL     1       2.351 -18.183 -15.961  1.00  0.00    -0.290 OA
BRANCH  27  28
HETATM   28  C8  UNL     1       2.540 -16.967 -16.550  1.00  0.00     0.363 C
HETATM   29  N1  UNL     1       1.553 -15.902 -16.508  1.00  0.00    -0.324 N
HETATM   30  O3  UNL     1       3.600 -16.753 -17.151  1.00  0.00    -0.238 OA
BRANCH  29  31
HETATM   31  C4  UNL     1       1.873 -14.673 -17.172  1.00  0.00     0.154 C
BRANCH  31  32
HETATM   32  C3  UNL     1       0.993 -14.513 -18.429  1.00  0.00     0.187 C
BRANCH  32  33
HETATM   33  O1  UNL     1       0.063 -13.524 -18.147  1.00  0.00    -0.390 OA
BRANCH  33  34
HETATM   34  C2  UNL     1       0.610 -12.251 -18.214  1.00  0.00     0.163 C
HETATM   35  C1  UNL     1       0.241 -11.546 -19.477  1.00  0.00     0.033 C
ENDBRANCH  33  34
ENDBRANCH  32  33
ENDBRANCH  31  32
ENDBRANCH  29  31
BRANCH  29  36
HETATM   36  C5  UNL     1       0.323 -16.090 -15.782  1.00  0.00     0.154 C
BRANCH  36  37
HETATM   37  C6  UNL     1       0.030 -15.055 -14.750  1.00  0.00     0.187 C
BRANCH  37  38
HETATM   38  O2  UNL     1      -0.917 -14.119 -15.037  1.00  0.00    -0.394 OA
HETATM   39  C7  UNL     1      -0.566 -12.832 -14.670  1.00  0.00     0.201 C
ENDBRANCH  37  38
ENDBRANCH  36  37
ENDBRANCH  29  36
ENDBRANCH  27  28
ENDBRANCH   1  27
BRANCH  21  40
HETATM   40  C23 UNL     1       0.343 -16.323 -10.662  1.00  0.00     0.025 C
HETATM   41  C24 UNL     1      -0.313 -16.296  -9.304  1.00  0.00     0.007 C
HETATM   42  C25 UNL     1      -1.630 -15.599  -9.282  1.00  0.00     0.000 C
HETATM   43  C26 UNL     1      -1.963 -15.121 -10.673  1.00  0.00     0.000 C
HETATM   44  C27 UNL     1      -0.844 -14.183 -11.107  1.00  0.00     0.000 C
HETATM   45  C28 UNL     1       0.472 -14.903 -11.180  1.00  0.00     0.007 C
ENDBRANCH  21  40
TORSDOF 10
ENDMDL