MODEL 4
REMARK VINA RESULT: -7.603321613      2.423      4.315
REMARK  12 active torsions:
REMARK  status: ('A' for Active; 'I' for Inactive)
REMARK    1  A    between atoms: C4_4  and  C5_5
REMARK    2  A    between atoms: C9_10  and  O2_11
REMARK    3  A    between atoms: C10_13  and  O3_14
REMARK    4  A    between atoms: C10_13  and  C11_16
REMARK    5  A    between atoms: C11_16  and  C12_17
REMARK    6  A    between atoms: C12_17  and  C13_18
REMARK    7  A    between atoms: C17_22  and  C18_23
REMARK    8  A    between atoms: C19_24  and  C20_25
REMARK    9  A    between atoms: C22_28  and  O5_29
REMARK   10  A    between atoms: C29_36  and  O6_38
REMARK   11  A    between atoms: C32_40  and  O7_41
REMARK   12  A    between atoms: C32_40  and  O8_43
ROOT
HETATM    1  C13 UNL     1       0.723 -16.583 -14.083  1.00  0.00     0.064 C
HETATM    2  C14 UNL     1       1.847 -17.212 -14.871  1.00  0.00    -0.008 C
HETATM    3  C15 UNL     1       3.113 -16.446 -14.902  1.00  0.00     0.021 C
HETATM    4  C16 UNL     1       2.086 -18.521 -14.148  1.00  0.00    -0.061 C
HETATM    5  C17 UNL     1       1.693 -19.684 -14.597  1.00  0.00    -0.055 C
HETATM    6  C24 UNL     1       0.927 -19.886 -15.874  1.00  0.00     0.039 C
HETATM    7  C25 UNL     1       0.381 -18.577 -16.360  1.00  0.00     0.010 C
HETATM    8  C26 UNL     1       1.434 -17.518 -16.263  1.00  0.00    -0.005 C
HETATM    9  C27 UNL     1       2.666 -18.083 -16.998  1.00  0.00     0.011 C
HETATM   10  C28 UNL     1       2.792 -18.301 -12.871  1.00  0.00     0.078 C
HETATM   11  C29 UNL     1       1.984 -17.331 -12.020  1.00  0.00     0.116 C
HETATM   12  C30 UNL     1       0.951 -18.339 -11.333  1.00  0.00     0.052 C
HETATM   13  C32 UNL     1       1.161 -16.311 -12.619  1.00  0.00     0.197 C
ENDROOT
BRANCH   1  14
HETATM   14  C12 UNL     1       0.179 -15.371 -14.718  1.00  0.00     0.014 C
BRANCH  14  15
HETATM   15  C11 UNL     1       1.130 -14.275 -15.080  1.00  0.00     0.046 C
BRANCH  15  16
HETATM   16  C10 UNL     1       0.468 -13.360 -16.084  1.00  0.00     0.107 C
HETATM   17  C3  UNL     1       0.955 -13.665 -17.494  1.00  0.00    -0.036 C
HETATM   18  C2  UNL     1       1.947 -14.456 -17.724  1.00  0.00    -0.024 C
HETATM   19  C4  UNL     1       0.168 -12.935 -18.512  1.00  0.00     0.082 C
HETATM   20  C1  UNL     1       2.569 -14.854 -19.004  1.00  0.00     0.036 C
HETATM   21  C6  UNL     1       0.391 -11.436 -18.318  1.00  0.00    -0.001 C
HETATM   22  C7  UNL     1      -0.658 -10.745 -19.174  1.00  0.00     0.011 C
HETATM   23  C8  UNL     1       0.195 -11.018 -16.909  1.00  0.00     0.040 C
HETATM   24  C9  UNL     1       0.713 -11.915 -15.847  1.00  0.00     0.157 C
BRANCH  19  25
HETATM   25  C5  UNL     1       0.328 -13.311 -19.898  1.00  0.00     0.240 C
HETATM   26  O1  UNL     1      -0.453 -14.152 -20.387  1.00  0.00    -0.306 OA
ENDBRANCH  19  25
BRANCH  24  27
HETATM   27  O2  UNL     1       2.058 -11.643 -15.614  1.00  0.00    -0.392 OA
ATOM     28  H2  UNL     1       2.432 -11.202 -16.368  1.00  0.00     0.210 HD
ENDBRANCH  24  27
BRANCH  16  29
HETATM   29  O3  UNL     1      -0.892 -13.636 -16.083  1.00  0.00    -0.383 OA
ATOM     30  H3  UNL     1      -1.293 -12.970 -16.629  1.00  0.00     0.211 HD
ENDBRANCH  16  29
ENDBRANCH  15  16
ENDBRANCH  14  15
ENDBRANCH   1  14
BRANCH  13  31
HETATM   31  O7  UNL     1      -0.165 -16.384 -11.996  1.00  0.00    -0.363 OA
ATOM     32  H7  UNL     1      -0.349 -15.452 -11.973  1.00  0.00     0.213 HD
ENDBRANCH  13  31
BRANCH  13  33
HETATM   33  O8  UNL     1       1.483 -15.007 -12.467  1.00  0.00    -0.357 OA
HETATM   34  C33 UNL     1       1.089 -14.247 -11.437  1.00  0.00     0.205 C
ENDBRANCH  13  33
BRANCH  11  35
HETATM   35  O6  UNL     1       2.733 -16.952 -10.926  1.00  0.00    -0.379 OA
HETATM   36  C31 UNL     1       2.378 -17.478  -9.709  1.00  0.00     0.202 C
ENDBRANCH  11  35
BRANCH   5  37
HETATM   37  C18 UNL     1       1.971 -20.899 -13.833  1.00  0.00     0.006 C
HETATM   38  C19 UNL     1       3.048 -21.633 -14.044  1.00  0.00     0.008 C
BRANCH  38  39
HETATM   39  C20 UNL     1       3.317 -22.872 -13.256  1.00  0.00     0.175 C
HETATM   40  O4  UNL     1       2.848 -22.714 -11.936  1.00  0.00    -0.377 OA
HETATM   41  C21 UNL     1       2.470 -24.048 -11.976  1.00  0.00     0.203 C
HETATM   42  C22 UNL     1       2.331 -23.976 -13.482  1.00  0.00     0.177 C
BRANCH  42  43
HETATM   43  O5  UNL     1       2.840 -25.105 -14.125  1.00  0.00    -0.386 OA
HETATM   44  C23 UNL     1       1.944 -25.492 -15.093  1.00  0.00     0.202 C
ENDBRANCH  42  43
ENDBRANCH  38  39
ENDBRANCH   5  37
TORSDOF 12
ENDMDL