MODEL 2
REMARK VINA RESULT: -7.477710417      0.901      2.110
REMARK  11 active torsions:
REMARK  status: ('A' for Active; 'I' for Inactive)
REMARK    1  A    between atoms: S1_2  and  C2_3
REMARK    2  A    between atoms: C2_3  and  C3_4
REMARK    3  A    between atoms: C3_4  and  C4_5
REMARK    4  A    between atoms: C4_5  and  C5_6
REMARK    5  A    between atoms: C4_5  and  S2_37
REMARK    6  A    between atoms: C5_6  and  O2_8
REMARK    7  A    between atoms: O2_8  and  C6_9
REMARK    8  A    between atoms: C19_23  and  O4_24
REMARK    9  A    between atoms: C20_26  and  O5_27
REMARK   10  A    between atoms: C21_29  and  O6_30
REMARK   11  A    between atoms: S2_37  and  C28_39
ROOT
HETATM    1  C6  UNL     1       2.165 -15.969 -14.076  1.00  0.00     0.073 C
HETATM    2  C7  UNL     1       2.914 -14.979 -13.187  1.00  0.00     0.047 C
HETATM    3  C8  UNL     1       0.787 -15.958 -13.649  1.00  0.00     0.043 C
HETATM    4  C9  UNL     1       0.275 -15.332 -12.440  1.00  0.00    -0.015 C
HETATM    5  C10 UNL     1      -1.261 -15.609 -12.463  1.00  0.00     0.010 C
HETATM    6  C11 UNL     1       0.689 -15.571 -11.081  1.00  0.00     0.008 C
HETATM    7  C12 UNL     1       0.629 -16.935 -10.484  1.00  0.00     0.028 C
HETATM    8  C13 UNL     1       2.017 -17.448 -10.230  1.00  0.00    -0.024 C
HETATM    9  C14 UNL     1       2.671 -18.281 -11.042  1.00  0.00    -0.080 C
HETATM   10  C15 UNL     1       4.061 -18.646 -10.555  1.00  0.00     0.043 C
HETATM   11  C16 UNL     1       2.102 -18.785 -12.275  1.00  0.00     0.054 C
HETATM   12  C17 UNL     1       2.748 -18.455 -13.552  1.00  0.00     0.137 C
HETATM   13  O3  UNL     1       1.977 -19.299 -14.416  1.00  0.00    -0.376 OA
HETATM   14  C18 UNL     1       2.267 -20.493 -13.856  1.00  0.00     0.162 C
HETATM   15  C19 UNL     1       1.566 -21.709 -14.264  1.00  0.00     0.179 C
HETATM   16  C20 UNL     1       2.129 -22.867 -13.485  1.00  0.00     0.178 C
HETATM   17  C21 UNL     1       2.545 -22.604 -12.102  1.00  0.00     0.150 C
HETATM   18  C22 UNL     1       2.738 -21.189 -11.659  1.00  0.00     0.047 C
HETATM   19  C23 UNL     1       1.863 -20.262 -12.384  1.00  0.00    -0.003 C
HETATM   20  C24 UNL     1       0.388 -20.614 -12.219  1.00  0.00     0.019 C
HETATM   21  C25 UNL     1       3.015 -17.165 -14.104  1.00  0.00     0.046 C
HETATM   22  C26 UNL     1       4.513 -16.812 -13.911  1.00  0.00     0.016 C
ENDROOT
BRANCH   1  23
HETATM   23  O2  UNL     1       2.324 -15.270 -15.344  1.00  0.00    -0.309 OA
BRANCH  23  24
HETATM   24  C5  UNL     1       1.566 -15.458 -16.437  1.00  0.00     0.272 C
HETATM   25  O1  UNL     1       1.596 -16.573 -16.980  1.00  0.00    -0.264 OA
BRANCH  24  26
HETATM   26  C4  UNL     1       0.732 -14.310 -16.931  1.00  0.00     0.138 C
BRANCH  26  27
HETATM   27  C3  UNL     1       1.071 -14.031 -18.360  1.00  0.00     0.035 C
BRANCH  27  28
HETATM   28  C2  UNL     1      -0.096 -13.743 -19.259  1.00  0.00     0.075 C
BRANCH  28  29
HETATM   29  S1  UNL     1       0.295 -12.326 -20.366  1.00  0.00    -0.173 SA
HETATM   30  C1  UNL     1      -0.095 -10.813 -19.447  1.00  0.00     0.089 C
ENDBRANCH  28  29
ENDBRANCH  27  28
ENDBRANCH  26  27
BRANCH  26  31
HETATM   31  S2  UNL     1       0.756 -12.990 -15.823  1.00  0.00    -0.206 SA
HETATM   32  C27 UNL     1       1.709 -11.617 -16.260  1.00  0.00     0.080 C
BRANCH  31  33
HETATM   33  C28 UNL     1      -0.774 -12.700 -15.066  1.00  0.00     0.030 C
HETATM   34  C29 UNL     1      -0.605 -12.097 -13.675  1.00  0.00     0.020 C
HETATM   35  C30 UNL     1      -1.688 -11.868 -15.917  1.00  0.00     0.020 C
ENDBRANCH  31  33
ENDBRANCH  26  31
ENDBRANCH  24  26
ENDBRANCH  23  24
ENDBRANCH   1  23
BRANCH  15  36
HETATM   36  O4  UNL     1       1.793 -21.919 -15.644  1.00  0.00    -0.390 OA
ATOM     37  H4  UNL     1       1.280 -21.288 -16.135  1.00  0.00     0.210 HD
ENDBRANCH  15  36
BRANCH  17  38
HETATM   38  O6  UNL     1       1.729 -23.287 -11.163  1.00  0.00    -0.393 OA
ATOM     39  H6  UNL     1       0.816 -23.299 -11.428  1.00  0.00     0.210 HD
ENDBRANCH  17  38
BRANCH  16  40
HETATM   40  O5  UNL     1       3.167 -23.410 -14.280  1.00  0.00    -0.390 OA
ATOM     41  H5  UNL     1       3.981 -23.140 -13.873  1.00  0.00     0.210 HD
ENDBRANCH  16  40
TORSDOF 11
ENDMDL