MODEL 2
REMARK VINA RESULT: -8.213029050      2.304      4.229
REMARK  15 active torsions:
REMARK  status: ('A' for Active; 'I' for Inactive)
REMARK    1  A    between atoms: C2_2  and  C3_3
REMARK    2  A    between atoms: C3_3  and  C4_4
REMARK    3  A    between atoms: C7_9  and  O3_10
REMARK    4  A    between atoms: C10_14  and  O4_15
REMARK    5  A    between atoms: O4_15  and  C11_16
REMARK    6  A    between atoms: C11_16  and  C12_17
REMARK    7  A    between atoms: C13_18  and  C14_19
REMARK    8  A    between atoms: C14_19  and  C15_20
REMARK    9  A    between atoms: C15_20  and  C16_21
REMARK   10  A    between atoms: C16_21  and  C17_22
REMARK   11  A    between atoms: C17_22  and  C18_23
REMARK   12  A    between atoms: C19_24  and  C20_25
REMARK   13  A    between atoms: C20_25  and  O5_26
REMARK   14  A    between atoms: C22_28  and  O6_29
REMARK   15  A    between atoms: C34_43  and  O8_44
ROOT
HETATM    1  C4  UNL     1       5.531 -21.548 -11.305  1.00  0.00     0.161 C
HETATM    2  O1  UNL     1       5.979 -20.457 -12.075  1.00  0.00    -0.313 OA
HETATM    3  C5  UNL     1       5.589 -19.965 -13.262  1.00  0.00     0.261 C
HETATM    4  O2  UNL     1       6.476 -19.902 -14.180  1.00  0.00    -0.265 OA
HETATM    5  C6  UNL     1       4.241 -19.475 -13.656  1.00  0.00     0.143 C
HETATM    6  C7  UNL     1       4.371 -18.074 -14.224  1.00  0.00     0.133 C
HETATM    7  C8  UNL     1       3.148 -17.588 -14.941  1.00  0.00     0.042 C
HETATM    8  C9  UNL     1       2.425 -18.761 -15.523  1.00  0.00     0.015 C
HETATM    9  C10 UNL     1       2.353 -16.555 -14.230  1.00  0.00     0.161 C
HETATM   10  C22 UNL     1       0.948 -16.767 -13.922  1.00  0.00     0.176 C
HETATM   11  C23 UNL     1       0.583 -16.970 -12.437  1.00  0.00    -0.053 C
HETATM   12  C24 UNL     1       1.119 -15.938 -11.546  1.00  0.00     0.046 C
HETATM   13  C25 UNL     1       0.591 -18.371 -12.048  1.00  0.00     0.007 C
HETATM   14  C26 UNL     1       1.092 -19.036 -11.029  1.00  0.00    -0.080 C
HETATM   15  C27 UNL     1       0.859 -20.538 -11.018  1.00  0.00     0.043 C
HETATM   16  C28 UNL     1       1.850 -18.473  -9.916  1.00  0.00     0.071 C
HETATM   17  C29 UNL     1       2.160 -19.309  -8.738  1.00  0.00    -0.034 C
HETATM   18  C30 UNL     1       0.927 -19.981  -8.136  1.00  0.00     0.048 C
HETATM   19  C31 UNL     1       3.311 -20.201  -8.783  1.00  0.00     0.158 C
HETATM   20  O7  UNL     1       3.281 -21.215  -8.108  1.00  0.00    -0.293 OA
HETATM   21  C32 UNL     1       4.534 -19.984  -9.588  1.00  0.00     0.087 C
HETATM   22  C33 UNL     1       5.400 -19.052  -8.725  1.00  0.00     0.021 C
HETATM   23  C34 UNL     1       5.324 -21.210  -9.867  1.00  0.00     0.159 C
ENDROOT
BRANCH   9  24
HETATM   24  O4  UNL     1       2.497 -15.323 -14.919  1.00  0.00    -0.371 OA
BRANCH  24  25
HETATM   25  C11 UNL     1       1.458 -14.954 -15.697  1.00  0.00     0.261 C
BRANCH  25  26
HETATM   26  C12 UNL     1       1.939 -14.954 -17.107  1.00  0.00    -0.081 C
HETATM   27  C13 UNL     1       2.330 -14.933 -18.246  1.00  0.00    -0.104 C
BRANCH  27  28
HETATM   28  C14 UNL     1       2.809 -14.880 -19.632  1.00  0.00     0.094 C
BRANCH  28  29
HETATM   29  C15 UNL     1       2.282 -13.652 -20.334  1.00  0.00     0.013 C
BRANCH  29  30
HETATM   30  C16 UNL     1       0.768 -13.680 -20.369  1.00  0.00     0.013 C
BRANCH  30  31
HETATM   31  C17 UNL     1       0.291 -12.258 -20.161  1.00  0.00     0.094 C
BRANCH  31  32
HETATM   32  C18 UNL     1       0.406 -11.876 -18.749  1.00  0.00    -0.104 C
HETATM   33  C19 UNL     1       0.504 -11.586 -17.590  1.00  0.00    -0.081 C
BRANCH  33  34
HETATM   34  C20 UNL     1       0.639 -11.250 -16.168  1.00  0.00     0.260 C
BRANCH  34  35
HETATM   35  O5  UNL     1      -0.389 -10.393 -15.753  1.00  0.00    -0.384 OA
HETATM   36  C21 UNL     1      -1.552 -11.149 -15.595  1.00  0.00     0.202 C
ENDBRANCH  34  35
ENDBRANCH  33  34
ENDBRANCH  31  32
ENDBRANCH  30  31
ENDBRANCH  29  30
ENDBRANCH  28  29
ENDBRANCH  27  28
ENDBRANCH  25  26
ENDBRANCH  24  25
ENDBRANCH   9  24
BRANCH  10  37
HETATM   37  O6  UNL     1       0.263 -17.778 -14.576  1.00  0.00    -0.389 OA
ATOM     38  H6  UNL     1      -0.453 -17.547 -15.155  1.00  0.00     0.210 HD
ENDBRANCH  10  37
BRANCH   6  39
HETATM   39  O3  UNL     1       4.708 -17.275 -13.112  1.00  0.00    -0.395 OA
ATOM     40  H3  UNL     1       4.670 -16.385 -13.441  1.00  0.00     0.210 HD
ENDBRANCH   6  39
BRANCH   1  41
HETATM   41  C3  UNL     1       4.491 -22.369 -11.974  1.00  0.00     0.035 C
BRANCH  41  42
HETATM   42  C2  UNL     1       3.904 -23.404 -11.065  1.00  0.00    -0.002 C
HETATM   43  C1  UNL     1       2.491 -23.787 -11.485  1.00  0.00     0.005 C
ENDBRANCH  41  42
ENDBRANCH   1  41
BRANCH  23  44
HETATM   44  O8  UNL     1       6.618 -21.033  -9.314  1.00  0.00    -0.392 OA
ATOM     45  H8  UNL     1       7.105 -20.517  -9.946  1.00  0.00     0.210 HD
ENDBRANCH  23  44
TORSDOF 15
ENDMDL