MODEL 4
REMARK VINA RESULT: -8.308481887      2.990      9.654
REMARK  13 active torsions:
REMARK  status: ('A' for Active; 'I' for Inactive)
REMARK    1  A    between atoms: O1_2  and  C2_3
REMARK    2  A    between atoms: C2_3  and  C3_5
REMARK    3  A    between atoms: C3_5  and  C4_6
REMARK    4  A    between atoms: C4_6  and  C5_7
REMARK    5  A    between atoms: C8_10  and  O3_11
REMARK    6  A    between atoms: C10_14  and  O4_15
REMARK    7  A    between atoms: O4_15  and  C11_16
REMARK    8  A    between atoms: C11_16  and  C12_18
REMARK    9  A    between atoms: C12_18  and  N1_19
REMARK   10  A    between atoms: C19_29  and  O6_30
REMARK   11  A    between atoms: C19_29  and  C20_32
REMARK   12  A    between atoms: C20_32  and  C22_34
REMARK   13  A    between atoms: C22_34  and  C23_35
REMARK       I    between atoms: C23_35  and  N2_37
ROOT
HETATM    1  C5  UNL     1       2.902 -19.240 -16.447  1.00  0.00    -0.003 C
HETATM    2  C6  UNL     1       1.684 -18.946 -17.387  1.00  0.00     0.008 C
HETATM    3  C7  UNL     1       0.713 -18.372 -16.424  1.00  0.00     0.039 C
HETATM    4  C8  UNL     1       1.541 -17.542 -15.429  1.00  0.00     0.072 C
HETATM    5  C9  UNL     1       1.142 -16.136 -15.646  1.00  0.00     0.055 C
HETATM    6  C10 UNL     1       1.454 -15.153 -14.577  1.00  0.00     0.140 C
HETATM    7  C13 UNL     1       0.451 -13.990 -14.857  1.00  0.00     0.045 C
HETATM    8  C14 UNL     1       0.928 -13.298 -16.060  1.00  0.00    -0.006 C
HETATM    9  C15 UNL     1       2.112 -12.421 -15.711  1.00  0.00     0.019 C
HETATM   10  C16 UNL     1       1.252 -14.172 -17.232  1.00  0.00     0.001 C
HETATM   11  C17 UNL     1       0.159 -14.017 -18.267  1.00  0.00     0.009 C
HETATM   12  C18 UNL     1      -0.950 -13.397 -17.403  1.00  0.00     0.039 C
HETATM   13  C19 UNL     1      -0.147 -12.380 -16.667  1.00  0.00     0.069 C
HETATM   14  C28 UNL     1       1.578 -15.598 -16.970  1.00  0.00    -0.000 C
HETATM   15  C29 UNL     1       2.998 -15.937 -17.345  1.00  0.00     0.006 C
HETATM   16  C30 UNL     1       3.724 -16.896 -16.531  1.00  0.00     0.013 C
HETATM   17  C31 UNL     1       2.943 -17.922 -15.736  1.00  0.00    -0.009 C
HETATM   18  C32 UNL     1       3.687 -18.052 -14.428  1.00  0.00     0.019 C
ENDROOT
BRANCH  13  19
HETATM   19  O6  UNL     1       0.486 -11.476 -17.531  1.00  0.00    -0.389 OA
ATOM     20  H6  UNL     1       1.269 -11.891 -17.872  1.00  0.00     0.210 HD
ENDBRANCH  13  19
BRANCH  13  21
HETATM   21  C20 UNL     1      -0.952 -11.619 -15.702  1.00  0.00     0.025 C
HETATM   22  C21 UNL     1      -0.165 -10.735 -14.740  1.00  0.00     0.013 C
BRANCH  21  23
HETATM   23  C22 UNL     1      -2.101 -10.854 -16.285  1.00  0.00     0.110 C
BRANCH  23  24
HETATM   24  C23 UNL     1      -1.868  -9.571 -16.909  1.00  0.00     0.220 C
HETATM   25  O7  UNL     1      -1.519  -9.499 -18.117  1.00  0.00    -0.273 OA
HETATM   26  N2  UNL     1      -2.002  -8.330 -16.262  1.00  0.00    -0.352 N
HETATM   27  C24 UNL     1      -1.747  -7.028 -16.840  1.00  0.00     0.126 C
HETATM   28  C27 UNL     1      -2.438  -8.087 -14.916  1.00  0.00     0.126 C
HETATM   29  C25 UNL     1      -1.424  -6.124 -15.661  1.00  0.00     0.021 C
HETATM   30  C26 UNL     1      -1.392  -7.077 -14.462  1.00  0.00     0.021 C
ENDBRANCH  23  24
ENDBRANCH  21  23
ENDBRANCH  13  21
BRANCH   6  31
HETATM   31  O4  UNL     1       1.169 -15.595 -13.261  1.00  0.00    -0.314 OA
BRANCH  31  32
HETATM   32  C11 UNL     1       2.024 -15.343 -12.198  1.00  0.00     0.284 C
HETATM   33  O5  UNL     1       2.955 -14.506 -12.286  1.00  0.00    -0.263 OA
BRANCH  32  34
HETATM   34  C12 UNL     1       1.787 -16.116 -10.943  1.00  0.00     0.340 C
BRANCH  34  35
HETATM   35  N1  UNL     1       1.870 -17.534 -11.210  1.00  0.00    -0.070 N
ATOM     36  H13 UNL     1       2.202 -17.726 -12.155  1.00  0.00     0.274 HD
ATOM     37  H12 UNL     1       2.629 -17.977 -10.692  1.00  0.00     0.274 HD
ATOM     38  H11 UNL     1       0.971 -17.979 -11.024  1.00  0.00     0.274 HD
ENDBRANCH  34  35
ENDBRANCH  32  34
ENDBRANCH  31  32
ENDBRANCH   6  31
BRANCH   4  39
HETATM   39  O3  UNL     1       1.147 -17.922 -14.132  1.00  0.00    -0.389 OA
ATOM     40  H3  UNL     1       0.243 -18.212 -14.183  1.00  0.00     0.210 HD
ENDBRANCH   4  39
BRANCH   1  41
HETATM   41  C4  UNL     1       2.531 -20.464 -15.744  1.00  0.00     0.015 C
BRANCH  41  42
HETATM   42  C3  UNL     1       3.417 -21.661 -15.770  1.00  0.00     0.111 C
BRANCH  42  43
HETATM   43  C2  UNL     1       4.508 -21.389 -16.811  1.00  0.00     0.258 C
HETATM   44  O2  UNL     1       5.620 -21.059 -16.353  1.00  0.00    -0.265 OA
BRANCH  43  45
HETATM   45  O1  UNL     1       4.285 -21.499 -18.155  1.00  0.00    -0.326 OA
HETATM   46  C1  UNL     1       5.120 -22.393 -18.907  1.00  0.00     0.213 C
ENDBRANCH  43  45
ENDBRANCH  42  43
ENDBRANCH  41  42
ENDBRANCH   1  41
TORSDOF 13
ENDMDL