MODEL 2
REMARK VINA RESULT: -8.670447142      1.560      2.841
REMARK  9 active torsions:
REMARK  status: ('A' for Active; 'I' for Inactive)
REMARK    1  A    between atoms: O1_2  and  N1_3
REMARK       I    between atoms: N1_3  and  C2_5
REMARK    2  A    between atoms: C2_5  and  C3_7
REMARK    3  A    between atoms: C4_8  and  C5_9
REMARK    4  A    between atoms: C19_26  and  O5_27
REMARK    5  A    between atoms: O5_27  and  C20_28
REMARK    6  A    between atoms: C20_28  and  C22_30
REMARK    7  A    between atoms: C23_31  and  C24_32
REMARK    8  A    between atoms: C23_31  and  C27_37
REMARK    9  A    between atoms: C25_33  and  C26_34
ROOT
HETATM    1  C3  UNL     1       2.709 -17.500 -13.745  1.00  0.00     0.095 C
HETATM    2  C4  UNL     1       2.425 -18.852 -14.434  1.00  0.00     0.033 C
HETATM    3  C12 UNL     1       2.202 -18.804 -15.876  1.00  0.00     0.051 C
HETATM    4  C13 UNL     1       3.150 -19.423 -16.838  1.00  0.00     0.032 C
HETATM    5  C14 UNL     1       0.872 -19.362 -16.297  1.00  0.00     0.069 C
HETATM    6  N2  UNL     1      -0.184 -19.779 -16.625  1.00  0.00    -0.196 NA
HETATM    7  C15 UNL     1       2.071 -17.382 -16.492  1.00  0.00     0.030 C
HETATM    8  C16 UNL     1       1.458 -16.456 -15.508  1.00  0.00     0.002 C
HETATM    9  C17 UNL     1       0.768 -15.286 -16.043  1.00  0.00     0.015 C
HETATM   10  C18 UNL     1      -0.613 -15.112 -15.396  1.00  0.00     0.013 C
HETATM   11  C19 UNL     1       1.480 -13.964 -15.928  1.00  0.00     0.126 C
HETATM   12  C28 UNL     1       2.431 -13.882 -14.791  1.00  0.00     0.033 C
HETATM   13  C29 UNL     1       2.306 -15.043 -13.789  1.00  0.00     0.013 C
HETATM   14  C30 UNL     1       2.605 -16.276 -14.582  1.00  0.00    -0.027 C
HETATM   15  C31 UNL     1       3.954 -16.078 -15.228  1.00  0.00     0.016 C
ENDROOT
BRANCH   2  16
HETATM   16  C5  UNL     1       3.362 -19.888 -13.843  1.00  0.00    -0.003 A
HETATM   17  C6  UNL     1       4.612 -19.151 -13.234  1.00  0.00     0.019 C
HETATM   18  C7  UNL     1       3.497 -21.267 -13.998  1.00  0.00     0.052 A
HETATM   19  C8  UNL     1       2.933 -20.792 -12.677  1.00  0.00     0.080 A
HETATM   20  C9  UNL     1       1.604 -20.992 -12.170  1.00  0.00     0.049 C
HETATM   21  O4  UNL     1       3.857 -21.001 -11.608  1.00  0.00    -0.309 OA
HETATM   22  C10 UNL     1       1.826 -21.910 -10.941  1.00  0.00     0.114 C
HETATM   23  C11 UNL     1       3.312 -21.985 -10.839  1.00  0.00     0.259 C
HETATM   24  O3  UNL     1       3.876 -22.868 -10.119  1.00  0.00    -0.265 OA
ENDBRANCH   2  16
BRANCH   1  25
HETATM   25  C2  UNL     1       1.795 -17.311 -12.574  1.00  0.00     0.246 C
HETATM   26  N1  UNL     1       2.192 -16.836 -11.309  1.00  0.00    -0.235 N
ATOM     27  H1  UNL     1       3.173 -16.601 -11.158  1.00  0.00     0.197 HD
HETATM   28  O2  UNL     1       0.555 -17.596 -12.711  1.00  0.00    -0.271 OA
BRANCH  26  29
HETATM   29  O1  UNL     1       1.326 -16.683 -10.293  1.00  0.00    -0.283 OA
HETATM   30  C1  UNL     1       1.036 -15.399  -9.933  1.00  0.00     0.237 C
ENDBRANCH  26  29
ENDBRANCH   1  25
BRANCH  11  31
HETATM   31  O5  UNL     1       2.051 -13.675 -17.154  1.00  0.00    -0.377 OA
BRANCH  31  32
HETATM   32  C20 UNL     1       1.306 -14.021 -18.267  1.00  0.00     0.141 C
HETATM   33  C21 UNL     1       2.102 -15.024 -19.136  1.00  0.00     0.044 C
BRANCH  32  34
HETATM   34  C22 UNL     1       0.885 -12.910 -19.087  1.00  0.00     0.023 C
HETATM   35  C23 UNL     1       0.023 -11.953 -18.699  1.00  0.00     0.039 C
BRANCH  35  36
HETATM   36  C24 UNL     1      -0.577 -11.931 -17.415  1.00  0.00     0.025 C
HETATM   37  C25 UNL     1      -0.347 -11.094 -16.456  1.00  0.00     0.085 C
BRANCH  37  38
HETATM   38  C26 UNL     1      -1.096 -11.252 -15.171  1.00  0.00     0.198 C
HETATM   39  O6  UNL     1      -0.564 -11.726 -14.142  1.00  0.00    -0.645 OA
HETATM   40  O7  UNL     1      -2.430 -10.878 -15.064  1.00  0.00    -0.645 OA
ENDBRANCH  37  38
ENDBRANCH  35  36
BRANCH  35  41
HETATM   41  C27 UNL     1      -0.244 -10.938 -19.701  1.00  0.00     0.209 C
HETATM   42  O8  UNL     1       0.129 -11.036 -20.871  1.00  0.00    -0.644 OA
HETATM   43  O9  UNL     1      -0.965  -9.775 -19.325  1.00  0.00    -0.644 OA
ENDBRANCH  35  41
ENDBRANCH  32  34
ENDBRANCH  31  32
ENDBRANCH  11  31
TORSDOF 9
ENDMDL