MODEL 2
REMARK VINA RESULT: -8.860296640      0.961      1.704
REMARK  12 active torsions:
REMARK  status: ('A' for Active; 'I' for Inactive)
REMARK    1  A    between atoms: C2_2  and  O1_3
REMARK    2  A    between atoms: O1_3  and  C3_4
REMARK    3  A    between atoms: C3_4  and  C4_6
REMARK    4  A    between atoms: C4_6  and  C5_7
REMARK    5  A    between atoms: C5_7  and  C6_8
REMARK    6  A    between atoms: C6_8  and  O4_10
REMARK    7  A    between atoms: O4_10  and  C7_11
REMARK    8  A    between atoms: C7_11  and  C8_12
REMARK    9  A    between atoms: C10_14  and  C11_15
REMARK   10  A    between atoms: C11_15  and  O5_17
REMARK   11  A    between atoms: C22_29  and  O7_30
REMARK   12  A    between atoms: O7_30  and  C23_31
REMARK       I    between atoms: C23_31  and  N1_33
ROOT
HETATM    1  C8  UNL     1       0.652 -13.953 -16.810  1.00  0.00    -0.004 C
HETATM    2  C9  UNL     1       1.705 -12.815 -16.832  1.00  0.00     0.019 C
HETATM    3  C10 UNL     1       0.997 -14.869 -17.892  1.00  0.00     0.095 C
HETATM    4  C13 UNL     1       2.297 -15.454 -17.324  1.00  0.00     0.144 C
HETATM    5  O6  UNL     1       3.309 -15.603 -17.961  1.00  0.00    -0.297 OA
HETATM    6  C14 UNL     1       2.031 -15.768 -15.906  1.00  0.00     0.034 C
HETATM    7  C15 UNL     1       3.256 -15.419 -15.036  1.00  0.00     0.019 C
HETATM    8  C16 UNL     1       3.257 -16.105 -13.708  1.00  0.00     0.007 C
HETATM    9  C17 UNL     1       2.532 -17.363 -13.527  1.00  0.00     0.004 C
HETATM   10  C18 UNL     1       3.111 -18.680 -13.695  1.00  0.00    -0.030 C
HETATM   11  C19 UNL     1       2.039 -19.644 -13.263  1.00  0.00     0.016 C
HETATM   12  C20 UNL     1       4.293 -19.191 -12.961  1.00  0.00     0.013 C
HETATM   13  C21 UNL     1       4.352 -20.563 -13.670  1.00  0.00     0.034 C
HETATM   14  C22 UNL     1       3.828 -20.336 -15.100  1.00  0.00     0.142 C
HETATM   15  C25 UNL     1       3.713 -18.840 -15.055  1.00  0.00    -0.009 C
HETATM   16  C26 UNL     1       5.202 -18.489 -15.108  1.00  0.00     0.018 C
HETATM   17  C27 UNL     1       3.005 -18.086 -16.050  1.00  0.00     0.024 C
HETATM   18  C28 UNL     1       1.844 -17.194 -15.706  1.00  0.00    -0.016 A
HETATM   19  C29 UNL     1       0.689 -18.004 -15.401  1.00  0.00     0.022 A
HETATM   20  C30 UNL     1       1.285 -17.307 -14.340  1.00  0.00    -0.026 A
HETATM   21  C31 UNL     1       0.384 -16.250 -13.808  1.00  0.00     0.011 C
HETATM   22  C32 UNL     1      -0.222 -15.371 -14.890  1.00  0.00     0.007 C
HETATM   23  C33 UNL     1       0.966 -14.791 -15.567  1.00  0.00     0.013 C
ENDROOT
BRANCH   1  24
HETATM   24  C7  UNL     1      -0.638 -13.271 -16.728  1.00  0.00     0.189 C
BRANCH  24  25
HETATM   25  O4  UNL     1      -0.727 -11.930 -17.070  1.00  0.00    -0.321 OA
BRANCH  25  26
HETATM   26  C6  UNL     1      -1.376 -11.072 -16.197  1.00  0.00     0.259 C
HETATM   27  O3  UNL     1      -2.419 -11.466 -15.635  1.00  0.00    -0.265 OA
BRANCH  26  28
HETATM   28  C5  UNL     1      -0.877  -9.715 -15.915  1.00  0.00     0.121 C
BRANCH  28  29
HETATM   29  C4  UNL     1      -1.670  -8.723 -16.724  1.00  0.00     0.121 C
BRANCH  29  30
HETATM   30  C3  UNL     1      -1.542  -7.343 -16.207  1.00  0.00     0.259 C
HETATM   31  O2  UNL     1      -1.669  -6.380 -17.033  1.00  0.00    -0.265 OA
BRANCH  30  32
HETATM   32  O1  UNL     1      -1.295  -6.982 -14.907  1.00  0.00    -0.322 OA
BRANCH  32  33
HETATM   33  C2  UNL     1      -2.268  -6.413 -14.049  1.00  0.00     0.174 C
HETATM   34  C1  UNL     1      -3.169  -7.505 -13.515  1.00  0.00     0.034 C
ENDBRANCH  32  33
ENDBRANCH  30  32
ENDBRANCH  29  30
ENDBRANCH  28  29
ENDBRANCH  26  28
ENDBRANCH  25  26
ENDBRANCH  24  25
ENDBRANCH   1  24
BRANCH   3  35
HETATM   35  C11 UNL     1       1.275 -14.228 -19.195  1.00  0.00     0.126 C
HETATM   36  C12 UNL     1       0.048 -13.877 -19.969  1.00  0.00     0.040 C
BRANCH  35  37
HETATM   37  O5  UNL     1       2.083 -15.004 -20.033  1.00  0.00    -0.395 OA
ATOM     38  H5  UNL     1       2.971 -14.675 -20.109  1.00  0.00     0.210 HD
ENDBRANCH  35  37
ENDBRANCH   3  35
BRANCH  14  39
HETATM   39  O7  UNL     1       4.891 -20.779 -15.932  1.00  0.00    -0.298 OA
BRANCH  39  40
HETATM   40  C23 UNL     1       4.598 -21.323 -17.166  1.00  0.00     0.360 C
HETATM   41  O8  UNL     1       3.580 -20.927 -17.789  1.00  0.00    -0.239 OA
HETATM   42  N1  UNL     1       5.400 -22.325 -17.784  1.00  0.00    -0.341 N
HETATM   43  C24 UNL     1       5.081 -22.880 -19.065  1.00  0.00     0.151 C
ATOM     44  H1  UNL     1       6.232 -22.660 -17.296  1.00  0.00     0.164 HD
ENDBRANCH  39  40
ENDBRANCH  14  39
TORSDOF 12
ENDMDL