MODEL 5
REMARK VINA RESULT: -7.675035175      4.711      9.353
REMARK  10 active torsions:
REMARK  status: ('A' for Active; 'I' for Inactive)
REMARK       I    between atoms: N1_2  and  C2_4
REMARK       I    between atoms: C2_4  and  N2_6
REMARK    1  A    between atoms: C3_8  and  C4_9
REMARK    2  A    between atoms: C4_9  and  C5_10
REMARK    3  A    between atoms: C5_10  and  C7_12
REMARK    4  A    between atoms: C11_17  and  O3_18
REMARK    5  A    between atoms: C13_21  and  C14_22
REMARK    6  A    between atoms: C14_22  and  C15_24
REMARK    7  A    between atoms: C24_33  and  O5_34
REMARK    8  A    between atoms: O5_34  and  C25_35
REMARK    9  A    between atoms: C26_38  and  C27_39
REMARK   10  A    between atoms: C27_39  and  O8_42
ROOT
HETATM    1  C7  UNL     1       0.246 -13.210 -15.813  1.00  0.00     0.057 C
HETATM    2  O2  UNL     1       0.819 -12.365 -16.714  1.00  0.00    -0.354 OA
HETATM    3  C8  UNL     1       1.019 -12.609 -17.981  1.00  0.00     0.175 C
HETATM    4  C9  UNL     1       0.545 -13.897 -18.548  1.00  0.00     0.035 C
HETATM    5  C10 UNL     1       0.727 -15.008 -17.531  1.00  0.00     0.031 C
HETATM    6  C11 UNL     1       2.114 -15.462 -17.583  1.00  0.00     0.124 C
HETATM    7  C12 UNL     1       2.955 -15.337 -16.394  1.00  0.00     0.050 C
HETATM    8  C13 UNL     1       2.824 -16.403 -15.336  1.00  0.00     0.033 A
HETATM    9  C18 UNL     1       1.376 -16.606 -14.934  1.00  0.00     0.014 A
HETATM   10  C19 UNL     1       0.393 -15.586 -15.092  1.00  0.00     0.023 C
HETATM   11  C20 UNL     1       0.101 -14.663 -16.206  1.00  0.00     0.012 C
HETATM   12  C21 UNL     1      -1.394 -14.852 -16.527  1.00  0.00     0.023 C
HETATM   13  C22 UNL     1       1.350 -17.979 -15.500  1.00  0.00    -0.006 A
HETATM   14  C23 UNL     1       0.241 -18.389 -16.332  1.00  0.00     0.019 C
HETATM   15  C24 UNL     1       1.693 -19.118 -14.571  1.00  0.00     0.151 A
HETATM   16  C26 UNL     1       3.155 -18.843 -14.793  1.00  0.00     0.056 A
HETATM   17  C31 UNL     1       2.770 -17.824 -15.787  1.00  0.00     0.022 A
ENDROOT
BRANCH   1  18
HETATM   18  C5  UNL     1      -0.820 -12.445 -15.166  1.00  0.00    -0.049 C
HETATM   19  C6  UNL     1      -0.454 -11.885 -13.778  1.00  0.00     0.046 C
BRANCH  18  20
HETATM   20  C4  UNL     1      -1.739 -11.533 -15.844  1.00  0.00     0.081 C
BRANCH  20  21
HETATM   21  C3  UNL     1      -1.311 -10.126 -15.474  1.00  0.00     0.070 C
HETATM   22  N2  UNL     1      -2.031  -9.095 -15.623  1.00  0.00    -0.322 N
HETATM   23  C2  UNL     1      -1.688  -7.782 -15.300  1.00  0.00     0.319 C
ATOM     24  H2  UNL     1      -2.960  -9.240 -16.020  1.00  0.00     0.169 HD
HETATM   25  N1  UNL     1      -1.998  -6.639 -16.077  1.00  0.00    -0.347 N
HETATM   26  O1  UNL     1      -1.048  -7.581 -14.227  1.00  0.00    -0.247 OA
HETATM   27  C1  UNL     1      -1.643  -5.300 -15.741  1.00  0.00     0.151 C
ATOM     28  H1  UNL     1      -2.517  -6.785 -16.944  1.00  0.00     0.163 HD
ENDBRANCH  20  21
ENDBRANCH  18  20
ENDBRANCH   1  18
BRANCH   6  29
HETATM   29  O3  UNL     1       2.847 -14.814 -18.626  1.00  0.00    -0.395 OA
ATOM     30  H3  UNL     1       2.982 -15.387 -19.372  1.00  0.00     0.210 HD
ENDBRANCH   6  29
BRANCH   8  31
HETATM   31  C14 UNL     1       3.691 -15.969 -14.224  1.00  0.00     0.140 C
HETATM   32  O4  UNL     1       4.882 -15.860 -14.496  1.00  0.00    -0.297 OA
BRANCH  31  33
HETATM   33  C15 UNL     1       3.325 -15.650 -12.841  1.00  0.00     0.048 C
HETATM   34  C16 UNL     1       2.490 -14.352 -12.775  1.00  0.00     0.017 C
HETATM   35  C17 UNL     1       2.590 -16.637 -12.037  1.00  0.00     0.017 C
ENDBRANCH  31  33
ENDBRANCH   8  31
BRANCH  15  36
HETATM   36  O5  UNL     1       1.179 -20.348 -14.763  1.00  0.00    -0.289 OA
BRANCH  36  37
HETATM   37  C25 UNL     1       0.498 -21.213 -13.963  1.00  0.00     0.333 C
HETATM   38  O6  UNL     1      -0.560 -20.756 -13.493  1.00  0.00    -0.624 OA
HETATM   39  O7  UNL     1       0.944 -22.477 -13.701  1.00  0.00    -0.624 OA
ENDBRANCH  36  37
ENDBRANCH  15  36
BRANCH  16  40
HETATM   40  C27 UNL     1       3.966 -20.051 -15.162  1.00  0.00     0.059 C
HETATM   41  C28 UNL     1       4.215 -21.013 -14.027  1.00  0.00     0.046 C
HETATM   42  C29 UNL     1       5.343 -19.718 -15.700  1.00  0.00     0.046 C
BRANCH  40  43
HETATM   43  O8  UNL     1       3.350 -20.844 -16.126  1.00  0.00    -0.385 OA
HETATM   44  C30 UNL     1       4.206 -21.374 -17.070  1.00  0.00     0.202 C
ENDBRANCH  40  43
ENDBRANCH  16  40
TORSDOF 10
ENDMDL