MODEL 1
REMARK VINA RESULT: -8.881741295      0.000      0.000
REMARK  12 active torsions:
REMARK  status: ('A' for Active; 'I' for Inactive)
REMARK    1  A    between atoms: C2_2  and  C3_4
REMARK    2  A    between atoms: C3_4  and  C4_5
REMARK    3  A    between atoms: C4_5  and  C5_6
REMARK    4  A    between atoms: C5_6  and  O2_7
REMARK    5  A    between atoms: C5_6  and  C6_9
REMARK    6  A    between atoms: C8_11  and  C9_12
REMARK    7  A    between atoms: C9_12  and  C10_13
REMARK    8  A    between atoms: C11_14  and  O3_15
REMARK    9  A    between atoms: O3_15  and  C12_16
REMARK   10  A    between atoms: C23_29  and  O5_30
REMARK   11  A    between atoms: O5_30  and  C24_31
REMARK   12  A    between atoms: C32_42  and  O9_43
ROOT
HETATM    1  C10 UNL     1       1.046 -15.695 -15.829  1.00  0.00     0.091 C
HETATM    2  C11 UNL     1       0.252 -15.046 -14.703  1.00  0.00     0.148 C
HETATM    3  C13 UNL     1       0.376 -15.953 -13.520  1.00  0.00     0.035 C
HETATM    4  C14 UNL     1      -0.002 -17.370 -13.902  1.00  0.00     0.017 C
HETATM    5  C15 UNL     1       1.012 -17.963 -14.907  1.00  0.00    -0.009 C
HETATM    6  C16 UNL     1       0.136 -18.337 -16.104  1.00  0.00     0.021 C
HETATM    7  C17 UNL     1       1.861 -16.838 -15.332  1.00  0.00     0.016 C
HETATM    8  C18 UNL     1       3.048 -17.221 -16.138  1.00  0.00     0.008 C
HETATM    9  C19 UNL     1       4.218 -17.498 -15.292  1.00  0.00     0.013 C
HETATM   10  C20 UNL     1       4.080 -18.090 -13.977  1.00  0.00    -0.005 C
HETATM   11  C21 UNL     1       4.236 -17.060 -12.850  1.00  0.00     0.019 C
HETATM   12  C22 UNL     1       5.386 -18.916 -13.759  1.00  0.00     0.046 C
HETATM   13  C23 UNL     1       4.926 -20.062 -12.827  1.00  0.00     0.144 C
HETATM   14  C26 UNL     1       3.751 -20.439 -13.688  1.00  0.00     0.026 C
HETATM   15  C27 UNL     1       4.251 -20.996 -14.948  1.00  0.00     0.022 C
HETATM   16  C28 UNL     1       2.804 -21.452 -13.060  1.00  0.00     0.102 C
HETATM   17  C29 UNL     1       1.844 -21.651 -14.187  1.00  0.00     0.200 C
HETATM   18  O7  UNL     1       1.323 -22.793 -14.414  1.00  0.00    -0.289 OA
HETATM   19  C30 UNL     1       1.553 -20.455 -15.000  1.00  0.00     0.223 C
HETATM   20  O8  UNL     1       1.220 -20.685 -16.156  1.00  0.00    -0.284 OA
HETATM   21  C31 UNL     1       1.703 -19.139 -14.295  1.00  0.00     0.018 C
HETATM   22  C32 UNL     1       3.039 -19.081 -13.706  1.00  0.00     0.103 C
ENDROOT
BRANCH   1  23
HETATM   23  C9  UNL     1       1.036 -15.201 -16.961  1.00  0.00    -0.148 C
BRANCH  23  24
HETATM   24  C8  UNL     1       1.012 -14.633 -18.256  1.00  0.00     0.056 C
HETATM   25  C6  UNL     1       1.858 -14.539 -19.250  1.00  0.00    -0.048 C
HETATM   26  C7  UNL     1       3.153 -15.218 -19.279  1.00  0.00     0.046 C
BRANCH  25  27
HETATM   27  C5  UNL     1       1.322 -13.810 -20.448  1.00  0.00     0.147 C
BRANCH  27  28
HETATM   28  C4  UNL     1       0.036 -13.135 -20.290  1.00  0.00     0.044 C
BRANCH  28  29
HETATM   29  C3  UNL     1       0.171 -11.665 -20.685  1.00  0.00     0.080 C
BRANCH  29  30
HETATM   30  C2  UNL     1      -0.331 -10.771 -19.575  1.00  0.00     0.123 C
HETATM   31  C1  UNL     1      -0.035 -11.177 -18.168  1.00  0.00     0.091 C
HETATM   32  O1  UNL     1      -0.941  -9.789 -19.763  1.00  0.00    -0.298 OA
ENDBRANCH  29  30
ENDBRANCH  28  29
ENDBRANCH  27  28
BRANCH  27  33
HETATM   33  O2  UNL     1       2.290 -13.045 -21.085  1.00  0.00    -0.391 OA
ATOM     34  H2  UNL     1       2.940 -13.554 -21.555  1.00  0.00     0.210 HD
ENDBRANCH  27  33
ENDBRANCH  25  27
ENDBRANCH  23  24
ENDBRANCH   1  23
BRANCH   2  35
HETATM   35  O3  UNL     1       0.676 -13.771 -14.384  1.00  0.00    -0.300 OA
BRANCH  35  36
HETATM   36  C12 UNL     1      -0.323 -12.783 -14.202  1.00  0.00     0.373 C
HETATM   37  N1  UNL     1      -0.435 -11.951 -13.056  1.00  0.00    -0.032 NA
HETATM   38  O4  UNL     1      -1.169 -12.637 -15.136  1.00  0.00    -0.242 OA
ENDBRANCH  35  36
ENDBRANCH   2  35
BRANCH  22  39
HETATM   39  O9  UNL     1       2.873 -18.961 -12.282  1.00  0.00    -0.383 OA
ATOM     40  H9  UNL     1       1.928 -18.928 -12.195  1.00  0.00     0.211 HD
ENDBRANCH  22  39
BRANCH  13  41
HETATM   41  O5  UNL     1       5.932 -21.052 -12.843  1.00  0.00    -0.315 OA
BRANCH  41  42
HETATM   42  C24 UNL     1       6.459 -21.443 -11.593  1.00  0.00     0.255 C
HETATM   43  C25 UNL     1       5.761 -21.119 -10.305  1.00  0.00     0.126 C
HETATM   44  O6  UNL     1       7.542 -22.075 -11.583  1.00  0.00    -0.266 OA
ENDBRANCH  41  42
ENDBRANCH  13  41
TORSDOF 12
ENDMDL