MODEL 3
REMARK VINA RESULT: -7.905966122      5.642      7.043
REMARK  2 active torsions:
REMARK  status: ('A' for Active; 'I' for Inactive)
REMARK    1  A    between atoms: N1_1  and  C1_5
REMARK    2  A    between atoms: C8_15  and  C9_16
ROOT
HETATM    1  C1  UNL     1      22.214  22.611 -15.138  1.00  0.00     0.188 C
HETATM    2  C2  UNL     1      21.692  21.868 -13.941  1.00  0.00     0.037 C
HETATM    3  C3  UNL     1      20.237  21.427 -14.153  1.00  0.00     0.043 C
HETATM    4  C4  UNL     1      19.466  22.696 -14.277  1.00  0.00    -0.027 A
HETATM    5  C5  UNL     1      18.397  22.958 -13.469  1.00  0.00     0.064 A
HETATM    6 CL1  UNL     1      17.864  21.808 -12.247  1.00  0.00    -0.082 Cl
HETATM    7  C6  UNL     1      17.754  24.168 -13.658  1.00  0.00     0.079 A
HETATM    8 CL2  UNL     1      16.383  24.507 -12.627  1.00  0.00    -0.081 Cl
HETATM    9  C7  UNL     1      18.190  25.071 -14.638  1.00  0.00     0.068 A
HETATM   10 CL3  UNL     1      17.234  26.527 -14.770  1.00  0.00    -0.082 Cl
HETATM   11  C8  UNL     1      19.261  24.796 -15.438  1.00  0.00    -0.005 A
HETATM   12  C14 UNL     1      19.917  23.568 -15.248  1.00  0.00    -0.036 A
HETATM   13  C15 UNL     1      21.084  23.126 -16.022  1.00  0.00     0.072 C
ENDROOT
BRANCH  11  14
HETATM   14  C9  UNL     1      19.787  25.681 -16.443  1.00  0.00     0.027 C
HETATM   15  C10 UNL     1      19.410  25.880 -17.672  1.00  0.00     0.026 C
HETATM   16  C11 UNL     1      18.336  25.324 -18.541  1.00  0.00     0.157 C
HETATM   17  C13 UNL     1      20.063  26.862 -18.574  1.00  0.00     0.294 C
HETATM   18  C12 UNL     1      18.013  26.452 -19.525  1.00  0.00     0.365 C
HETATM   19  F1  UNL     1      18.026  25.981 -20.846  1.00  0.00    -0.175 F
HETATM   20  F2  UNL     1      16.769  26.996 -19.307  1.00  0.00    -0.175 F
HETATM   21  O1  UNL     1      19.070  27.368 -19.434  1.00  0.00    -0.247 OA
HETATM   22  O2  UNL     1      21.248  27.220 -18.620  1.00  0.00    -0.259 OA
ENDBRANCH  11  14
BRANCH   1  23
HETATM   23  N1  UNL     1      23.001  21.694 -15.945  1.00  0.00    -0.075 N
ATOM     24  H13 UNL     1      22.426  21.140 -16.580  1.00  0.00     0.274 HD
ATOM     25  H12 UNL     1      23.562  22.174 -16.648  1.00  0.00     0.274 HD
ATOM     26  H11 UNL     1      23.565  21.116 -15.323  1.00  0.00     0.274 HD
ENDBRANCH   1  23
TORSDOF 2
ENDMDL