MODEL 3
REMARK VINA RESULT: -6.362733451      2.465      3.301
REMARK  2 active torsions:
REMARK  status: ('A' for Active; 'I' for Inactive)
REMARK    1  A    between atoms: C2_2  and  C5_5
REMARK    2  A    between atoms: N2_10  and  C7_11
ROOT
HETATM    1  C5  UNL     1      17.716  27.173 -14.300  1.00  0.00     0.108 A
HETATM    2  N1  UNL     1      17.408  26.694 -15.534  1.00  0.00    -0.295 N
ATOM      3  H1  UNL     1      16.767  27.122 -16.202  1.00  0.00     0.172 HD
HETATM    4  C6  UNL     1      18.097  25.557 -15.718  1.00  0.00     0.347 A
HETATM    5  O1  UNL     1      18.013  24.881 -16.777  1.00  0.00    -0.245 OA
HETATM    6  N2  UNL     1      18.832  25.318 -14.619  1.00  0.00    -0.201 N
HETATM    7  N3  UNL     1      18.582  26.308 -13.784  1.00  0.00    -0.277 N
ATOM      8  H3  UNL     1      19.000  26.399 -12.858  1.00  0.00     0.189 HD
ENDROOT
BRANCH   6   9
HETATM    9  C7  UNL     1      19.691  24.197 -14.457  1.00  0.00     0.108 A
HETATM   10  C8  UNL     1      20.906  24.105 -15.105  1.00  0.00     0.088 A
HETATM   11 CL1  UNL     1      21.368  25.433 -16.151  1.00  0.00    -0.080 Cl
HETATM   12  C9  UNL     1      21.735  23.007 -14.939  1.00  0.00     0.081 A
HETATM   13 CL2  UNL     1      23.275  22.925 -15.780  1.00  0.00    -0.081 Cl
HETATM   14  C10 UNL     1      21.377  21.961 -14.120  1.00  0.00     0.081 A
HETATM   15 CL3  UNL     1      22.447  20.572 -13.921  1.00  0.00    -0.081 Cl
HETATM   16  C11 UNL     1      20.167  22.039 -13.466  1.00  0.00     0.081 A
HETATM   17 CL4  UNL     1      19.707  20.712 -12.422  1.00  0.00    -0.081 Cl
HETATM   18  C12 UNL     1      19.349  23.138 -13.638  1.00  0.00     0.088 A
HETATM   19 CL5  UNL     1      17.795  23.231 -12.795  1.00  0.00    -0.080 Cl
ENDBRANCH   6   9
BRANCH   1  20
HETATM   20  C2  UNL     1      17.129  28.426 -13.767  1.00  0.00     0.009 C
HETATM   21  C1  UNL     1      16.145  28.080 -12.649  1.00  0.00     0.023 C
HETATM   22  C3  UNL     1      16.334  29.180 -14.812  1.00  0.00     0.023 C
HETATM   23  C4  UNL     1      18.214  29.273 -13.168  1.00  0.00     0.023 C
ENDBRANCH   1  20
TORSDOF 2
ENDMDL