MODEL 1
REMARK VINA RESULT: -7.065683133      0.000      0.000
REMARK  1 active torsions:
REMARK  status: ('A' for Active; 'I' for Inactive)
REMARK    1  A    between atoms: C6_12  and  N3_13
ROOT
HETATM    1  C1  UNL     1      17.323  27.304 -20.423  1.00  0.00     0.070 C
HETATM    2  C2  UNL     1      17.573  26.980 -18.990  1.00  0.00     0.036 A
HETATM    3  N1  UNL     1      18.426  25.977 -18.704  1.00  0.00    -0.347 N
ATOM      4  H1  UNL     1      18.877  25.467 -19.463  1.00  0.00     0.167 HD
HETATM    5  C3  UNL     1      18.688  25.641 -17.428  1.00  0.00     0.128 A
HETATM    6 CL1  UNL     1      19.804  24.330 -17.095  1.00  0.00    -0.062 Cl
HETATM    7  C4  UNL     1      18.072  26.339 -16.413  1.00  0.00     0.102 A
HETATM    8 CL2  UNL     1      18.398  25.920 -14.723  1.00  0.00    -0.078 Cl
HETATM    9  C5  UNL     1      17.197  27.367 -16.673  1.00  0.00     0.103 A
HETATM   10  N2  UNL     1      16.471  28.198 -15.878  1.00  0.00    -0.188 N
ATOM     11  H2  UNL     1      16.454  28.195 -14.859  1.00  0.00     0.184 HD
HETATM   12  C6  UNL     1      15.779  29.025 -16.682  1.00  0.00     0.684 A
HETATM   13  N4  UNL     1      16.069  28.713 -17.957  1.00  0.00    -0.187 N
ATOM     14  H4  UNL     1      15.685  29.180 -18.778  1.00  0.00     0.184 HD
HETATM   15  C12 UNL     1      16.948  27.687 -17.988  1.00  0.00     0.100 A
ENDROOT
BRANCH  12  16
HETATM   16  N3  UNL     1      14.904  30.036 -16.201  1.00  0.00    -0.175 N
HETATM   17  C7  UNL     1      13.680  30.461 -16.814  1.00  0.00     0.120 C
HETATM   18  C8  UNL     1      13.862  30.894 -18.249  1.00  0.00     0.034 C
HETATM   19  C9  UNL     1      13.120  31.522 -15.932  1.00  0.00     0.110 C
HETATM   20 CL3  UNL     1      12.628  32.984 -16.801  1.00  0.00    -0.123 Cl
HETATM   21  C10 UNL     1      14.178  31.890 -14.927  1.00  0.00     0.088 C
HETATM   22  C11 UNL     1      15.171  30.781 -14.980  1.00  0.00     0.205 C
HETATM   23 CL4  UNL     1      15.020  29.657 -13.596  1.00  0.00    -0.077 Cl
HETATM   24 CL5  UNL     1      16.845  31.391 -15.114  1.00  0.00    -0.077 Cl
ENDBRANCH  12  16
TORSDOF 1
ENDMDL