MODEL 2
REMARK VINA RESULT: -6.992399746      1.609      1.909
REMARK  1 active torsions:
REMARK  status: ('A' for Active; 'I' for Inactive)
REMARK    1  A    between atoms: C2_7  and  N3_8
ROOT
HETATM    1  N3  UNL     1      16.125  29.159 -12.934  1.00  0.00    -0.330 N
ATOM      2  H3  UNL     1      16.853  29.603 -12.376  1.00  0.00     0.168 HD
HETATM    3  C3  UNL     1      15.501  29.904 -13.780  1.00  0.00     0.079 C
HETATM    4  C4  UNL     1      15.784  31.349 -13.979  1.00  0.00     0.078 C
HETATM    5  C5  UNL     1      14.379  31.895 -14.197  1.00  0.00     0.038 C
HETATM    6  C6  UNL     1      13.833  30.844 -15.171  1.00  0.00     0.034 C
HETATM    7  C7  UNL     1      12.335  30.782 -15.144  1.00  0.00     0.034 C
HETATM    8  C8  UNL     1      11.963  31.899 -16.118  1.00  0.00     0.044 C
HETATM    9  C9  UNL     1      13.033  31.835 -17.180  1.00  0.00     0.115 C
HETATM   10 CL2  UNL     1      13.348  33.492 -17.756  1.00  0.00    -0.102 Cl
HETATM   11 CL3  UNL     1      12.487  30.889 -18.600  1.00  0.00    -0.102 Cl
HETATM   12  C10 UNL     1      14.253  31.222 -16.546  1.00  0.00     0.073 C
HETATM   13  N4  UNL     1      14.453  29.613 -14.696  1.00  0.00    -0.370 N
ATOM     14  H4  UNL     1      14.175  28.674 -14.981  1.00  0.00     0.161 HD
ENDROOT
BRANCH   1  15
HETATM   15  C2  UNL     1      15.900  27.809 -12.709  1.00  0.00     0.145 A
HETATM   16  N2  UNL     1      14.799  27.390 -12.076  1.00  0.00    -0.283 N
HETATM   17  N1  UNL     1      14.543  26.119 -11.840  1.00  0.00    -0.287 N
ATOM     18  H2  UNL     1      14.125  28.088 -11.760  1.00  0.00     0.188 HD
HETATM   19  C1  UNL     1      15.410  25.181 -12.241  1.00  0.00     0.141 A
ATOM     20  H1  UNL     1      13.688  25.851 -11.353  1.00  0.00     0.188 HD
HETATM   21 CL1  UNL     1      15.032  23.484 -11.907  1.00  0.00    -0.061 Cl
HETATM   22  C12 UNL     1      16.565  25.533 -12.899  1.00  0.00     0.099 A
HETATM   23  C11 UNL     1      16.809  26.871 -13.134  1.00  0.00     0.104 A
HETATM   24 CL5  UNL     1      17.705  24.323 -13.431  1.00  0.00    -0.079 Cl
HETATM   25 CL4  UNL     1      18.278  27.294 -13.969  1.00  0.00    -0.078 Cl
ENDBRANCH   1  15
TORSDOF 1
ENDMDL