MODEL 2
REMARK VINA RESULT: -4.107167075      2.848      4.642
REMARK  3 active torsions:
REMARK  status: ('A' for Active; 'I' for Inactive)
REMARK    1  A    between atoms: O1_2  and  C2_3
REMARK    2  A    between atoms: C2_3  and  C3_5
REMARK    3  A    between atoms: C9_12  and  O3_13
ROOT
HETATM    1  C3  UNL     1      14.492  30.415 -14.047  1.00  0.00     0.109 C
HETATM    2  C4  UNL     1      12.996  30.192 -13.786  1.00  0.00     0.037 C
HETATM    3  C5  UNL     1      15.309  29.317 -13.511  1.00  0.00    -0.027 C
HETATM    4  C6  UNL     1      15.459  28.378 -12.583  1.00  0.00     0.008 C
HETATM    5  C7  UNL     1      16.676  27.611 -12.788  1.00  0.00     0.084 C
HETATM    6 CL1  UNL     1      16.434  25.834 -12.724  1.00  0.00    -0.112 Cl
HETATM    7  C8  UNL     1      17.979  28.070 -12.260  1.00  0.00     0.066 C
HETATM    8  C9  UNL     1      18.515  27.946 -13.696  1.00  0.00     0.148 C
HETATM    9  C10 UNL     1      17.080  27.965 -14.219  1.00  0.00     0.118 C
HETATM   10 CL2  UNL     1      16.684  26.792 -15.451  1.00  0.00    -0.111 Cl
HETATM   11  C11 UNL     1      16.508  29.315 -14.409  1.00  0.00     0.127 C
HETATM   12 CL3  UNL     1      17.666  30.588 -13.912  1.00  0.00    -0.105 Cl
HETATM   13  C12 UNL     1      15.888  29.652 -15.691  1.00  0.00     0.061 C
HETATM   14 CL4  UNL     1      16.622  29.246 -17.255  1.00  0.00    -0.085 Cl
HETATM   15  C13 UNL     1      14.737  30.283 -15.529  1.00  0.00     0.054 C
HETATM   16 CL5  UNL     1      13.723  30.842 -16.835  1.00  0.00    -0.086 Cl
ENDROOT
BRANCH   1  17
HETATM   17  C2  UNL     1      14.926  31.720 -13.605  1.00  0.00     0.276 C
HETATM   18  O2  UNL     1      15.172  32.709 -14.376  1.00  0.00    -0.264 OA
BRANCH  17  19
HETATM   19  O1  UNL     1      15.133  32.043 -12.246  1.00  0.00    -0.325 OA
HETATM   20  C1  UNL     1      14.098  31.996 -11.281  1.00  0.00     0.213 C
ENDBRANCH  17  19
ENDBRANCH   1  17
BRANCH   8  21
HETATM   21  O3  UNL     1      19.126  26.713 -13.860  1.00  0.00    -0.393 OA
ATOM     22  H3  UNL     1      19.828  26.785 -14.497  1.00  0.00     0.210 HD
ENDBRANCH   8  21
TORSDOF 3
ENDMDL