MODEL 1
REMARK VINA RESULT: -5.682559385      0.000      0.000
REMARK  2 active torsions:
REMARK  status: ('A' for Active; 'I' for Inactive)
REMARK    1  A    between atoms: O1_1  and  C1_3
REMARK    2  A    between atoms: C5_8  and  C6_9
ROOT
HETATM    1  C1  UNL     1      16.674  22.183 -11.416  1.00  0.00     0.159 C
HETATM    2  C2  UNL     1      17.638  22.853 -12.366  1.00  0.00     0.046 C
HETATM    3  C3  UNL     1      16.783  23.779 -13.234  1.00  0.00    -0.008 C
HETATM    4  C4  UNL     1      16.481  24.996 -12.475  1.00  0.00     0.085 C
HETATM    5  S1  UNL     1      16.958  26.363 -13.569  1.00  0.00    -0.159 SA
HETATM    6  C5  UNL     1      18.018  25.344 -14.656  1.00  0.00     0.081 C
HETATM    7  C11 UNL     1      17.410  24.009 -14.524  1.00  0.00     0.032 C
HETATM    8  C12 UNL     1      15.489  22.961 -13.358  1.00  0.00     0.133 C
HETATM    9 CL2  UNL     1      14.121  24.028 -13.740  1.00  0.00    -0.121 Cl
HETATM   10  C13 UNL     1      15.314  22.259 -12.054  1.00  0.00     0.156 C
HETATM   11 CL3  UNL     1      14.712  20.590 -12.268  1.00  0.00    -0.097 Cl
HETATM   12 CL4  UNL     1      14.157  23.086 -10.979  1.00  0.00    -0.097 Cl
ENDROOT
BRANCH   1  13
HETATM   13  O1  UNL     1      17.053  20.866 -11.139  1.00  0.00    -0.392 OA
ATOM     14  H1  UNL     1      16.724  20.575 -10.296  1.00  0.00     0.210 HD
ENDBRANCH   1  13
BRANCH   6  15
HETATM   15  C6  UNL     1      18.068  25.915 -15.992  1.00  0.00    -0.040 A
HETATM   16  C7  UNL     1      19.019  25.605 -16.939  1.00  0.00     0.025 A
HETATM   17  C8  UNL     1      19.007  26.184 -18.189  1.00  0.00     0.089 A
HETATM   18  N1  UNL     1      18.034  27.084 -18.495  1.00  0.00    -0.357 N
HETATM   19  C9  UNL     1      17.084  27.422 -17.610  1.00  0.00     0.103 A
ATOM     20  H1  UNL     1      18.025  27.513 -19.421  1.00  0.00     0.166 HD
HETATM   21 CL1  UNL     1      15.851  28.595 -18.074  1.00  0.00    -0.065 Cl
HETATM   22  C10 UNL     1      17.112  26.834 -16.373  1.00  0.00     0.050 A
ENDBRANCH   6  15
TORSDOF 2
ENDMDL