MODEL 1
REMARK VINA RESULT: -5.869042919      0.000      0.000
REMARK  1 active torsions:
REMARK  status: ('A' for Active; 'I' for Inactive)
REMARK    1  A    between atoms: C3_3  and  C4_4
ROOT
HETATM    1  C1  UNL     1      16.213  24.337 -14.025  1.00  0.00     0.069 C
HETATM    2  C2  UNL     1      17.691  24.343 -14.173  1.00  0.00     0.028 A
HETATM    3  C3  UNL     1      18.420  25.379 -14.714  1.00  0.00     0.068 A
HETATM    4  C10 UNL     1      19.799  25.354 -14.838  1.00  0.00     0.262 A
HETATM    5  O1  UNL     1      20.437  26.328 -15.341  1.00  0.00    -0.267 OA
HETATM    6  N1  UNL     1      20.415  24.242 -14.395  1.00  0.00    -0.275 N
ATOM      7  H1  UNL     1      21.431  24.184 -14.469  1.00  0.00     0.173 HD
HETATM    8  C11 UNL     1      19.746  23.203 -13.859  1.00  0.00     0.329 A
HETATM    9  O2  UNL     1      20.385  22.192 -13.464  1.00  0.00    -0.246 OA
HETATM   10  N2  UNL     1      18.391  23.272 -13.757  1.00  0.00    -0.307 N
HETATM   11  C12 UNL     1      17.697  22.118 -13.167  1.00  0.00     0.161 C
ENDROOT
BRANCH   3  12
HETATM   12  C4  UNL     1      17.690  26.535 -15.165  1.00  0.00     0.029 A
HETATM   13  C5  UNL     1      17.425  26.684 -16.495  1.00  0.00     0.070 A
HETATM   14 CL1  UNL     1      17.946  25.496 -17.717  1.00  0.00    -0.081 Cl
HETATM   15  C6  UNL     1      16.728  27.781 -16.945  1.00  0.00     0.080 A
HETATM   16 CL2  UNL     1      16.370  28.004 -18.646  1.00  0.00    -0.081 Cl
HETATM   17  C7  UNL     1      16.298  28.738 -16.030  1.00  0.00     0.081 A
HETATM   18 CL3  UNL     1      15.405  30.161 -16.542  1.00  0.00    -0.081 Cl
HETATM   19  C8  UNL     1      16.563  28.594 -14.685  1.00  0.00     0.080 A
HETATM   20 CL4  UNL     1      16.034  29.785 -13.505  1.00  0.00    -0.081 Cl
HETATM   21  C9  UNL     1      17.264  27.482 -14.271  1.00  0.00     0.070 A
HETATM   22 CL5  UNL     1      17.593  27.321 -12.519  1.00  0.00    -0.081 Cl
ENDBRANCH   3  12
TORSDOF 1
ENDMDL