MODEL 1
REMARK VINA RESULT: -7.437076474      0.000      0.000
REMARK  1 active torsions:
REMARK  status: ('A' for Active; 'I' for Inactive)
REMARK       I    between atoms: C2_2  and  N1_4
REMARK    1  A    between atoms: N1_4  and  C3_5
ROOT
HETATM    1  C3  UNL     1      17.790  25.972 -13.834  1.00  0.00     0.285 C
HETATM    2  C4  UNL     1      18.404  25.715 -15.206  1.00  0.00     0.203 C
HETATM    3  O2  UNL     1      19.362  24.915 -15.339  1.00  0.00    -0.289 OA
HETATM    4  C5  UNL     1      17.836  26.425 -16.334  1.00  0.00     0.072 A
HETATM    5  C6  UNL     1      18.162  26.049 -17.629  1.00  0.00     0.074 A
HETATM    6 CL1  UNL     1      19.262  24.713 -17.912  1.00  0.00    -0.081 Cl
HETATM    7  C7  UNL     1      17.629  26.718 -18.711  1.00  0.00     0.080 A
HETATM    8 CL2  UNL     1      18.047  26.233 -20.340  1.00  0.00    -0.081 Cl
HETATM    9  C8  UNL     1      16.754  27.781 -18.521  1.00  0.00     0.082 A
HETATM   10 CL3  UNL     1      16.111  28.588 -19.930  1.00  0.00    -0.081 Cl
HETATM   11  C9  UNL     1      16.455  28.123 -17.235  1.00  0.00     0.091 A
HETATM   12 CL4  UNL     1      15.354  29.463 -16.970  1.00  0.00    -0.079 Cl
HETATM   13  C10 UNL     1      16.970  27.477 -16.148  1.00  0.00     0.110 A
HETATM   14  O3  UNL     1      16.682  27.806 -14.820  1.00  0.00    -0.324 OA
HETATM   15  C11 UNL     1      17.636  27.494 -13.795  1.00  0.00     0.268 C
HETATM   16 CL5  UNL     1      17.032  28.084 -12.257  1.00  0.00    -0.091 Cl
ENDROOT
BRANCH   1  17
HETATM   17  N1  UNL     1      16.552  25.360 -13.707  1.00  0.00    -0.398 NA
HETATM   18  C2  UNL     1      15.345  24.762 -13.583  1.00  0.00     0.283 C
HETATM   19  C1  UNL     1      14.632  24.681 -12.214  1.00  0.00     0.134 C
HETATM   20  O1  UNL     1      14.602  24.193 -14.462  1.00  0.00    -0.258 OA
ENDBRANCH   1  17
TORSDOF 1
ENDMDL