MODEL 1
REMARK VINA RESULT: -6.440195960      0.000      0.000
REMARK  3 active torsions:
REMARK  status: ('A' for Active; 'I' for Inactive)
REMARK    1  A    between atoms: C5_5  and  C6_7
REMARK    2  A    between atoms: C6_7  and  O2_9
REMARK    3  A    between atoms: O2_9  and  C7_10
ROOT
HETATM    1  C1  UNL     1      18.683  24.778 -16.229  1.00  0.00     0.038 C
HETATM    2  C2  UNL     1      18.469  24.723 -14.718  1.00  0.00     0.025 C
HETATM    3  C3  UNL     1      19.411  23.694 -14.175  1.00  0.00     0.038 C
HETATM    4  C4  UNL     1      17.019  24.383 -14.499  1.00  0.00     0.071 C
HETATM    5  C5  UNL     1      16.552  24.799 -13.107  1.00  0.00     0.156 C
HETATM    6 CL1  UNL     1      17.611  24.214 -11.843  1.00  0.00    -0.103 Cl
HETATM    7  C8  UNL     1      16.610  26.284 -13.095  1.00  0.00     0.003 A
HETATM    8  C9  UNL     1      15.607  27.042 -12.549  1.00  0.00     0.035 A
HETATM    9  C10 UNL     1      15.658  28.421 -12.537  1.00  0.00     0.034 A
HETATM   10 CL5  UNL     1      14.411  29.428 -11.857  1.00  0.00    -0.084 Cl
HETATM   11  C11 UNL     1      16.791  28.984 -13.113  1.00  0.00     0.026 A
HETATM   12  C12 UNL     1      17.803  28.250 -13.664  1.00  0.00     0.031 A
HETATM   13  C13 UNL     1      17.722  26.868 -13.661  1.00  0.00     0.037 A
HETATM   14  N1  UNL     1      18.746  26.053 -14.218  1.00  0.00    -0.381 N
ATOM     15  H1  UNL     1      19.698  26.414 -14.267  1.00  0.00     0.160 HD
ENDROOT
BRANCH   5  16
HETATM   16  C6  UNL     1      15.206  24.269 -12.924  1.00  0.00     0.291 C
HETATM   17  O1  UNL     1      14.379  24.358 -13.865  1.00  0.00    -0.263 OA
BRANCH  16  18
HETATM   18  O2  UNL     1      14.752  23.655 -11.761  1.00  0.00    -0.263 OA
BRANCH  18  19
HETATM   19  C7  UNL     1      14.283  22.299 -11.806  1.00  0.00     0.305 C
HETATM   20 CL2  UNL     1      12.534  22.284 -12.120  1.00  0.00    -0.053 Cl
HETATM   21 CL3  UNL     1      14.604  21.562 -10.198  1.00  0.00    -0.053 Cl
HETATM   22 CL4  UNL     1      15.183  21.393 -13.037  1.00  0.00    -0.053 Cl
ENDBRANCH  18  19
ENDBRANCH  16  18
ENDBRANCH   5  16
TORSDOF 3
ENDMDL