MODEL 3
REMARK VINA RESULT: -6.499961227      4.216      5.201
REMARK  2 active torsions:
REMARK  status: ('A' for Active; 'I' for Inactive)
REMARK       I    between atoms: C1_2  and  N1_3
REMARK       I    between atoms: C1_2  and  N3_13
REMARK    1  A    between atoms: N1_3  and  N2_5
REMARK    2  A    between atoms: C2_7  and  C3_9
ROOT
HETATM    1  O1  UNL     1      14.408  25.419 -12.796  1.00  0.00    -0.245 OA
HETATM    2  C1  UNL     1      15.687  25.508 -12.984  1.00  0.00     0.341 C
HETATM    3  N1  UNL     1      16.331  26.748 -12.811  1.00  0.00    -0.250 N
ATOM      4  H1  UNL     1      17.339  26.831 -12.947  1.00  0.00     0.192 HD
HETATM    5  N3  UNL     1      16.263  24.272 -13.352  1.00  0.00    -0.297 N
HETATM    6  C4  UNL     1      15.548  23.013 -13.195  1.00  0.00     0.144 C
HETATM    7  C5  UNL     1      16.114  22.158 -12.117  1.00  0.00     0.100 C
HETATM    8  S1  UNL     1      17.891  21.996 -12.298  1.00  0.00    -0.126 SA
HETATM    9  C6  UNL     1      18.476  23.237 -13.428  1.00  0.00     0.027 A
HETATM   10  C7  UNL     1      19.749  23.188 -13.885  1.00  0.00     0.021 A
HETATM   11  C8  UNL     1      20.197  24.150 -14.774  1.00  0.00     0.002 A
HETATM   12  C9  UNL     1      19.346  25.162 -15.198  1.00  0.00     0.002 A
HETATM   13  C10 UNL     1      18.060  25.190 -14.721  1.00  0.00     0.031 A
HETATM   14  C11 UNL     1      17.599  24.242 -13.837  1.00  0.00     0.055 A
ENDROOT
BRANCH   3  15
HETATM   15  N2  UNL     1      15.591  27.832 -12.459  1.00  0.00    -0.286 N
HETATM   16  C2  UNL     1      15.539  29.027 -12.790  1.00  0.00     0.149 C
HETATM   17 CL1  UNL     1      14.295  29.980 -11.921  1.00  0.00    -0.063 Cl
ATOM     18  H2  UNL     1      14.903  27.606 -11.741  1.00  0.00     0.188 HD
BRANCH  16  19
HETATM   19  C3  UNL     1      16.304  29.807 -13.758  1.00  0.00     0.243 C
HETATM   20 CL2  UNL     1      18.042  29.649 -13.322  1.00  0.00    -0.076 Cl
HETATM   21 CL3  UNL     1      16.095  29.421 -15.437  1.00  0.00    -0.076 Cl
HETATM   22 CL4  UNL     1      15.824  31.528 -13.526  1.00  0.00    -0.076 Cl
ENDBRANCH  16  19
ENDBRANCH   3  15
TORSDOF 2
ENDMDL