MODEL 3
REMARK VINA RESULT: -5.814882440      1.167      1.506
REMARK  4 active torsions:
REMARK  status: ('A' for Active; 'I' for Inactive)
REMARK    1  A    between atoms: C4_7  and  O2_8
REMARK    2  A    between atoms: C4_7  and  N2_10
REMARK    3  A    between atoms: N2_10  and  C6_12
REMARK    4  A    between atoms: C9_16  and  N3_17
ROOT
HETATM    1  C1  UNL     1       5.939  17.323 -20.407  1.00  0.00     0.073 C
HETATM    2  C2  UNL     1       4.950  18.410 -20.194  1.00  0.00     0.065 A
HETATM    3  N1  UNL     1       3.751  18.506 -20.687  1.00  0.00    -0.263 N
ATOM      4  H1  UNL     1       3.332  17.814 -21.308  1.00  0.00     0.194 HD
HETATM    5  O1  UNL     1       3.168  19.554 -20.308  1.00  0.00    -0.231 OA
HETATM    6  C3  UNL     1       3.974  20.283 -19.485  1.00  0.00     0.184 A
HETATM    7  C4  UNL     1       3.448  21.508 -18.968  1.00  0.00     0.178 C
HETATM    8  C9  UNL     1       5.129  19.571 -19.395  1.00  0.00     0.167 A
ENDROOT
BRANCH   7   9
HETATM    9  O2  UNL     1       2.254  21.805 -19.516  1.00  0.00    -0.344 OA
ATOM     10  H2  UNL     1       1.736  22.363 -18.948  1.00  0.00     0.219 HD
ENDBRANCH   7   9
BRANCH   7  11
HETATM   11  N2  UNL     1       3.842  22.473 -18.048  1.00  0.00    -0.342 N
HETATM   12  C5  UNL     1       4.182  22.249 -16.695  1.00  0.00     0.154 C
BRANCH  11  13
HETATM   13  C6  UNL     1       3.931  23.889 -18.500  1.00  0.00     0.104 C
HETATM   14  C7  UNL     1       3.650  24.050 -19.953  1.00  0.00     0.056 C
HETATM   15  C8  UNL     1       2.960  24.735 -17.720  1.00  0.00     0.056 C
HETATM   16 CL1  UNL     1       5.599  24.388 -18.110  1.00  0.00    -0.096 Cl
ENDBRANCH  11  13
ENDBRANCH   7  11
BRANCH   8  17
HETATM   17  N3  UNL     1       6.351  19.818 -18.757  1.00  0.00    -0.110 N
HETATM   18  O3  UNL     1       7.064  18.944 -18.221  1.00  0.00    -0.532 OA
HETATM   19  O4  UNL     1       6.832  21.128 -18.736  1.00  0.00    -0.532 OA
ENDBRANCH   8  17
TORSDOF 4
ENDMDL