MODEL 4
REMARK VINA RESULT: -6.937498521      2.998      8.245
REMARK  4 active torsions:
REMARK  status: ('A' for Active; 'I' for Inactive)
REMARK    1  A    between atoms: C2_2  and  C4_5
REMARK    2  A    between atoms: C5_6  and  C6_7
REMARK    3  A    between atoms: C7_10  and  C8_11
REMARK    4  A    between atoms: C8_11  and  N2_12
ROOT
HETATM    1  C6  UNL     1       5.922  18.239 -19.983  1.00  0.00     0.226 A
HETATM    2  N1  UNL     1       4.785  18.932 -20.155  1.00  0.00    -0.315 N
ATOM      3  H1  UNL     1       4.079  18.765 -20.872  1.00  0.00     0.170 HD
HETATM    4  C7  UNL     1       4.745  19.881 -19.216  1.00  0.00     0.122 A
HETATM    5  N3  UNL     1       5.862  19.749 -18.489  1.00  0.00    -0.244 N
ATOM      6  H3  UNL     1       6.124  20.330 -17.693  1.00  0.00     0.196 HD
HETATM    7  O1  UNL     1       6.555  18.762 -18.961  1.00  0.00    -0.209 OA
ENDROOT
BRANCH   4   8
HETATM    8  C8  UNL     1       3.679  20.921 -18.996  1.00  0.00     0.195 C
BRANCH   8   9
HETATM    9  N2  UNL     1       4.226  22.044 -18.339  1.00  0.00    -0.406 N
HETATM   10  C9  UNL     1       5.063  21.837 -17.221  1.00  0.00     0.117 C
HETATM   11  C10 UNL     1       6.084  22.965 -17.179  1.00  0.00     0.019 C
HETATM   12  C11 UNL     1       5.332  24.281 -17.125  1.00  0.00     0.003 C
HETATM   13  C12 UNL     1       4.549  24.407 -18.410  1.00  0.00     0.019 C
HETATM   14  C13 UNL     1       3.519  23.270 -18.410  1.00  0.00     0.117 C
ENDBRANCH   8   9
ENDBRANCH   4   8
BRANCH   1  15
HETATM   15  C5  UNL     1       6.343  17.119 -20.802  1.00  0.00    -0.017 C
HETATM   16  C4  UNL     1       6.677  16.187 -21.494  1.00  0.00    -0.054 C
BRANCH  16  17
HETATM   17  C2  UNL     1       7.067  15.056 -22.353  1.00  0.00     0.159 C
HETATM   18  C1  UNL     1       5.959  14.009 -22.396  1.00  0.00     0.066 C
HETATM   19  C3  UNL     1       8.284  14.376 -21.771  1.00  0.00     0.066 C
HETATM   20  F1  UNL     1       7.257  15.510 -23.622  1.00  0.00    -0.230 F
ENDBRANCH  16  17
ENDBRANCH   1  15
TORSDOF 4
ENDMDL