MODEL 5
REMARK VINA RESULT: -5.770122391      0.927      1.184
REMARK  3 active torsions:
REMARK  status: ('A' for Active; 'I' for Inactive)
REMARK    1  A    between atoms: O1_2  and  C2_3
REMARK    2  A    between atoms: C2_3  and  C3_5
REMARK    3  A    between atoms: C6_10  and  N1_11
ROOT
HETATM    1  C3  UNL     1       4.772  23.171 -18.103  1.00  0.00     0.114 A
HETATM    2  S1  UNL     1       5.083  24.875 -17.909  1.00  0.00    -0.074 SA
HETATM    3  C4  UNL     1       3.912  25.492 -18.961  1.00  0.00     0.054 A
HETATM    4 BR1  UNL     1       3.519  27.333 -19.390  1.00  0.00    -0.043 Br
HETATM    5  C5  UNL     1       3.307  24.378 -19.437  1.00  0.00     0.064 A
HETATM    6  C6  UNL     1       3.748  23.172 -18.996  1.00  0.00     0.127 A
ENDROOT
BRANCH   1   7
HETATM    7  C2  UNL     1       5.515  22.094 -17.424  1.00  0.00     0.302 C
HETATM    8  O2  UNL     1       6.797  22.193 -17.448  1.00  0.00    -0.259 OA
BRANCH   7   9
HETATM    9  O1  UNL     1       5.022  21.018 -16.785  1.00  0.00    -0.322 OA
HETATM   10  C1  UNL     1       5.412  19.681 -16.929  1.00  0.00     0.213 C
ENDBRANCH   7   9
ENDBRANCH   1   7
BRANCH   6  11
HETATM   11  N1  UNL     1       3.132  21.937 -19.487  1.00  0.00    -0.114 N
HETATM   12  O3  UNL     1       1.954  21.865 -19.720  1.00  0.00    -0.532 OA
HETATM   13  O4  UNL     1       3.923  20.835 -19.731  1.00  0.00    -0.532 OA
ENDBRANCH   6  11
TORSDOF 3
ENDMDL