MODEL 5
REMARK VINA RESULT: -5.783126381      2.833      6.996
REMARK  2 active torsions:
REMARK  status: ('A' for Active; 'I' for Inactive)
REMARK    1  A    between atoms: N2_5  and  C4_6
REMARK    2  A    between atoms: C5_10  and  C6_11
ROOT
HETATM    1  C4  UNL     1       4.793  22.290 -17.948  1.00  0.00     0.702 A
HETATM    2  N3  UNL     1       4.938  21.724 -16.738  1.00  0.00    -0.089 N
ATOM      3  H3  UNL     1       4.838  22.194 -15.838  1.00  0.00     0.213 HD
HETATM    4  O1  UNL     1       5.231  20.458 -16.924  1.00  0.00    -0.209 OA
HETATM    5  C5  UNL     1       5.282  20.181 -18.206  1.00  0.00     0.169 A
HETATM    6  N4  UNL     1       5.010  21.317 -18.848  1.00  0.00    -0.170 N
ATOM      7  H4  UNL     1       4.973  21.430 -19.861  1.00  0.00     0.186 HD
ENDROOT
BRANCH   1   8
HETATM    8  N2  UNL     1       4.470  23.656 -18.218  1.00  0.00    -0.213 N
HETATM    9  C3  UNL     1       3.742  24.033 -19.411  1.00  0.00     0.171 C
HETATM   10  C2  UNL     1       2.995  25.337 -19.114  1.00  0.00     0.292 C
HETATM   11  N1  UNL     1       3.879  26.392 -18.724  1.00  0.00     0.087 N
HETATM   12  C1  UNL     1       4.036  27.420 -19.733  1.00  0.00     0.310 C
HETATM   13  C12 UNL     1       5.131  25.945 -18.187  1.00  0.00     0.292 C
HETATM   14  C11 UNL     1       4.855  24.725 -17.317  1.00  0.00     0.171 C
ENDBRANCH   1   8
BRANCH   5  15
HETATM   15  C6  UNL     1       5.584  18.863 -18.780  1.00  0.00     0.097 C
HETATM   16  C7  UNL     1       7.086  18.687 -19.052  1.00  0.00     0.016 C
HETATM   17  C8  UNL     1       7.031  17.368 -19.836  1.00  0.00     0.004 C
HETATM   18  C9  UNL     1       5.976  17.710 -20.871  1.00  0.00     0.038 C
HETATM   19  C10 UNL     1       5.012  18.650 -20.150  1.00  0.00     0.182 C
HETATM   20  F1  UNL     1       3.821  17.956 -20.014  1.00  0.00    -0.249 F
ENDBRANCH   5  15
TORSDOF 2
ENDMDL