MODEL 2
REMARK VINA RESULT: -6.149788714      1.856      2.268
REMARK  2 active torsions:
REMARK  status: ('A' for Active; 'I' for Inactive)
REMARK       I    between atoms: N1_6  and  C5_7
REMARK    1  A    between atoms: C5_7  and  C6_9
REMARK    2  A    between atoms: C8_11  and  C9_12
ROOT
HETATM    1  C1  UNL     1       2.924  26.665 -18.768  1.00  0.00     0.026 C
HETATM    2  C2  UNL     1       4.162  26.067 -19.386  1.00  0.00     0.097 C
HETATM    3  S1  UNL     1       3.764  25.021 -20.819  1.00  0.00    -0.158 SA
HETATM    4  C3  UNL     1       3.015  23.513 -20.127  1.00  0.00     0.094 C
HETATM    5  C4  UNL     1       3.329  23.443 -18.625  1.00  0.00     0.139 C
HETATM    6  N1  UNL     1       4.676  23.870 -18.367  1.00  0.00    -0.314 N
HETATM    7  C5  UNL     1       5.735  23.006 -18.074  1.00  0.00     0.274 C
HETATM    8  O1  UNL     1       6.880  23.571 -17.857  1.00  0.00    -0.266 OA
HETATM    9  C10 UNL     1       5.009  25.302 -18.419  1.00  0.00     0.287 C
HETATM   10  F1  UNL     1       4.981  25.888 -17.181  1.00  0.00    -0.225 F
ENDROOT
BRANCH   7  11
HETATM   11  C6  UNL     1       5.705  21.562 -17.988  1.00  0.00     0.125 A
HETATM   12  C7  UNL     1       5.956  20.684 -19.063  1.00  0.00     0.079 A
HETATM   13  C8  UNL     1       5.842  19.389 -18.615  1.00  0.00     0.138 A
HETATM   14  O3  UNL     1       5.542  19.468 -17.357  1.00  0.00    -0.234 OA
HETATM   15  N2  UNL     1       5.460  20.713 -16.981  1.00  0.00    -0.255 N
ATOM     16  H2  UNL     1       5.236  21.007 -16.031  1.00  0.00     0.195 HD
BRANCH  13  17
HETATM   17  C9  UNL     1       6.022  18.182 -19.401  1.00  0.00     0.297 C
HETATM   18  O2  UNL     1       7.173  17.739 -19.657  1.00  0.00    -0.299 OA
ENDBRANCH  13  17
ENDBRANCH   7  11
TORSDOF 2
ENDMDL