MODEL 4
REMARK VINA RESULT: -5.658670259      2.408      2.649
REMARK  2 active torsions:
REMARK  status: ('A' for Active; 'I' for Inactive)
REMARK    1  A    between atoms: N1_2  and  C1_4
REMARK    2  A    between atoms: C2_7  and  N3_8
ROOT
HETATM    1  C1  UNL     1       4.851  20.841 -18.478  1.00  0.00     0.200 A
HETATM    2  N2  UNL     1       4.835  22.099 -18.106  1.00  0.00    -0.316 N
ATOM      3  H2  UNL     1       5.483  22.426 -17.389  1.00  0.00     0.169 HD
HETATM    4  C2  UNL     1       3.983  22.941 -18.657  1.00  0.00     0.149 A
HETATM    5  S1  UNL     1       3.155  21.937 -19.757  1.00  0.00    -0.042 SA
HETATM    6  C7  UNL     1       3.953  20.466 -19.449  1.00  0.00     0.105 A
HETATM    7 BR1  UNL     1       3.701  18.727 -20.230  1.00  0.00    -0.039 Br
ENDROOT
BRANCH   4   8
HETATM    8  N3  UNL     1       3.822  24.318 -18.381  1.00  0.00    -0.361 N
HETATM    9  C3  UNL     1       4.264  25.087 -17.241  1.00  0.00     0.125 C
HETATM   10  C4  UNL     1       5.089  26.160 -17.988  1.00  0.00     0.021 C
HETATM   11  C5  UNL     1       4.151  26.498 -19.145  1.00  0.00     0.021 C
HETATM   12  C6  UNL     1       3.159  25.324 -19.216  1.00  0.00     0.125 C
ENDBRANCH   4   8
BRANCH   1  13
HETATM   13  N1  UNL     1       5.738  19.869 -17.880  1.00  0.00    -0.096 N
HETATM   14  O1  UNL     1       5.569  19.443 -16.739  1.00  0.00    -0.530 OA
HETATM   15  O2  UNL     1       6.801  19.397 -18.606  1.00  0.00    -0.530 OA
ENDBRANCH   1  13
TORSDOF 2
ENDMDL