MODEL 4
REMARK VINA RESULT: -5.432505361      3.056      6.940
REMARK  2 active torsions:
REMARK  status: ('A' for Active; 'I' for Inactive)
REMARK    1  A    between atoms: C3_7  and  N3_8
REMARK    2  A    between atoms: N4_11  and  C6_12
ROOT
HETATM    1  N3  UNL     1       4.094  22.465 -18.850  1.00  0.00    -0.326 N
HETATM    2  C4  UNL     1       3.085  21.607 -19.380  1.00  0.00     0.158 C
HETATM    3  C5  UNL     1       3.630  20.399 -20.097  1.00  0.00     0.293 C
HETATM    4  N4  UNL     1       4.727  19.771 -19.476  1.00  0.00     0.102 N
HETATM    5  C9  UNL     1       5.151  20.335 -18.247  1.00  0.00     0.273 C
HETATM    6  C10 UNL     1       6.544  19.883 -17.820  1.00  0.00     0.048 C
HETATM    7  C11 UNL     1       5.276  21.841 -18.345  1.00  0.00     0.306 C
HETATM    8  F1  UNL     1       5.488  22.278 -17.029  1.00  0.00    -0.224 F
ENDROOT
BRANCH   1   9
HETATM    9  C3  UNL     1       3.889  23.870 -18.829  1.00  0.00     0.165 A
HETATM   10  N2  UNL     1       3.884  24.770 -17.850  1.00  0.00    -0.279 N
HETATM   11  N1  UNL     1       3.663  25.992 -18.111  1.00  0.00    -0.296 N
ATOM     12  H2  UNL     1       4.058  24.477 -16.888  1.00  0.00     0.189 HD
HETATM   13  C2  UNL     1       3.437  26.370 -19.370  1.00  0.00     0.066 A
ATOM     14  H1  UNL     1       3.659  26.682 -17.360  1.00  0.00     0.187 HD
HETATM   15  C1  UNL     1       3.155  27.740 -19.926  1.00  0.00     0.078 C
HETATM   16  S1  UNL     1       3.558  24.868 -20.173  1.00  0.00    -0.038 SA
ENDBRANCH   1   9
BRANCH   4  17
HETATM   17  C6  UNL     1       4.584  18.361 -19.528  1.00  0.00     0.215 C
HETATM   18  C7  UNL     1       5.756  17.628 -20.127  1.00  0.00     0.042 C
HETATM   19  C8  UNL     1       3.403  17.946 -20.418  1.00  0.00     0.042 C
ENDBRANCH   4  17
TORSDOF 2
ENDMDL