MODEL 1
REMARK VINA RESULT: -6.404765144      0.000      0.000
REMARK  3 active torsions:
REMARK  status: ('A' for Active; 'I' for Inactive)
REMARK    1  A    between atoms: O1_2  and  C2_3
REMARK    2  A    between atoms: C2_3  and  C3_5
REMARK    3  A    between atoms: C8_12  and  S1_13
ROOT
HETATM    1  C3  UNL     1       4.619  23.945 -18.979  1.00  0.00     0.133 C
HETATM    2  C4  UNL     1       5.782  24.183 -18.082  1.00  0.00     0.019 C
HETATM    3  C5  UNL     1       5.566  23.705 -16.677  1.00  0.00     0.007 C
HETATM    4  C6  UNL     1       5.491  22.216 -16.664  1.00  0.00     0.056 C
HETATM    5  C7  UNL     1       4.678  21.795 -17.880  1.00  0.00     0.031 A
HETATM    6  N1  UNL     1       4.827  20.603 -18.334  1.00  0.00    -0.341 N
ATOM      7  H1  UNL     1       5.489  19.990 -17.859  1.00  0.00     0.167 HD
HETATM    8  C8  UNL     1       4.128  20.088 -19.453  1.00  0.00     0.140 A
HETATM    9  N2  UNL     1       3.313  20.867 -20.018  1.00  0.00    -0.367 N
ATOM     10  H2  UNL     1       2.813  20.495 -20.824  1.00  0.00     0.161 HD
HETATM   11  C10 UNL     1       3.017  22.209 -19.650  1.00  0.00     0.172 A
HETATM   12  C11 UNL     1       3.776  22.750 -18.506  1.00  0.00     0.170 A
HETATM   13  F1  UNL     1       2.829  23.218 -17.583  1.00  0.00    -0.234 F
ENDROOT
BRANCH   1  14
HETATM   14  C2  UNL     1       3.785  25.170 -19.046  1.00  0.00     0.266 C
HETATM   15  O2  UNL     1       3.656  25.932 -18.047  1.00  0.00    -0.265 OA
BRANCH  14  16
HETATM   16  O1  UNL     1       3.104  25.550 -20.198  1.00  0.00    -0.326 OA
HETATM   17  C1  UNL     1       3.716  26.276 -21.246  1.00  0.00     0.213 C
ENDBRANCH  14  16
ENDBRANCH   1  14
BRANCH   8  18
HETATM   18  S1  UNL     1       4.463  18.415 -19.949  1.00  0.00    -0.099 SA
HETATM   19  C9  UNL     1       6.212  18.044 -20.022  1.00  0.00     0.099 C
ENDBRANCH   8  18
TORSDOF 3
ENDMDL