MODEL 2
REMARK VINA RESULT: -6.382147315      0.167      1.367
REMARK  2 active torsions:
REMARK  status: ('A' for Active; 'I' for Inactive)
REMARK    1  A    between atoms: N1_2  and  C1_4
REMARK    2  A    between atoms: C2_5  and  N2_6
ROOT
HETATM    1  C1  UNL     1       4.565  22.732 -18.508  1.00  0.00     0.172 A
HETATM    2  C2  UNL     1       3.690  23.345 -19.358  1.00  0.00     0.145 A
HETATM    3  N3  UNL     1       2.843  22.566 -20.017  1.00  0.00    -0.309 N
ATOM      4  H3  UNL     1       2.128  22.853 -20.686  1.00  0.00     0.176 HD
HETATM    5  S1  UNL     1       3.197  21.010 -19.513  1.00  0.00    -0.003 SA
HETATM    6  C7  UNL     1       4.461  21.366 -18.435  1.00  0.00     0.105 A
HETATM    7 BR1  UNL     1       5.527  20.176 -17.345  1.00  0.00    -0.039 Br
ENDROOT
BRANCH   2   8
HETATM    8  N2  UNL     1       3.637  24.788 -19.581  1.00  0.00    -0.365 N
HETATM    9  C3  UNL     1       3.612  25.726 -18.490  1.00  0.00     0.124 C
HETATM   10  C4  UNL     1       3.352  27.071 -19.140  1.00  0.00     0.021 C
HETATM   11  C5  UNL     1       4.001  26.914 -20.501  1.00  0.00     0.021 C
HETATM   12  C6  UNL     1       3.601  25.490 -20.846  1.00  0.00     0.124 C
ENDBRANCH   2   8
BRANCH   1  13
HETATM   13  N1  UNL     1       5.559  23.447 -17.715  1.00  0.00    -0.110 N
HETATM   14  O1  UNL     1       6.647  23.667 -18.240  1.00  0.00    -0.532 OA
HETATM   15  O2  UNL     1       5.313  23.862 -16.439  1.00  0.00    -0.532 OA
ENDBRANCH   1  13
TORSDOF 2
ENDMDL