MODEL 4
REMARK VINA RESULT: -6.690904658      3.268      6.641
REMARK  6 active torsions:
REMARK  status: ('A' for Active; 'I' for Inactive)
REMARK    1  A    between atoms: N1_2  and  C2_4
REMARK    2  A    between atoms: C2_4  and  C3_5
REMARK    3  A    between atoms: C3_5  and  S1_7
REMARK    4  A    between atoms: S1_7  and  C4_10
REMARK    5  A    between atoms: C7_13  and  O3_14
REMARK    6  A    between atoms: O3_14  and  C8_15
ROOT
HETATM    1  C4  UNL     1       4.661  22.838 -18.906  1.00  0.00     0.115 C
HETATM    2  C5  UNL     1       5.975  22.340 -18.399  1.00  0.00     0.023 C
HETATM    3  C6  UNL     1       5.788  20.909 -17.923  1.00  0.00     0.034 C
HETATM    4  C7  UNL     1       5.344  20.109 -19.148  1.00  0.00     0.132 C
HETATM    5  C10 UNL     1       3.926  20.500 -19.437  1.00  0.00     0.034 C
HETATM    6  C11 UNL     1       3.552  21.828 -18.823  1.00  0.00     0.023 C
ENDROOT
BRANCH   1   7
HETATM    7  S1  UNL     1       4.173  24.230 -17.882  1.00  0.00     0.199 S
HETATM    8  O1  UNL     1       5.148  24.353 -16.719  1.00  0.00    -0.221 OA
HETATM    9  O2  UNL     1       2.836  23.908 -17.257  1.00  0.00    -0.221 OA
BRANCH   7  10
HETATM   10  C3  UNL     1       4.149  25.708 -18.770  1.00  0.00     0.190 C
HETATM   11 CL1  UNL     1       4.962  27.110 -18.176  1.00  0.00    -0.061 Cl
BRANCH  10  12
HETATM   12  C2  UNL     1       3.503  25.773 -19.895  1.00  0.00    -0.010 C
BRANCH  12  13
HETATM   13  N1  UNL     1       3.113  26.066 -21.099  1.00  0.00    -0.359 N
HETATM   14  C1  UNL     1       4.065  26.868 -21.880  1.00  0.00     0.156 C
ATOM     15  H1  UNL     1       2.214  25.763 -21.474  1.00  0.00     0.168 HD
ENDBRANCH  12  13
ENDBRANCH  10  12
ENDBRANCH   7  10
ENDBRANCH   1   7
BRANCH   4  16
HETATM   16  O3  UNL     1       5.513  18.752 -18.864  1.00  0.00    -0.316 OA
BRANCH  16  17
HETATM   17  C8  UNL     1       6.538  18.005 -19.430  1.00  0.00     0.255 C
HETATM   18  C9  UNL     1       6.184  17.068 -20.524  1.00  0.00     0.126 C
HETATM   19  O4  UNL     1       7.695  18.157 -18.995  1.00  0.00    -0.266 OA
ENDBRANCH  16  17
ENDBRANCH   4  16
TORSDOF 6
ENDMDL