MODEL 1
REMARK VINA RESULT: -4.773058324      0.000      0.000
REMARK  4 active torsions:
REMARK  status: ('A' for Active; 'I' for Inactive)
REMARK    1  A    between atoms: C2_2  and  O1_5
REMARK    2  A    between atoms: O1_5  and  C5_6
REMARK    3  A    between atoms: C5_6  and  C6_8
REMARK    4  A    between atoms: C9_13  and  N1_14
ROOT
HETATM    1  C6  UNL     1       4.361  23.315 -18.641  1.00  0.00     0.109 A
HETATM    2  S1  UNL     1       4.760  24.365 -17.339  1.00  0.00    -0.052 SA
HETATM    3  C7  UNL     1       5.803  23.343 -16.469  1.00  0.00     0.160 A
HETATM    4  F1  UNL     1       6.488  23.579 -15.290  1.00  0.00    -0.198 F
HETATM    5  C8  UNL     1       5.816  22.202 -17.218  1.00  0.00     0.081 A
HETATM    6  C9  UNL     1       5.066  22.184 -18.352  1.00  0.00     0.057 A
ENDROOT
BRANCH   1   7
HETATM    7  C5  UNL     1       3.455  23.611 -19.779  1.00  0.00     0.303 C
HETATM    8  O2  UNL     1       2.380  23.076 -19.997  1.00  0.00    -0.259 OA
BRANCH   7   9
HETATM    9  O1  UNL     1       3.885  24.587 -20.666  1.00  0.00    -0.307 OA
BRANCH   9  10
HETATM   10  C2  UNL     1       3.387  25.884 -20.726  1.00  0.00     0.060 C
HETATM   11  C1  UNL     1       2.841  26.400 -19.427  1.00  0.00     0.046 C
HETATM   12  C3  UNL     1       2.337  26.010 -21.801  1.00  0.00     0.046 C
HETATM   13  C4  UNL     1       4.557  26.797 -21.114  1.00  0.00     0.046 C
ENDBRANCH   9  10
ENDBRANCH   7   9
ENDBRANCH   1   7
BRANCH   6  14
HETATM   14  N1  UNL     1       5.063  20.994 -19.189  1.00  0.00    -0.375 N
HETATM   15  C10 UNL     1       6.233  20.264 -19.568  1.00  0.00     0.149 C
HETATM   16  C11 UNL     1       6.126  18.802 -19.126  1.00  0.00     0.187 C
HETATM   17  O3  UNL     1       4.789  18.425 -19.025  1.00  0.00    -0.388 OA
HETATM   18  C12 UNL     1       3.970  18.981 -19.982  1.00  0.00     0.187 C
HETATM   19  C13 UNL     1       3.796  20.455 -19.689  1.00  0.00     0.149 C
ENDBRANCH   6  14
TORSDOF 4
ENDMDL