MODEL 4
REMARK VINA RESULT: -5.704601143      1.487      6.011
REMARK  4 active torsions:
REMARK  status: ('A' for Active; 'I' for Inactive)
REMARK    1  A    between atoms: O1_2  and  C2_3
REMARK    2  A    between atoms: C7_8  and  N1_9
REMARK       I    between atoms: N1_9  and  C9_11
REMARK    3  A    between atoms: C9_11  and  O3_13
REMARK    4  A    between atoms: O3_13  and  C10_14
ROOT
HETATM    1  C2  UNL     1       4.792  24.516 -17.726  1.00  0.00     0.098 A
HETATM    2  C3  UNL     1       4.817  25.859 -18.081  1.00  0.00     0.078 A
HETATM    3  C4  UNL     1       4.254  26.276 -19.271  1.00  0.00     0.107 A
HETATM    4  C5  UNL     1       3.660  25.369 -20.123  1.00  0.00     0.107 A
HETATM    5  C6  UNL     1       3.653  24.050 -19.743  1.00  0.00     0.072 A
HETATM    6  C7  UNL     1       4.210  23.602 -18.554  1.00  0.00     0.075 A
HETATM    7  O4  UNL     1       3.173  26.057 -21.252  1.00  0.00    -0.323 OA
HETATM    8  C14 UNL     1       3.172  27.450 -20.909  1.00  0.00     0.352 C
HETATM    9  O5  UNL     1       4.133  27.525 -19.872  1.00  0.00    -0.323 OA
ENDROOT
BRANCH   6  10
HETATM   10  N1  UNL     1       4.151  22.193 -18.232  1.00  0.00    -0.295 N
HETATM   11  C8  UNL     1       2.996  21.635 -17.549  1.00  0.00     0.162 C
HETATM   12  C9  UNL     1       5.252  21.396 -18.612  1.00  0.00     0.367 C
HETATM   13  O2  UNL     1       6.236  21.968 -19.174  1.00  0.00    -0.238 OA
BRANCH  12  14
HETATM   14  O3  UNL     1       5.353  20.035 -18.426  1.00  0.00    -0.294 OA
BRANCH  14  15
HETATM   15  C10 UNL     1       5.167  19.075 -19.445  1.00  0.00     0.061 C
HETATM   16  C11 UNL     1       4.971  17.738 -18.716  1.00  0.00     0.046 C
HETATM   17  C12 UNL     1       3.930  19.323 -20.254  1.00  0.00     0.046 C
HETATM   18  C13 UNL     1       6.416  18.901 -20.264  1.00  0.00     0.046 C
ENDBRANCH  14  15
ENDBRANCH  12  14
ENDBRANCH   6  10
BRANCH   1  19
HETATM   19  O1  UNL     1       5.361  24.113 -16.529  1.00  0.00    -0.354 OA
HETATM   20  C1  UNL     1       6.678  23.533 -16.518  1.00  0.00     0.210 C
ENDBRANCH   1  19
TORSDOF 4
ENDMDL