MODEL 1
REMARK VINA RESULT: -7.050323944      0.000      0.000
REMARK  2 active torsions:
REMARK  status: ('A' for Active; 'I' for Inactive)
REMARK    1  A    between atoms: N1_6  and  C4_7
REMARK    2  A    between atoms: C4_7  and  N2_8
ROOT
HETATM    1  C4  UNL     1       3.652  22.850 -18.788  1.00  0.00     0.163 C
ENDROOT
BRANCH   1   2
HETATM    2  N1  UNL     1       4.737  21.901 -18.642  1.00  0.00    -0.271 N
HETATM    3  C3  UNL     1       5.917  22.065 -18.024  1.00  0.00     0.228 A
HETATM    4  O1  UNL     1       6.635  20.955 -18.128  1.00  0.00    -0.285 OA
HETATM    5  S1  UNL     1       6.437  23.419 -17.240  1.00  0.00    -0.032 SA
HETATM    6  C2  UNL     1       5.977  20.054 -18.794  1.00  0.00     0.091 A
HETATM    7  C1  UNL     1       6.419  18.657 -19.142  1.00  0.00     0.080 C
HETATM    8  C11 UNL     1       4.771  20.623 -19.133  1.00  0.00     0.142 A
HETATM    9 CL1  UNL     1       3.458  19.884 -20.040  1.00  0.00    -0.061 Cl
ENDBRANCH   1   2
BRANCH   1  10
HETATM   10  N2  UNL     1       4.033  24.189 -19.036  1.00  0.00    -0.274 NA
HETATM   11  C5  UNL     1       3.986  25.111 -17.962  1.00  0.00     0.122 C
HETATM   12  C6  UNL     1       4.462  26.482 -18.385  1.00  0.00     0.183 C
HETATM   13  O2  UNL     1       4.827  26.440 -19.711  1.00  0.00    -0.379 OA
HETATM   14  C7  UNL     1       3.746  26.088 -20.532  1.00  0.00     0.066 C
HETATM   15  C8  UNL     1       4.099  26.147 -21.980  1.00  0.00     0.047 C
HETATM   16  C9  UNL     1       2.624  27.049 -20.249  1.00  0.00     0.047 C
HETATM   17  C10 UNL     1       3.276  24.681 -20.192  1.00  0.00     0.133 C
ENDBRANCH   1  10
TORSDOF 2
ENDMDL