MODEL 3
REMARK VINA RESULT: -5.259214044      7.593     10.073
REMARK  4 active torsions:
REMARK  status: ('A' for Active; 'I' for Inactive)
REMARK    1  A    between atoms: C4_5  and  C5_6
REMARK    2  A    between atoms: C5_6  and  C6_7
REMARK    3  A    between atoms: C7_8  and  N1_9
REMARK    4  A    between atoms: S1_15  and  C11_17
ROOT
HETATM    1  C1  UNL     1      10.621  13.308 -23.792  1.00  0.00     0.080 C
HETATM    2  C2  UNL     1       9.529  14.286 -23.679  1.00  0.00     0.174 C
HETATM    3  C3  UNL     1       9.631  15.311 -24.792  1.00  0.00     0.080 C
HETATM    4  O1  UNL     1       9.541  15.037 -22.477  1.00  0.00    -0.324 OA
HETATM    5  C4  UNL     1       8.304  15.312 -22.013  1.00  0.00     0.313 C
HETATM    6  S1  UNL     1       7.721  13.614 -22.286  1.00  0.00     0.185 S
HETATM    7  O2  UNL     1       8.355  12.636 -21.425  1.00  0.00    -0.230 OA
HETATM    8  O3  UNL     1       8.321  13.610 -23.846  1.00  0.00    -0.258 OA
ENDROOT
BRANCH   5   9
HETATM    9  C5  UNL     1       7.573  16.230 -21.528  1.00  0.00    -0.108 C
BRANCH   9  10
HETATM   10  C6  UNL     1       6.801  17.200 -21.016  1.00  0.00     0.072 C
HETATM   11  C7  UNL     1       6.819  17.729 -19.776  1.00  0.00     0.105 C
BRANCH  11  12
HETATM   12  N1  UNL     1       5.913  18.756 -19.397  1.00  0.00    -0.327 N
HETATM   13  C8  UNL     1       6.103  19.611 -18.380  1.00  0.00     0.114 A
HETATM   14  C9  UNL     1       5.011  20.460 -18.304  1.00  0.00     0.106 A
HETATM   15  N2  UNL     1       4.177  20.111 -19.290  1.00  0.00    -0.360 N
HETATM   16  C10 UNL     1       4.725  19.104 -19.925  1.00  0.00     0.187 A
ATOM     17  H2  UNL     1       3.281  20.547 -19.507  1.00  0.00     0.166 HD
ENDBRANCH  11  12
ENDBRANCH   9  10
ENDBRANCH   5   9
BRANCH   6  18
HETATM   18  C11 UNL     1       6.220  13.406 -22.095  1.00  0.00     0.349 C
HETATM   19  F1  UNL     1       5.860  12.216 -21.676  1.00  0.00    -0.161 F
HETATM   20  F2  UNL     1       5.336  14.365 -22.280  1.00  0.00    -0.161 F
ENDBRANCH   6  18
TORSDOF 4
ENDMDL