MODEL 5
REMARK VINA RESULT: -3.761557133      4.156      5.837
REMARK  5 active torsions:
REMARK  status: ('A' for Active; 'I' for Inactive)
REMARK    1  A    between atoms: C2_2  and  C3_3
REMARK    2  A    between atoms: C2_2  and  C8_15
REMARK    3  A    between atoms: N2_7  and  O2_8
REMARK    4  A    between atoms: C4_10  and  C5_11
REMARK    5  A    between atoms: C6_12  and  C7_13
ROOT
HETATM    1  C3  UNL     1       9.658  15.609 -25.559  1.00  0.00     0.080 A
HETATM    2  N1  UNL     1       8.899  15.951 -26.614  1.00  0.00    -0.240 N
ATOM      3  H1  UNL     1       8.101  15.421 -26.968  1.00  0.00     0.196 HD
HETATM    4  O1  UNL     1       9.347  17.066 -27.111  1.00  0.00    -0.127 OA
HETATM    5  N2  UNL     1      10.374  17.493 -26.441  1.00  0.00    -0.091 N
HETATM    6  C4  UNL     1      10.604  16.610 -25.457  1.00  0.00     0.168 A
ENDROOT
BRANCH   1   7
HETATM    7  C2  UNL     1       9.573  14.461 -24.641  1.00  0.00     0.060 C
HETATM    8  C1  UNL     1      10.193  13.252 -25.302  1.00  0.00     0.018 C
BRANCH   7   9
HETATM    9  C8  UNL     1       8.110  14.187 -24.354  1.00  0.00     0.118 C
HETATM   10  S1  UNL     1       7.480  15.258 -23.008  1.00  0.00    -0.152 SA
HETATM   11  C9  UNL     1       6.189  14.255 -22.259  1.00  0.00     0.085 C
HETATM   12  C10 UNL     1       6.372  12.831 -22.613  1.00  0.00     0.085 C
HETATM   13  S2  UNL     1       7.908  12.576 -23.507  1.00  0.00    -0.152 SA
ENDBRANCH   7   9
ENDBRANCH   1   7
BRANCH   6  14
HETATM   14  C5  UNL     1      11.639  16.643 -24.458  1.00  0.00    -0.041 C
HETATM   15  C6  UNL     1      12.523  16.641 -23.609  1.00  0.00    -0.084 C
BRANCH  15  16
HETATM   16  C7  UNL     1      13.594  16.623 -22.612  1.00  0.00     0.208 C
HETATM   17 CL1  UNL     1      13.249  15.230 -21.542  1.00  0.00    -0.117 Cl
ENDBRANCH  15  16
ENDBRANCH   6  14
BRANCH   5  18
HETATM   18  O2  UNL     1      11.110  18.626 -26.660  1.00  0.00    -0.260 OA
ATOM     19  H2  UNL     1      12.031  18.769 -26.477  1.00  0.00     0.247 HD
ENDBRANCH   5  18
TORSDOF 5
ENDMDL