MODEL 3
REMARK VINA RESULT: -6.219892086      1.749      2.100
REMARK  2 active torsions:
REMARK  status: ('A' for Active; 'I' for Inactive)
REMARK    1  A    between atoms: S1_2  and  N1_4
REMARK    2  A    between atoms: S1_2  and  N2_11
ROOT
HETATM    1  O1  UNL     1       2.711  24.125 -17.549  1.00  0.00    -0.181 OA
HETATM    2  S1  UNL     1       4.199  24.209 -18.012  1.00  0.00     0.334 S
HETATM    3  O2  UNL     1       4.947  24.599 -16.771  1.00  0.00    -0.181 OA
ENDROOT
BRANCH   2   4
HETATM    4  N1  UNL     1       4.267  25.345 -19.175  1.00  0.00    -0.240 N
HETATM    5  C1  UNL     1       4.868  26.580 -19.176  1.00  0.00     0.081 C
HETATM    6  C2  UNL     1       3.804  27.653 -19.001  1.00  0.00     0.046 C
HETATM    7  C3  UNL     1       3.031  27.720 -20.270  1.00  0.00     0.010 C
HETATM    8  C4  UNL     1       3.017  26.430 -20.990  1.00  0.00     0.060 C
HETATM    9  C5  UNL     1       3.271  25.191 -20.243  1.00  0.00     0.287 C
HETATM   10  F1  UNL     1       3.772  24.239 -21.098  1.00  0.00    -0.226 F
ENDBRANCH   2   4
BRANCH   2  11
HETATM   11  N2  UNL     1       4.654  22.551 -18.410  1.00  0.00    -0.217 N
HETATM   12  C6  UNL     1       3.719  21.699 -18.850  1.00  0.00     0.119 A
HETATM   13  C7  UNL     1       4.083  20.400 -19.071  1.00  0.00     0.071 A
HETATM   14  S2  UNL     1       5.722  20.404 -18.659  1.00  0.00    -0.070 SA
HETATM   15  C8  UNL     1       5.870  22.052 -18.228  1.00  0.00     0.159 A
HETATM   16  S3  UNL     1       7.278  22.807 -17.774  1.00  0.00    -0.051 SA
ENDBRANCH   2  11
TORSDOF 2
ENDMDL