MODEL 3
REMARK VINA RESULT: -4.502007842      0.937      1.081
REMARK  2 active torsions:
REMARK  status: ('A' for Active; 'I' for Inactive)
REMARK    1  A    between atoms: C7_9  and  C8_10
REMARK    2  A    between atoms: C11_14  and  N2_15
ROOT
HETATM    1  C8  UNL     1       4.683  21.902 -19.079  1.00  0.00     0.030 A
HETATM    2  C9  UNL     1       3.638  21.140 -19.620  1.00  0.00     0.073 A
HETATM    3  C10 UNL     1       4.017  19.823 -19.679  1.00  0.00     0.168 A
HETATM    4  F1  UNL     1       3.296  18.772 -20.138  1.00  0.00    -0.202 F
HETATM    5  C11 UNL     1       5.300  19.782 -19.173  1.00  0.00     0.214 A
HETATM    6  N3  UNL     1       5.665  21.050 -18.824  1.00  0.00    -0.333 N
HETATM    7  C12 UNL     1       6.963  21.369 -18.252  1.00  0.00     0.158 C
ENDROOT
BRANCH   1   8
HETATM    8  C7  UNL     1       4.657  23.375 -18.854  1.00  0.00     0.103 C
HETATM    9  C4  UNL     1       3.495  24.065 -19.535  1.00  0.00     0.022 C
HETATM   10  C3  UNL     1       3.873  24.995 -20.659  1.00  0.00     0.037 C
HETATM   11  C5  UNL     1       3.026  24.929 -18.379  1.00  0.00     0.081 C
HETATM   12  C2  UNL     1       2.746  26.035 -20.746  1.00  0.00     0.272 C
HETATM   13  N1  UNL     1       3.001  26.983 -19.674  1.00  0.00     0.085 N
HETATM   14  C1  UNL     1       3.932  27.965 -20.201  1.00  0.00     0.309 C
HETATM   15  C6  UNL     1       3.541  26.334 -18.495  1.00  0.00     0.287 C
HETATM   16  S1  UNL     1       3.914  23.852 -17.262  1.00  0.00    -0.151 SA
ENDBRANCH   1   8
BRANCH   5  17
HETATM   17  N2  UNL     1       6.125  18.637 -19.027  1.00  0.00    -0.094 N
HETATM   18  O1  UNL     1       5.782  17.555 -19.544  1.00  0.00    -0.530 OA
HETATM   19  O2  UNL     1       7.307  18.648 -18.335  1.00  0.00    -0.530 OA
ENDBRANCH   5  17
TORSDOF 2
ENDMDL