MODEL 2
REMARK VINA RESULT: -6.185844647      2.562      5.382
REMARK  3 active torsions:
REMARK  status: ('A' for Active; 'I' for Inactive)
REMARK    1  A    between atoms: C2_2  and  S1_4
REMARK    2  A    between atoms: S1_4  and  C3_5
REMARK    3  A    between atoms: N4_12  and  C4_13
ROOT
HETATM    1  C3  UNL     1       4.950  22.859 -18.193  1.00  0.00     0.184 A
HETATM    2  N1  UNL     1       6.098  22.520 -17.576  1.00  0.00    -0.263 N
ATOM      3  H1  UNL     1       6.380  21.565 -17.358  1.00  0.00     0.190 HD
HETATM    4  N2  UNL     1       6.801  23.588 -17.295  1.00  0.00    -0.226 N
ATOM      5  H2  UNL     1       7.709  23.609 -16.828  1.00  0.00     0.210 HD
HETATM    6  N3  UNL     1       6.124  24.625 -17.723  1.00  0.00    -0.224 N
ATOM      7  H3  UNL     1       6.423  25.597 -17.643  1.00  0.00     0.210 HD
HETATM    8  N4  UNL     1       4.994  24.218 -18.274  1.00  0.00    -0.249 N
ENDROOT
BRANCH   8   9
HETATM    9  C4  UNL     1       4.005  25.069 -18.849  1.00  0.00     0.112 C
HETATM   10  C5  UNL     1       4.116  26.515 -18.425  1.00  0.00     0.027 C
HETATM   11  C6  UNL     1       3.824  27.457 -19.559  1.00  0.00     0.002 C
HETATM   12  C7  UNL     1       2.722  27.003 -20.458  1.00  0.00     0.000 C
HETATM   13  C8  UNL     1       2.909  25.621 -21.018  1.00  0.00     0.002 C
HETATM   14  C9  UNL     1       4.132  25.016 -20.358  1.00  0.00     0.027 C
ENDBRANCH   8   9
BRANCH   1  15
HETATM   15  S1  UNL     1       3.666  21.769 -18.773  1.00  0.00    -0.044 SA
BRANCH  15  16
HETATM   16  C2  UNL     1       4.378  20.180 -19.107  1.00  0.00     0.045 C
HETATM   17  C1  UNL     1       3.969  19.385 -20.081  1.00  0.00     0.039 C
HETATM   18 BR1  UNL     1       5.831  19.551 -18.005  1.00  0.00    -0.044 Br
ENDBRANCH  15  16
ENDBRANCH   1  15
TORSDOF 3
ENDMDL