MODEL 5
REMARK VINA RESULT: -7.173815429      1.191      1.460
REMARK  4 active torsions:
REMARK  status: ('A' for Active; 'I' for Inactive)
REMARK    1  A    between atoms: N2_4  and  C3_5
REMARK    2  A    between atoms: C3_5  and  C4_6
REMARK       I    between atoms: N5_19  and  C11_20
REMARK    3  A    between atoms: C11_20  and  C12_22
REMARK    4  A    between atoms: C12_22  and  C13_25
ROOT
HETATM    1  N1  UNL     1      25.563   4.728  14.157  1.00  0.00    -0.193 NA
HETATM    2  C1  UNL     1      25.679   5.312  13.157  1.00  0.00     0.117 C
HETATM    3  C2  UNL     1      25.809   6.035  11.869  1.00  0.00     0.434 C
HETATM    4  N2  UNL     1      27.179   6.564  11.871  1.00  0.00     0.129 N
HETATM    5  C9  UNL     1      27.715   6.242  10.574  1.00  0.00     0.296 C
HETATM    6  C10 UNL     1      26.812   5.239   9.919  1.00  0.00     0.159 C
HETATM    7  N5  UNL     1      25.719   5.061  10.832  1.00  0.00    -0.303 N
HETATM    8  C11 UNL     1      24.713   4.068  10.699  1.00  0.00     0.300 C
HETATM    9  O1  UNL     1      23.804   3.992  11.567  1.00  0.00    -0.266 OA
ENDROOT
BRANCH   4  10
HETATM   10  C3  UNL     1      27.139   7.966  12.164  1.00  0.00     0.309 C
BRANCH  10  11
HETATM   11  C4  UNL     1      28.352   8.705  11.747  1.00  0.00     0.215 C
HETATM   12  C5  UNL     1      28.280  10.149  11.440  1.00  0.00     0.062 C
HETATM   13  C6  UNL     1      29.495  10.465  10.513  1.00  0.00     0.234 C
HETATM   14  N3  UNL     1      30.661  10.363  11.316  1.00  0.00    -0.073 N
HETATM   15  C7  UNL     1      31.277   9.053  11.274  1.00  0.00     0.259 C
ATOM     16  H32 UNL     1      31.335  11.087  11.067  1.00  0.00     0.277 HD
ATOM     17  H31 UNL     1      30.463  10.638  12.277  1.00  0.00     0.277 HD
HETATM   18  C8  UNL     1      30.589   8.075  12.192  1.00  0.00     0.260 C
HETATM   19  N4  UNL     1      29.399   8.567  12.781  1.00  0.00    -0.068 N
ATOM     20  H42 UNL     1      29.553   9.437  13.291  1.00  0.00     0.277 HD
ATOM     21  H41 UNL     1      29.091   7.990  13.565  1.00  0.00     0.277 HD
ENDBRANCH  10  11
ENDBRANCH   4  10
BRANCH   8  22
HETATM   22  C12 UNL     1      24.713   3.134   9.573  1.00  0.00     0.379 C
HETATM   23  F1  UNL     1      24.218   3.794   8.447  1.00  0.00    -0.189 F
HETATM   24  F2  UNL     1      26.006   2.705   9.345  1.00  0.00    -0.189 F
BRANCH  22  25
HETATM   25  C13 UNL     1      23.824   1.927   9.834  1.00  0.00     0.434 C
HETATM   26  F3  UNL     1      22.708   1.981   9.014  1.00  0.00    -0.207 F
HETATM   27  F4  UNL     1      24.526   0.783   9.504  1.00  0.00    -0.207 F
ENDBRANCH  22  25
ENDBRANCH   8  22
TORSDOF 4
ENDMDL