MODEL 5
REMARK VINA RESULT: -5.690032840      4.307      5.290
REMARK  7 active torsions:
REMARK  status: ('A' for Active; 'I' for Inactive)
REMARK    1  A    between atoms: N1_1  and  C1_4
REMARK    2  A    between atoms: C2_5  and  C3_6
REMARK    3  A    between atoms: C3_6  and  O1_7
REMARK    4  A    between atoms: O1_7  and  C4_8
REMARK    5  A    between atoms: C4_8  and  C5_9
REMARK    6  A    between atoms: C4_8  and  N3_12
REMARK    7  A    between atoms: C4_8  and  C12_23
ROOT
HETATM    1  C4  UNL     1      25.983   6.656  11.977  1.00  0.00     0.439 C
ENDROOT
BRANCH   1   2
HETATM    2  O1  UNL     1      25.686   5.935  10.882  1.00  0.00    -0.326 OA
BRANCH   2   3
HETATM    3  C3  UNL     1      26.577   5.236  10.179  1.00  0.00     0.267 C
BRANCH   3   4
HETATM    4  C2  UNL     1      25.832   4.336   9.242  1.00  0.00    -0.058 C
HETATM    5  C1  UNL     1      25.235   3.595   8.500  1.00  0.00     0.005 C
BRANCH   5   6
HETATM    6  N1  UNL     1      24.553   2.714   7.652  1.00  0.00    -0.359 N
ATOM      7  H12 UNL     1      25.047   2.657   8.542  1.00  0.00     0.166 HD
ATOM      8  H11 UNL     1      24.051   2.087   7.022  1.00  0.00     0.166 HD
ENDBRANCH   5   6
ENDBRANCH   3   4
ENDBRANCH   2   3
ENDBRANCH   1   2
BRANCH   1   9
HETATM    9  C5  UNL     1      27.435   7.097  11.895  1.00  0.00     0.307 C
HETATM   10  N2  UNL     1      27.870   7.995  10.894  1.00  0.00    -0.057 NA
HETATM   11  O2  UNL     1      28.277   6.675  12.709  1.00  0.00    -0.271 OA
ENDBRANCH   1   9
BRANCH   1  12
HETATM   12  N3  UNL     1      25.753   5.881  13.161  1.00  0.00     0.165 N
HETATM   13  C6  UNL     1      25.999   6.716  14.313  1.00  0.00     0.312 C
HETATM   14  C7  UNL     1      25.310   6.203  15.586  1.00  0.00     0.214 C
HETATM   15  C8  UNL     1      23.848   6.486  15.623  1.00  0.00     0.037 C
HETATM   16  N4  UNL     1      25.473   4.742  15.476  1.00  0.00    -0.062 N
HETATM   17  C9  UNL     1      23.226   5.104  15.363  1.00  0.00     0.038 C
HETATM   18  C10 UNL     1      24.383   4.491  14.551  1.00  0.00     0.234 C
HETATM   19  C11 UNL     1      24.471   5.300  13.279  1.00  0.00     0.353 C
HETATM   20 CL1  UNL     1      23.988   4.180  11.995  1.00  0.00    -0.089 Cl
ATOM     21  H42 UNL     1      26.395   4.403  15.201  1.00  0.00     0.278 HD
ATOM     22  H41 UNL     1      25.467   4.213  16.348  1.00  0.00     0.278 HD
ENDBRANCH   1  12
BRANCH   1  23
HETATM   23  C12 UNL     1      25.263   7.979  12.094  1.00  0.00     0.458 C
HETATM   24  F1  UNL     1      24.921   8.470  10.824  1.00  0.00    -0.166 F
HETATM   25  F2  UNL     1      26.040   8.928  12.693  1.00  0.00    -0.166 F
HETATM   26  F3  UNL     1      24.051   7.926  12.742  1.00  0.00    -0.166 F
ENDBRANCH   1  23
TORSDOF 7
ENDMDL