MODEL 4
REMARK VINA RESULT: -6.515477442      3.006      4.557
REMARK  6 active torsions:
REMARK  status: ('A' for Active; 'I' for Inactive)
REMARK    1  A    between atoms: C2_2  and  C9_20
REMARK    2  A    between atoms: N1_3  and  N2_5
REMARK       I    between atoms: N2_5  and  C3_7
REMARK    3  A    between atoms: C3_7  and  C4_9
REMARK    4  A    between atoms: C4_9  and  N3_11
REMARK    5  A    between atoms: C4_9  and  C8_16
REMARK       I    between atoms: C9_20  and  N4_22
REMARK    6  A    between atoms: N4_22  and  N5_24
ROOT
HETATM    1  N2  UNL     1      26.974   6.815  12.442  1.00  0.00    -0.265 N
ATOM      2  H2  UNL     1      27.440   5.940  12.680  1.00  0.00     0.190 HD
HETATM    3  C3  UNL     1      26.915   7.268  11.103  1.00  0.00     0.318 C
HETATM    4  O1  UNL     1      26.330   8.360  10.819  1.00  0.00    -0.265 OA
ENDROOT
BRANCH   1   5
HETATM    5  N1  UNL     1      26.378   7.596  13.421  1.00  0.00    -0.297 N
HETATM    6  C2  UNL     1      25.371   7.247  14.130  1.00  0.00     0.090 C
HETATM    7  C1  UNL     1      24.727   5.912  13.960  1.00  0.00     0.076 C
ATOM      8  H1  UNL     1      26.773   8.522  13.589  1.00  0.00     0.187 HD
BRANCH   6   9
HETATM    9  C9  UNL     1      24.844   8.166  15.112  1.00  0.00     0.279 C
HETATM   10  O3  UNL     1      24.018   7.757  15.955  1.00  0.00    -0.265 OA
HETATM   11  N4  UNL     1      25.262   9.512  15.112  1.00  0.00    -0.285 N
ATOM     12  H4  UNL     1      25.937   9.847  14.424  1.00  0.00     0.184 HD
BRANCH  11  13
HETATM   13  N5  UNL     1      24.735  10.379  16.071  1.00  0.00    -0.237 NA
HETATM   14  C10 UNL     1      24.191  11.530  15.391  1.00  0.00     0.135 C
HETATM   15  C11 UNL     1      25.650  10.702  17.129  1.00  0.00     0.135 C
ENDBRANCH  11  13
ENDBRANCH   6   9
ENDBRANCH   1   5
BRANCH   3  16
HETATM   16  C4  UNL     1      27.514   6.528   9.959  1.00  0.00     0.478 C
HETATM   17  F1  UNL     1      27.329   7.234   8.801  1.00  0.00    -0.190 F
BRANCH  16  18
HETATM   18  N3  UNL     1      26.989   5.175   9.893  1.00  0.00     0.173 N
HETATM   19  C5  UNL     1      26.830   4.659   8.568  1.00  0.00     0.307 C
HETATM   20  C6  UNL     1      25.639   3.706   8.789  1.00  0.00     0.200 C
HETATM   21  O2  UNL     1      24.817   4.510   9.572  1.00  0.00    -0.361 OA
HETATM   22  C7  UNL     1      25.673   5.067  10.493  1.00  0.00     0.446 C
ENDBRANCH  16  18
BRANCH  16  23
HETATM   23  C8  UNL     1      28.999   6.420  10.223  1.00  0.00     0.464 C
HETATM   24  F2  UNL     1      29.729   6.216   9.053  1.00  0.00    -0.165 F
HETATM   25  F3  UNL     1      29.281   5.329  11.029  1.00  0.00    -0.165 F
HETATM   26  F4  UNL     1      29.469   7.595  10.764  1.00  0.00    -0.165 F
ENDBRANCH  16  23
ENDBRANCH   3  16
TORSDOF 6
ENDMDL