MODEL 1
REMARK VINA RESULT: -7.454194220      0.000      0.000
REMARK  5 active torsions:
REMARK  status: ('A' for Active; 'I' for Inactive)
REMARK    1  A    between atoms: N1_2  and  C2_4
REMARK    2  A    between atoms: N3_8  and  C4_9
REMARK    3  A    between atoms: C5_11  and  C6_12
REMARK    4  A    between atoms: C6_12  and  N4_13
REMARK       I    between atoms: N4_13  and  C7_15
REMARK    5  A    between atoms: C7_15  and  C8_17
ROOT
HETATM    1  C4  UNL     1      28.447   7.545  10.205  1.00  0.00     0.279 C
HETATM    2  O1  UNL     1      27.798   6.666  11.090  1.00  0.00    -0.355 OA
HETATM    3  C5  UNL     1      26.743   6.238  10.316  1.00  0.00     0.144 C
HETATM    4  C9  UNL     1      27.438   5.754   9.061  1.00  0.00     0.075 C
HETATM    5  C10 UNL     1      28.496   6.822   8.871  1.00  0.00     0.223 C
HETATM    6  F3  UNL     1      29.735   6.298   8.606  1.00  0.00    -0.245 F
ENDROOT
BRANCH   1   7
HETATM    7  N3  UNL     1      29.752   7.916  10.672  1.00  0.00    -0.241 N
HETATM    8  C3  UNL     1      30.444   9.013  10.339  1.00  0.00     0.221 A
HETATM    9  N2  UNL     1      31.625   9.006  10.981  1.00  0.00    -0.185 N
HETATM   10  C2  UNL     1      31.662   7.896  11.714  1.00  0.00     0.693 A
ATOM     11  H2  UNL     1      32.355   9.715  10.917  1.00  0.00     0.185 HD
HETATM   12  N5  UNL     1      30.519   7.246  11.516  1.00  0.00    -0.127 N
ATOM     13  H5  UNL     1      30.269   6.358  11.952  1.00  0.00     0.206 HD
BRANCH  10  14
HETATM   14  N1  UNL     1      32.656   7.567  12.464  1.00  0.00    -0.229 N
HETATM   15  C1  UNL     1      32.420   7.136  13.831  1.00  0.00     0.165 C
ATOM     16  H1  UNL     1      33.607   7.609  12.098  1.00  0.00     0.177 HD
ENDBRANCH  10  14
ENDBRANCH   1   7
BRANCH   3  17
HETATM   17  C6  UNL     1      25.913   5.170  10.959  1.00  0.00     0.155 C
BRANCH  17  18
HETATM   18  N4  UNL     1      25.647   4.051  10.117  1.00  0.00    -0.352 N
HETATM   19  C7  UNL     1      24.421   3.350  10.247  1.00  0.00     0.306 C
HETATM   20  O2  UNL     1      23.571   3.711  11.098  1.00  0.00    -0.265 OA
ATOM     21  H4  UNL     1      26.335   3.755   9.425  1.00  0.00     0.162 HD
BRANCH  19  22
HETATM   22  C8  UNL     1      24.085   2.173   9.397  1.00  0.00     0.400 C
HETATM   23  F1  UNL     1      24.889   1.089   9.742  1.00  0.00    -0.177 F
HETATM   24  F2  UNL     1      22.783   1.766   9.609  1.00  0.00    -0.177 F
HETATM   25 CL1  UNL     1      24.294   2.569   7.670  1.00  0.00    -0.038 Cl
ENDBRANCH  19  22
ENDBRANCH  17  18
ENDBRANCH   3  17
TORSDOF 5
ENDMDL