MODEL 3
REMARK VINA RESULT: -6.007992189      3.162      4.482
REMARK  7 active torsions:
REMARK  status: ('A' for Active; 'I' for Inactive)
REMARK    1  A    between atoms: C2_2  and  O1_3
REMARK    2  A    between atoms: C2_2  and  C3_5
REMARK    3  A    between atoms: C3_5  and  O2_6
REMARK    4  A    between atoms: O2_6  and  C4_7
REMARK    5  A    between atoms: N1_10  and  O3_11
REMARK    6  A    between atoms: C7_15  and  O4_16
REMARK    7  A    between atoms: C7_15  and  C8_18
ROOT
HETATM    1  C4  UNL     1      25.283   4.199  11.321  1.00  0.00     0.228 C
HETATM    2  C5  UNL     1      26.276   5.148  10.727  1.00  0.00     0.137 C
HETATM    3 CL1  UNL     1      26.904   6.547  11.622  1.00  0.00    -0.064 Cl
HETATM    4  N1  UNL     1      26.603   4.833   9.529  1.00  0.00    -0.233 N
HETATM    5  C6  UNL     1      25.912   3.648   9.136  1.00  0.00     0.229 C
HETATM    6 BR1  UNL     1      25.378   3.643   7.290  1.00  0.00    -0.062 Br
HETATM    7  C7  UNL     1      24.719   3.603  10.053  1.00  0.00     0.181 C
ENDROOT
BRANCH   1   8
HETATM    8  O2  UNL     1      24.342   4.970  11.976  1.00  0.00    -0.373 OA
BRANCH   8   9
HETATM    9  C3  UNL     1      24.067   4.502  13.250  1.00  0.00     0.200 C
BRANCH   9  10
HETATM   10  C2  UNL     1      24.869   5.364  14.224  1.00  0.00     0.138 C
HETATM   11  C1  UNL     1      23.927   5.850  15.298  1.00  0.00     0.041 C
BRANCH  10  12
HETATM   12  O1  UNL     1      25.798   4.516  14.855  1.00  0.00    -0.394 OA
ATOM     13  H1  UNL     1      25.295   3.895  15.368  1.00  0.00     0.210 HD
ENDBRANCH  10  12
ENDBRANCH   9  10
ENDBRANCH   8   9
ENDBRANCH   1   8
BRANCH   7  14
HETATM   14  O4  UNL     1      23.717   4.440   9.573  1.00  0.00    -0.379 OA
ATOM     15  H4  UNL     1      22.896   3.962   9.569  1.00  0.00     0.211 HD
ENDBRANCH   7  14
BRANCH   7  16
HETATM   16  C8  UNL     1      24.219   2.203  10.231  1.00  0.00     0.393 C
HETATM   17  F1  UNL     1      23.053   1.946   9.582  1.00  0.00    -0.211 F
HETATM   18  F2  UNL     1      25.175   1.327   9.759  1.00  0.00    -0.211 F
ENDBRANCH   7  16
BRANCH   4  19
HETATM   19  O3  UNL     1      27.517   5.582   8.782  1.00  0.00    -0.285 OA
ATOM     20  H3  UNL     1      28.167   6.144   9.188  1.00  0.00     0.245 HD
ENDBRANCH   4  19
TORSDOF 7
ENDMDL