MODEL 1
REMARK VINA RESULT: -6.331863227      0.000      0.000
REMARK  5 active torsions:
REMARK  status: ('A' for Active; 'I' for Inactive)
REMARK       I    between atoms: N1_2  and  C2_4
REMARK    1  A    between atoms: C2_4  and  C3_6
REMARK    2  A    between atoms: C5_9  and  C6_10
REMARK    3  A    between atoms: C7_17  and  C8_18
REMARK    4  A    between atoms: C8_18  and  N4_20
REMARK    5  A    between atoms: C10_25  and  N5_26
ROOT
HETATM    1  C3  UNL     1      25.128   7.938  13.669  1.00  0.00     0.345 C
HETATM    2  N2  UNL     1      25.960   7.337  14.669  1.00  0.00     0.109 N
HETATM    3  C4  UNL     1      25.654   6.079  15.156  1.00  0.00     0.316 C
HETATM    4  C5  UNL     1      24.987   5.103  14.283  1.00  0.00     0.321 C
HETATM    5  N3  UNL     1      24.731   5.580  12.936  1.00  0.00    -0.049 N
ATOM      6  H31 UNL     1      24.006   6.297  12.905  1.00  0.00     0.278 HD
ATOM      7  H32 UNL     1      24.262   4.884  12.356  1.00  0.00     0.278 HD
HETATM    8  C7  UNL     1      25.998   6.034  12.357  1.00  0.00     0.286 C
HETATM    9  C10 UNL     1      26.134   7.511  12.601  1.00  0.00     0.127 C
HETATM   10  C13 UNL     1      27.068   7.573  13.843  1.00  0.00     0.309 C
ENDROOT
BRANCH   8  11
HETATM   11  C8  UNL     1      26.186   5.523  10.967  1.00  0.00     0.290 C
HETATM   12  C9  UNL     1      27.614   5.487  10.498  1.00  0.00     0.086 C
HETATM   13  F4  UNL     1      25.428   6.114   9.999  1.00  0.00    -0.210 F
BRANCH  11  14
HETATM   14  N4  UNL     1      25.736   4.113  10.926  1.00  0.00    -0.040 N
ATOM     15  H43 UNL     1      26.466   3.459  11.207  1.00  0.00     0.278 HD
ATOM     16  H42 UNL     1      25.064   3.893  11.661  1.00  0.00     0.278 HD
ATOM     17  H41 UNL     1      25.373   3.922   9.991  1.00  0.00     0.278 HD
ENDBRANCH  11  14
ENDBRANCH   8  11
BRANCH   9  18
HETATM   18  N5  UNL     1      26.471   8.384  11.584  1.00  0.00    -0.406 N
HETATM   19  C11 UNL     1      25.536   9.164  10.885  1.00  0.00     0.143 C
HETATM   20  C12 UNL     1      27.737   9.049  11.610  1.00  0.00     0.143 C
ENDBRANCH   9  18
BRANCH   4  21
HETATM   21  C6  UNL     1      23.700   4.517  14.808  1.00  0.00     0.417 C
HETATM   22  F1  UNL     1      23.079   3.723  13.859  1.00  0.00    -0.169 F
HETATM   23  F2  UNL     1      23.912   3.716  15.915  1.00  0.00    -0.169 F
HETATM   24  F3  UNL     1      22.804   5.486  15.204  1.00  0.00    -0.169 F
ENDBRANCH   4  21
BRANCH   1  25
HETATM   25  C2  UNL     1      25.022   9.377  13.952  1.00  0.00     0.253 C
HETATM   26  N1  UNL     1      23.920  10.185  13.554  1.00  0.00    -0.363 N
HETATM   27  C1  UNL     1      23.825  11.599  13.832  1.00  0.00     0.149 C
ATOM     28  H1  UNL     1      23.156   9.740  13.045  1.00  0.00     0.161 HD
HETATM   29  O1  UNL     1      25.938  10.004  14.592  1.00  0.00    -0.271 OA
ENDBRANCH   1  25
TORSDOF 5
ENDMDL