MODEL 5
REMARK VINA RESULT: -7.251135660      2.470      3.265
REMARK  5 active torsions:
REMARK  status: ('A' for Active; 'I' for Inactive)
REMARK    1  A    between atoms: C1_2  and  N1_3
REMARK    2  A    between atoms: C2_5  and  C3_6
REMARK    3  A    between atoms: C3_6  and  C4_9
REMARK    4  A    between atoms: C4_9  and  C5_12
REMARK    5  A    between atoms: C12_20  and  C13_21
ROOT
HETATM    1  C3  UNL     1      25.807   5.757  11.395  1.00  0.00     0.329 C
HETATM    2  F1  UNL     1      24.945   4.736  11.087  1.00  0.00    -0.198 F
HETATM    3  F2  UNL     1      25.156   6.973  11.051  1.00  0.00    -0.198 F
ENDROOT
BRANCH   1   4
HETATM    4  C2  UNL     1      25.930   5.834  12.898  1.00  0.00     0.213 C
HETATM    5  N2  UNL     1      25.880   4.583  13.620  1.00  0.00    -0.122 NA
HETATM    6  N1  UNL     1      24.845   5.001  14.496  1.00  0.00    -0.254 N
HETATM    7  C12 UNL     1      24.549   6.021  13.521  1.00  0.00     0.234 C
BRANCH   6   8
HETATM    8  C1  UNL     1      24.399   4.544  15.742  1.00  0.00     0.368 C
HETATM    9  O1  UNL     1      24.775   5.072  16.833  1.00  0.00    -0.282 OA
ENDBRANCH   6   8
BRANCH   7  10
HETATM   10  C13 UNL     1      24.360   7.391  14.068  1.00  0.00     0.200 C
HETATM   11  O2  UNL     1      23.499   8.118  13.542  1.00  0.00    -0.646 OA
HETATM   12  O3  UNL     1      25.126   7.815  15.120  1.00  0.00    -0.646 OA
ENDBRANCH   7  10
ENDBRANCH   1   4
BRANCH   1  13
HETATM   13  C4  UNL     1      27.094   5.689  10.664  1.00  0.00     0.315 C
HETATM   14  F3  UNL     1      27.842   4.634  11.155  1.00  0.00    -0.199 F
HETATM   15  F4  UNL     1      26.818   5.304   9.330  1.00  0.00    -0.199 F
BRANCH  13  16
HETATM   16  C5  UNL     1      27.805   6.982  10.567  1.00  0.00     0.097 C
HETATM   17  C6  UNL     1      27.863   7.521   9.152  1.00  0.00     0.283 C
HETATM   18  N3  UNL     1      29.201   7.821   8.748  1.00  0.00     0.089 N
HETATM   19  C7  UNL     1      29.816   8.850   9.595  1.00  0.00     0.272 C
HETATM   20  C11 UNL     1      30.083   6.672   8.827  1.00  0.00     0.272 C
HETATM   21  C8  UNL     1      29.558   8.565  11.057  1.00  0.00     0.035 C
HETATM   22  C9  UNL     1      29.179   7.065  11.127  1.00  0.00     0.001 C
HETATM   23  C10 UNL     1      30.239   6.377  10.311  1.00  0.00     0.035 C
ENDBRANCH  13  16
ENDBRANCH   1  13
TORSDOF 5
ENDMDL