MODEL 2
REMARK VINA RESULT: -7.502238285      1.175      1.929
REMARK  5 active torsions:
REMARK  status: ('A' for Active; 'I' for Inactive)
REMARK    1  A    between atoms: C1_2  and  C2_4
REMARK    2  A    between atoms: C2_4  and  N2_5
REMARK       I    between atoms: N2_5  and  C3_7
REMARK    3  A    between atoms: C3_7  and  C4_9
REMARK    4  A    between atoms: C4_9  and  N3_11
REMARK    5  A    between atoms: C4_9  and  C9_17
ROOT
HETATM    1  N2  UNL     1      24.570   5.974  12.681  1.00  0.00    -0.317 N
ATOM      2  H2  UNL     1      23.816   6.441  12.177  1.00  0.00     0.166 HD
HETATM    3  C3  UNL     1      25.521   5.278  11.939  1.00  0.00     0.291 C
HETATM    4  O2  UNL     1      26.448   4.695  12.620  1.00  0.00    -0.267 OA
ENDROOT
BRANCH   3   5
HETATM    5  C4  UNL     1      25.569   5.144  10.449  1.00  0.00     0.356 C
HETATM    6  F1  UNL     1      24.626   6.112  10.025  1.00  0.00    -0.198 F
BRANCH   5   7
HETATM    7  N3  UNL     1      25.071   3.917   9.997  1.00  0.00    -0.339 N
HETATM    8  C5  UNL     1      24.002   3.336  10.729  1.00  0.00     0.152 C
HETATM    9  C6  UNL     1      23.241   2.387   9.827  1.00  0.00     0.188 C
HETATM   10  O3  UNL     1      23.268   2.742   8.504  1.00  0.00    -0.385 OA
HETATM   11  C7  UNL     1      24.538   2.705   7.944  1.00  0.00     0.212 C
HETATM   12  C8  UNL     1      25.591   3.198   8.935  1.00  0.00     0.088 C
ENDBRANCH   5   7
BRANCH   5  13
HETATM   13  C9  UNL     1      26.858   5.602   9.875  1.00  0.00     0.453 C
HETATM   14  F2  UNL     1      27.083   6.926  10.193  1.00  0.00    -0.165 F
HETATM   15  F3  UNL     1      26.848   5.551   8.499  1.00  0.00    -0.165 F
HETATM   16  F4  UNL     1      27.969   4.934  10.345  1.00  0.00    -0.165 F
ENDBRANCH   5  13
ENDBRANCH   3   5
BRANCH   1  17
HETATM   17  C2  UNL     1      24.587   6.072  14.116  1.00  0.00     0.216 C
HETATM   18  C10 UNL     1      25.886   6.608  14.651  1.00  0.00     0.073 C
HETATM   19  C11 UNL     1      25.573   8.059  14.908  1.00  0.00     0.032 C
HETATM   20  C12 UNL     1      24.087   8.127  14.855  1.00  0.00     0.171 C
HETATM   21  O4  UNL     1      23.578   6.883  14.613  1.00  0.00    -0.353 OA
BRANCH  17  22
HETATM   22  C1  UNL     1      24.377   4.732  14.699  1.00  0.00     0.287 C
HETATM   23  N1  UNL     1      25.283   4.317  15.728  1.00  0.00    -0.058 NA
HETATM   24  O1  UNL     1      23.490   3.931  14.382  1.00  0.00    -0.271 OA
ENDBRANCH  17  22
ENDBRANCH   1  17
TORSDOF 5
ENDMDL