MODEL 3
REMARK VINA RESULT: -5.989719711      3.769      5.134
REMARK  6 active torsions:
REMARK  status: ('A' for Active; 'I' for Inactive)
REMARK    1  A    between atoms: C2_2  and  O1_3
REMARK    2  A    between atoms: O1_3  and  C3_4
REMARK    3  A    between atoms: C4_5  and  O2_6
REMARK    4  A    between atoms: C5_8  and  C6_9
REMARK       I    between atoms: C6_9  and  N1_11
REMARK    5  A    between atoms: C11_17  and  O4_18
REMARK    6  A    between atoms: C11_17  and  C12_20
ROOT
HETATM    1  C3  UNL     1      24.534   6.372  13.672  1.00  0.00     0.393 C
HETATM    2  C4  UNL     1      24.907   5.175  12.784  1.00  0.00     0.193 C
HETATM    3  C5  UNL     1      25.099   5.852  11.447  1.00  0.00     0.147 C
HETATM    4  C9  UNL     1      25.763   7.150  11.854  1.00  0.00     0.285 C
HETATM    5  C10 UNL     1      24.987   8.356  11.444  1.00  0.00     0.275 C
HETATM    6  F1  UNL     1      25.627   9.253  10.625  1.00  0.00    -0.242 F
HETATM    7  C11 UNL     1      24.942   8.659  12.892  1.00  0.00     0.340 C
HETATM    8  N2  UNL     1      25.465   7.359  13.246  1.00  0.00     0.171 N
ENDROOT
BRANCH   3   9
HETATM    9  C6  UNL     1      25.904   5.104  10.489  1.00  0.00     0.228 C
HETATM   10  O3  UNL     1      27.149   5.269  10.455  1.00  0.00    -0.273 OA
HETATM   11  N1  UNL     1      25.320   4.193   9.589  1.00  0.00    -0.360 N
HETATM   12  C7  UNL     1      26.132   3.438   8.641  1.00  0.00     0.152 C
HETATM   13  C8  UNL     1      23.893   3.969   9.559  1.00  0.00     0.152 C
ENDBRANCH   3   9
BRANCH   2  14
HETATM   14  O2  UNL     1      26.105   4.685  13.299  1.00  0.00    -0.390 OA
ATOM     15  H2  UNL     1      26.280   5.201  14.077  1.00  0.00     0.210 HD
ENDBRANCH   2  14
BRANCH   1  16
HETATM   16  O1  UNL     1      24.754   6.069  15.007  1.00  0.00    -0.355 OA
BRANCH  16  17
HETATM   17  C2  UNL     1      23.570   6.149  15.737  1.00  0.00     0.166 C
HETATM   18  C1  UNL     1      22.874   4.834  15.858  1.00  0.00     0.033 C
ENDBRANCH  16  17
ENDBRANCH   1  16
BRANCH   7  19
HETATM   19  O4  UNL     1      23.639   8.921  13.306  1.00  0.00    -0.357 OA
ATOM     20  H4  UNL     1      23.452   8.493  14.134  1.00  0.00     0.213 HD
ENDBRANCH   7  19
BRANCH   7  21
HETATM   21  C12 UNL     1      25.861   9.740  13.398  1.00  0.00     0.334 C
HETATM   22  F2  UNL     1      26.134   9.626  14.742  1.00  0.00    -0.227 F
HETATM   23 CL1  UNL     1      25.197  11.364  13.080  1.00  0.00    -0.084 Cl
ENDBRANCH   7  21
TORSDOF 6
ENDMDL