MODEL 2
REMARK VINA RESULT: -8.079595804      1.953      2.521
REMARK  5 active torsions:
REMARK  status: ('A' for Active; 'I' for Inactive)
REMARK    1  A    between atoms: C2_3  and  C3_4
REMARK    2  A    between atoms: C3_4  and  C4_5
REMARK    3  A    between atoms: C3_4  and  N3_13
REMARK    4  A    between atoms: C4_5  and  N2_6
REMARK       I    between atoms: N2_6  and  C5_7
REMARK    5  A    between atoms: C5_7  and  C6_9
ROOT
HETATM    1  N1  UNL     1      26.292   4.762  16.181  1.00  0.00    -0.194 NA
HETATM    2  C1  UNL     1      25.480   5.310  15.500  1.00  0.00     0.105 C
HETATM    3  C2  UNL     1      24.505   5.903  14.605  1.00  0.00     0.259 C
HETATM    4  C11 UNL     1      23.324   6.160  15.513  1.00  0.00     0.100 C
HETATM    5  C12 UNL     1      22.908   4.663  15.839  1.00  0.00     0.199 C
HETATM    6  F4  UNL     1      21.542   4.637  16.171  1.00  0.00    -0.248 F
HETATM    7  C13 UNL     1      23.234   4.000  14.550  1.00  0.00     0.272 C
HETATM    8  N4  UNL     1      24.015   4.831  13.703  1.00  0.00    -0.045 N
ATOM      9  H41 UNL     1      24.751   4.341  13.195  1.00  0.00     0.279 HD
ATOM     10  H42 UNL     1      23.521   5.171  12.877  1.00  0.00     0.279 HD
ENDROOT
BRANCH   3  11
HETATM   11  C3  UNL     1      24.980   7.046  13.848  1.00  0.00     0.087 C
BRANCH  11  12
HETATM   12  C4  UNL     1      26.130   6.861  12.857  1.00  0.00     0.215 C
BRANCH  12  13
HETATM   13  N2  UNL     1      25.872   6.125  11.773  1.00  0.00    -0.374 NA
HETATM   14  C5  UNL     1      25.592   5.357  10.646  1.00  0.00     0.399 C
HETATM   15  O1  UNL     1      24.556   4.874  10.324  1.00  0.00    -0.247 OA
BRANCH  14  16
HETATM   16  C6  UNL     1      26.857   5.195   9.788  1.00  0.00     0.486 C
HETATM   17  F1  UNL     1      27.117   6.331   9.173  1.00  0.00    -0.161 F
HETATM   18  F2  UNL     1      26.625   4.166   8.914  1.00  0.00    -0.161 F
HETATM   19  F3  UNL     1      27.882   4.935  10.705  1.00  0.00    -0.161 F
ENDBRANCH  14  16
ENDBRANCH  12  13
ENDBRANCH  11  12
BRANCH  11  20
HETATM   20  N3  UNL     1      24.693   8.331  14.300  1.00  0.00    -0.375 N
HETATM   21  C7  UNL     1      25.595   9.122  15.032  1.00  0.00     0.149 C
HETATM   22  C8  UNL     1      24.704  10.031  15.922  1.00  0.00     0.187 C
HETATM   23  O2  UNL     1      23.793  10.690  15.187  1.00  0.00    -0.388 OA
HETATM   24  C9  UNL     1      23.980  10.583  13.841  1.00  0.00     0.187 C
HETATM   25  C10 UNL     1      23.844   9.102  13.418  1.00  0.00     0.149 C
ENDBRANCH  11  20
ENDBRANCH   3  11
TORSDOF 5
ENDMDL