MODEL 4
REMARK VINA RESULT: -6.504118626      1.756      5.515
REMARK  3 active torsions:
REMARK  status: ('A' for Active; 'I' for Inactive)
REMARK    1  A    between atoms: C2_2  and  C4_5
REMARK    2  A    between atoms: C4_5  and  N3_9
REMARK    3  A    between atoms: N3_9  and  C5_11
ROOT
HETATM    1  C1  UNL     1     -10.357 -44.081   9.205  1.00  0.00     0.033 C
HETATM    2  C2  UNL     1     -10.014 -43.643  10.632  1.00  0.00     0.155 C
HETATM    3  C3  UNL     1     -10.214 -42.203  10.749  1.00  0.00     0.071 C
HETATM    4  N1  UNL     1     -10.362 -41.037  10.841  1.00  0.00    -0.196 NA
ENDROOT
BRANCH   2   5
HETATM    5  C4  UNL     1      -8.591 -44.005  10.842  1.00  0.00     0.088 C
HETATM    6  N2  UNL     1      -8.270 -45.255  10.632  1.00  0.00    -0.388 N
ATOM      7  H22 UNL     1      -8.956 -45.951  10.340  1.00  0.00     0.157 HD
ATOM      8  H21 UNL     1      -7.292 -45.504  10.777  1.00  0.00     0.157 HD
BRANCH   5   9
HETATM    9  N3  UNL     1      -7.642 -43.042  11.246  1.00  0.00    -0.374 N
ATOM     10  H3  UNL     1      -7.341 -42.317  10.594  1.00  0.00     0.161 HD
BRANCH   9  11
HETATM   11  C5  UNL     1      -7.103 -43.081  12.564  1.00  0.00     0.082 C
HETATM   12  C6  UNL     1      -5.578 -43.197  12.442  1.00  0.00     0.025 C
HETATM   13  C7  UNL     1      -5.087 -43.418  13.872  1.00  0.00     0.002 C
HETATM   14  C8  UNL     1      -5.315 -42.104  14.597  1.00  0.00     0.000 C
HETATM   15  C9  UNL     1      -6.795 -41.827  14.685  1.00  0.00     0.002 C
HETATM   16  C10 UNL     1      -7.475 -41.847  13.346  1.00  0.00     0.025 C
ENDBRANCH   9  11
ENDBRANCH   5   9
ENDBRANCH   2   5
TORSDOF 3
ENDMDL