MODEL 1
REMARK VINA RESULT: -6.120974660      0.000      0.000
REMARK  2 active torsions:
REMARK  status: ('A' for Active; 'I' for Inactive)
REMARK    1  A    between atoms: C2_2  and  N1_3
REMARK       I    between atoms: N1_3  and  C3_5
REMARK       I    between atoms: C3_5  and  N2_7
REMARK    2  A    between atoms: N2_7  and  C4_9
ROOT
HETATM    1  N1  UNL     1      -5.685 -44.449  14.002  1.00  0.00    -0.343 N
ATOM      2  H1  UNL     1      -6.325 -45.025  14.549  1.00  0.00     0.164 HD
HETATM    3  C3  UNL     1      -6.063 -43.968  12.727  1.00  0.00     0.316 C
HETATM    4  O1  UNL     1      -5.287 -43.255  12.037  1.00  0.00    -0.247 OA
HETATM    5  N2  UNL     1      -7.335 -44.268  12.166  1.00  0.00    -0.339 N
ATOM      6  H2  UNL     1      -7.985 -44.844  12.702  1.00  0.00     0.164 HD
ENDROOT
BRANCH   5   7
HETATM    7  C4  UNL     1      -7.740 -43.786  10.863  1.00  0.00     0.086 C
HETATM    8  C5  UNL     1      -8.912 -42.887  10.938  1.00  0.00     0.025 C
HETATM    9  C6  UNL     1     -10.021 -43.153   9.989  1.00  0.00     0.002 C
HETATM   10  C7  UNL     1      -9.690 -43.831   8.728  1.00  0.00     0.000 C
HETATM   11  C8  UNL     1      -8.293 -44.338   8.597  1.00  0.00     0.002 C
HETATM   12  C9  UNL     1      -7.957 -44.986   9.947  1.00  0.00     0.025 C
ENDBRANCH   5   7
BRANCH   1  13
HETATM   13  C2  UNL     1      -4.375 -44.109  14.522  1.00  0.00     0.120 C
HETATM   14  C1  UNL     1      -4.563 -42.954  15.487  1.00  0.00     0.026 C
ENDBRANCH   1  13
TORSDOF 2
ENDMDL