MODEL 2
REMARK VINA RESULT: -4.979851831      2.568      3.468
REMARK  5 active torsions:
REMARK  status: ('A' for Active; 'I' for Inactive)
REMARK    1  A    between atoms: N1_2  and  C2_4
REMARK    2  A    between atoms: C2_4  and  N2_6
REMARK    3  A    between atoms: N2_6  and  C3_8
REMARK    4  A    between atoms: C3_8  and  C4_12
REMARK    5  A    between atoms: C4_12  and  C5_13
ROOT
HETATM    1  C3  UNL     1      -8.315 -44.780  10.585  1.00  0.00     0.077 C
HETATM    2  N3  UNL     1      -7.682 -45.252   9.578  1.00  0.00    -0.389 N
ATOM      3  H31 UNL     1      -8.203 -45.506   8.739  1.00  0.00     0.157 HD
ATOM      4  H32 UNL     1      -6.670 -45.370   9.631  1.00  0.00     0.157 HD
ENDROOT
BRANCH   1   5
HETATM    5  N2  UNL     1      -7.590 -44.426  11.754  1.00  0.00    -0.323 N
ATOM      6  H2  UNL     1      -7.485 -45.125  12.490  1.00  0.00     0.169 HD
BRANCH   5   7
HETATM    7  C2  UNL     1      -7.007 -43.153  11.946  1.00  0.00     0.172 C
HETATM    8  S1  UNL     1      -7.930 -41.938  12.505  1.00  0.00    -0.041 SA
BRANCH   7   9
HETATM    9  N1  UNL     1      -5.647 -42.896  11.671  1.00  0.00    -0.371 N
HETATM   10  C1  UNL     1      -5.259 -42.526  10.304  1.00  0.00     0.148 C
ATOM     11  H1  UNL     1      -4.946 -42.966  12.409  1.00  0.00     0.161 HD
ENDBRANCH   7   9
ENDBRANCH   5   7
ENDBRANCH   1   5
BRANCH   1  12
HETATM   12  C4  UNL     1      -9.768 -44.611  10.510  1.00  0.00     0.079 C
BRANCH  12  13
HETATM   13  C5  UNL     1     -10.215 -43.626   9.473  1.00  0.00    -0.016 C
HETATM   14  C6  UNL     1     -10.843 -42.395  10.024  1.00  0.00     0.010 C
HETATM   15  C7  UNL     1     -11.137 -44.223   8.448  1.00  0.00     0.010 C
ENDBRANCH  12  13
ENDBRANCH   1  12
TORSDOF 5
ENDMDL