MODEL 3
REMARK VINA RESULT: -6.392164781      1.886      2.464
REMARK  1 active torsions:
REMARK  status: ('A' for Active; 'I' for Inactive)
REMARK       I    between atoms: C2_2  and  N1_4
REMARK       I    between atoms: N1_4  and  C3_6
REMARK       I    between atoms: C3_6  and  N2_7
REMARK       I    between atoms: C3_6  and  N3_11
REMARK    1  A    between atoms: N3_11  and  C4_13
ROOT
HETATM    1  C1  UNL     1      -7.483 -45.071   9.085  1.00  0.00     0.117 C
HETATM    2  C2  UNL     1      -8.235 -44.551  10.230  1.00  0.00     0.216 C
HETATM    3  O1  UNL     1      -8.975 -45.337  10.875  1.00  0.00    -0.274 OA
HETATM    4  N1  UNL     1      -8.187 -43.198  10.668  1.00  0.00    -0.318 N
ATOM      5  H1  UNL     1      -7.594 -42.544  10.159  1.00  0.00     0.166 HD
HETATM    6  C3  UNL     1      -8.935 -42.708  11.798  1.00  0.00     0.385 C
HETATM    7  N2  UNL     1      -9.948 -41.804  11.210  1.00  0.00    -0.041 N
ATOM      8  H21 UNL     1     -10.478 -41.457  12.009  1.00  0.00     0.279 HD
ATOM      9  H22 UNL     1     -10.522 -42.238  10.487  1.00  0.00     0.279 HD
ATOM     10  H23 UNL     1      -9.557 -41.070  10.619  1.00  0.00     0.279 HD
HETATM   11  N3  UNL     1      -8.189 -42.022  12.794  1.00  0.00    -0.376 N
ATOM     12  H3  UNL     1      -8.362 -41.037  12.991  1.00  0.00     0.157 HD
ENDROOT
BRANCH  11  13
HETATM   13  C4  UNL     1      -7.197 -42.740  13.506  1.00  0.00     0.080 C
HETATM   14  C5  UNL     1      -5.798 -42.218  13.430  1.00  0.00     0.025 C
HETATM   15  C6  UNL     1      -5.127 -42.289  14.812  1.00  0.00     0.002 C
HETATM   16  C7  UNL     1      -5.214 -43.766  15.204  1.00  0.00     0.000 C
HETATM   17  C8  UNL     1      -6.664 -43.960  15.639  1.00  0.00     0.002 C
HETATM   18  C9  UNL     1      -7.601 -43.049  14.934  1.00  0.00     0.025 C
ENDBRANCH  11  13
TORSDOF 1
ENDMDL