MODEL 2
REMARK VINA RESULT: -6.029356219      1.662      5.371
REMARK  2 active torsions:
REMARK  status: ('A' for Active; 'I' for Inactive)
REMARK    1  A    between atoms: C5_5  and  N1_6
REMARK    2  A    between atoms: N1_6  and  C6_9
ROOT
HETATM    1  N1  UNL     1      -7.415 -44.224  11.999  1.00  0.00    -0.054 N
ATOM      2  H11 UNL     1      -8.320 -44.181  12.469  1.00  0.00     0.279 HD
ATOM      3  H12 UNL     1      -7.213 -45.202  12.208  1.00  0.00     0.279 HD
ENDROOT
BRANCH   1   4
HETATM    4  C5  UNL     1      -6.417 -43.283  12.553  1.00  0.00     0.255 C
HETATM    5  C4  UNL     1      -7.250 -42.166  13.274  1.00  0.00     0.071 C
HETATM    6  C3  UNL     1      -6.668 -41.813  14.632  1.00  0.00    -0.028 C
HETATM    7  C2  UNL     1      -6.433 -42.773  15.670  1.00  0.00    -0.030 C
HETATM    8  C1  UNL     1      -5.095 -43.503  15.829  1.00  0.00     0.038 C
HETATM    9  C10 UNL     1      -4.733 -44.322  14.541  1.00  0.00     0.086 C
HETATM   10  C9  UNL     1      -5.560 -43.829  13.521  1.00  0.00    -0.150 C
ENDBRANCH   1   4
BRANCH   1  11
HETATM   11  C6  UNL     1      -7.488 -43.947  10.607  1.00  0.00     0.238 C
HETATM   12  C7  UNL     1      -7.878 -45.139   9.735  1.00  0.00     0.267 C
HETATM   13  N2  UNL     1      -8.568 -44.182   8.876  1.00  0.00    -0.071 N
HETATM   14  C8  UNL     1      -8.797 -43.394  10.086  1.00  0.00     0.267 C
ATOM     15  H22 UNL     1      -8.115 -43.780   8.055  1.00  0.00     0.277 HD
ATOM     16  H21 UNL     1      -9.338 -44.468   8.272  1.00  0.00     0.277 HD
ENDBRANCH   1  11
TORSDOF 2
ENDMDL