MODEL 4
REMARK VINA RESULT: -5.709577711      3.736      4.567
REMARK  5 active torsions:
REMARK  status: ('A' for Active; 'I' for Inactive)
REMARK    1  A    between atoms: C2_2  and  C3_3
REMARK    2  A    between atoms: C7_7  and  N1_8
REMARK    3  A    between atoms: N1_8  and  C8_10
REMARK    4  A    between atoms: C8_10  and  O1_11
REMARK    5  A    between atoms: N2_13  and  O2_15
ROOT
HETATM    1  N1  UNL     1      -7.205 -44.208  12.167  1.00  0.00    -0.350 N
ATOM      2  H1  UNL     1      -7.910 -44.700  12.716  1.00  0.00     0.163 HD
ENDROOT
BRANCH   1   3
HETATM    3  C7  UNL     1      -7.491 -43.826  10.814  1.00  0.00     0.092 C
HETATM    4  C3  UNL     1      -8.588 -42.823  10.689  1.00  0.00     0.030 C
HETATM    5  C4  UNL     1      -9.762 -43.522  10.094  1.00  0.00     0.010 C
HETATM    6  C5  UNL     1      -9.075 -44.535   9.170  1.00  0.00     0.003 C
HETATM    7  C6  UNL     1      -7.983 -45.049  10.076  1.00  0.00     0.026 C
BRANCH   4   8
HETATM    8  C2  UNL     1      -8.879 -42.143  11.969  1.00  0.00    -0.030 C
HETATM    9  C1  UNL     1      -8.452 -40.971  12.327  1.00  0.00     0.007 C
ENDBRANCH   4   8
ENDBRANCH   1   3
BRANCH   1  10
HETATM   10  C8  UNL     1      -5.954 -43.908  12.741  1.00  0.00     0.237 C
HETATM   11  N2  UNL     1      -5.662 -44.278  13.934  1.00  0.00    -0.233 N
ATOM     12  H2  UNL     1      -4.753 -44.054  14.338  1.00  0.00     0.198 HD
BRANCH  10  13
HETATM   13  O1  UNL     1      -5.012 -43.204  12.024  1.00  0.00    -0.331 OA
ATOM     14  H1  UNL     1      -5.044 -43.190  11.075  1.00  0.00     0.221 HD
ENDBRANCH  10  13
BRANCH  11  15
HETATM   15  O2  UNL     1      -6.592 -44.981  14.659  1.00  0.00    -0.287 OA
ATOM     16  H2  UNL     1      -7.085 -44.530  15.335  1.00  0.00     0.244 HD
ENDBRANCH  11  15
ENDBRANCH   1  10
TORSDOF 5
ENDMDL