MODEL 5
REMARK VINA RESULT: -6.121520447      0.889      1.652
REMARK  2 active torsions:
REMARK  status: ('A' for Active; 'I' for Inactive)
REMARK    1  A    between atoms: C4_4  and  N1_5
REMARK    2  A    between atoms: N1_5  and  C5_7
ROOT
HETATM    1  N1  UNL     1      -8.537 -43.542  11.682  1.00  0.00    -0.391 N
ATOM      2  H1  UNL     1      -9.165 -42.950  12.226  1.00  0.00     0.155 HD
ENDROOT
BRANCH   1   3
HETATM    3  C4  UNL     1      -9.001 -44.307  10.543  1.00  0.00     0.078 C
HETATM    4  C3  UNL     1      -9.823 -43.422   9.676  1.00  0.00     0.024 C
HETATM    5  C2  UNL     1     -10.217 -44.183   8.445  1.00  0.00     0.002 C
HETATM    6  C1  UNL     1      -9.031 -44.594   7.649  1.00  0.00     0.000 C
HETATM    7  C10 UNL     1      -7.839 -45.035   8.397  1.00  0.00     0.002 C
HETATM    8  C9  UNL     1      -7.883 -45.031   9.859  1.00  0.00     0.024 C
ENDBRANCH   1   3
BRANCH   1   9
HETATM    9  C5  UNL     1      -7.160 -43.663  11.995  1.00  0.00     0.280 C
HETATM   10  C6  UNL     1      -6.511 -42.289  12.138  1.00  0.00     0.055 C
HETATM   11  C7  UNL     1      -5.591 -42.403  13.352  1.00  0.00     0.031 C
HETATM   12  C8  UNL     1      -5.460 -43.925  13.470  1.00  0.00     0.235 C
HETATM   13  N2  UNL     1      -6.872 -44.290  13.273  1.00  0.00    -0.055 N
ATOM     14  H22 UNL     1      -7.498 -44.031  14.035  1.00  0.00     0.279 HD
ATOM     15  H21 UNL     1      -7.074 -45.289  13.323  1.00  0.00     0.279 HD
ENDBRANCH   1   9
TORSDOF 2
ENDMDL