MODEL 5
REMARK VINA RESULT: -5.906105828      1.381      1.751
REMARK  2 active torsions:
REMARK  status: ('A' for Active; 'I' for Inactive)
REMARK    1  A    between atoms: N1_2  and  N2_3
REMARK       I    between atoms: N2_3  and  C2_5
REMARK       I    between atoms: C2_5  and  N3_7
REMARK    2  A    between atoms: N3_7  and  C3_9
ROOT
HETATM    1  N2  UNL     1      -6.099 -44.080  12.610  1.00  0.00    -0.256 N
ATOM      2  H2  UNL     1      -6.648 -44.807  13.067  1.00  0.00     0.187 HD
HETATM    3  C2  UNL     1      -6.610 -43.483  11.415  1.00  0.00     0.332 C
HETATM    4  O1  UNL     1      -5.883 -42.603  10.906  1.00  0.00    -0.246 OA
HETATM    5  N3  UNL     1      -7.860 -43.885  10.873  1.00  0.00    -0.337 N
ATOM      6  H3  UNL     1      -8.370 -44.612  11.374  1.00  0.00     0.164 HD
ENDROOT
BRANCH   5   7
HETATM    7  C3  UNL     1      -8.465 -43.365   9.693  1.00  0.00     0.086 C
HETATM    8  C4  UNL     1      -8.127 -44.147   8.446  1.00  0.00     0.025 C
HETATM    9  C5  UNL     1      -9.170 -43.798   7.411  1.00  0.00     0.002 C
HETATM   10  C6  UNL     1     -10.444 -44.508   7.832  1.00  0.00     0.000 C
HETATM   11  C7  UNL     1     -10.810 -44.157   9.253  1.00  0.00     0.002 C
HETATM   12  C8  UNL     1      -9.939 -43.077   9.829  1.00  0.00     0.025 C
ENDBRANCH   5   7
BRANCH   1  13
HETATM   13  N1  UNL     1      -4.878 -43.706  13.176  1.00  0.00    -0.142 NA
HETATM   14  C1  UNL     1      -4.700 -44.472  14.386  1.00  0.00     0.159 C
ENDBRANCH   1  13
TORSDOF 2
ENDMDL