MODEL 2
REMARK VINA RESULT: -5.790707903      1.230      1.315
REMARK  3 active torsions:
REMARK  status: ('A' for Active; 'I' for Inactive)
REMARK    1  A    between atoms: C2_2  and  N1_4
REMARK       I    between atoms: N1_4  and  C4_6
REMARK       I    between atoms: C4_6  and  N3_11
REMARK    2  A    between atoms: N2_7  and  O1_9
REMARK    3  A    between atoms: N3_11  and  C5_13
ROOT
HETATM    1  N1  UNL     1      -6.954 -43.892  12.862  1.00  0.00    -0.221 N
ATOM      2  H1  UNL     1      -7.047 -44.854  12.535  1.00  0.00     0.178 HD
HETATM    3  C4  UNL     1      -7.614 -42.898  12.110  1.00  0.00     0.694 C
HETATM    4  N2  UNL     1      -7.802 -41.750  12.624  1.00  0.00    -0.099 N
ATOM      5  H2  UNL     1      -7.458 -41.604  13.574  1.00  0.00     0.213 HD
HETATM    6  N3  UNL     1      -8.077 -43.125  10.806  1.00  0.00    -0.220 N
ATOM      7  H3  UNL     1      -7.957 -42.365  10.136  1.00  0.00     0.178 HD
ENDROOT
BRANCH   1   8
HETATM    8  C2  UNL     1      -6.173 -43.686  14.029  1.00  0.00     0.091 C
HETATM    9  C1  UNL     1      -4.967 -44.575  14.159  1.00  0.00     0.032 C
HETATM   10  C3  UNL     1      -6.986 -43.868  15.314  1.00  0.00     0.032 C
ENDBRANCH   1   8
BRANCH   4  11
HETATM   11  O1  UNL     1      -8.421 -40.695  12.019  1.00  0.00    -0.276 OA
ATOM     12  H1  UNL     1      -8.045 -40.140  11.346  1.00  0.00     0.245 HD
ENDBRANCH   4  11
BRANCH   6  13
HETATM   13  C5  UNL     1      -8.702 -44.321  10.322  1.00  0.00     0.099 C
HETATM   14  C6  UNL     1      -9.545 -44.177   9.091  1.00  0.00     0.026 C
HETATM   15  C7  UNL     1      -8.445 -44.779   8.245  1.00  0.00     0.004 C
HETATM   16  C8  UNL     1      -7.779 -45.222   9.530  1.00  0.00     0.026 C
ENDBRANCH   6  13
TORSDOF 3
ENDMDL