MODEL 5
REMARK VINA RESULT: -5.954528822      1.882      2.060
REMARK  2 active torsions:
REMARK  status: ('A' for Active; 'I' for Inactive)
REMARK       I    between atoms: C1_2  and  N1_3
REMARK       I    between atoms: C1_2  and  N2_10
REMARK    1  A    between atoms: N1_3  and  C2_5
REMARK    2  A    between atoms: N2_10  and  C7_12
ROOT
HETATM    1  O1  UNL     1      -5.258 -42.611  12.532  1.00  0.00    -0.247 OA
HETATM    2  C1  UNL     1      -5.864 -43.679  12.829  1.00  0.00     0.316 C
HETATM    3  N1  UNL     1      -7.051 -44.079  12.173  1.00  0.00    -0.339 N
ATOM      4  H1  UNL     1      -7.509 -44.948  12.444  1.00  0.00     0.164 HD
HETATM    5  N2  UNL     1      -5.317 -44.487  13.859  1.00  0.00    -0.339 N
ATOM      6  H2  UNL     1      -5.789 -45.354  14.117  1.00  0.00     0.164 HD
ENDROOT
BRANCH   3   7
HETATM    7  C2  UNL     1      -7.617 -43.276  11.130  1.00  0.00     0.086 C
HETATM    8  C3  UNL     1      -9.121 -43.589  11.104  1.00  0.00     0.025 C
HETATM    9  C4  UNL     1      -9.134 -44.980  10.546  1.00  0.00     0.002 C
HETATM   10  C5  UNL     1      -7.867 -45.176   9.776  1.00  0.00     0.002 C
HETATM   11  C6  UNL     1      -7.240 -43.805   9.741  1.00  0.00     0.025 C
ENDBRANCH   3   7
BRANCH   5  12
HETATM   12  C7  UNL     1      -4.114 -44.110  14.545  1.00  0.00     0.086 A
HETATM   13  C8  UNL     1      -4.001 -44.446  15.998  1.00  0.00     0.027 A
HETATM   14  C9  UNL     1      -3.163 -45.195  15.009  1.00  0.00     0.027 A
ENDBRANCH   5  12
TORSDOF 2
ENDMDL