MODEL 5
REMARK VINA RESULT: -8.389547937      1.236      2.294
REMARK  6 active torsions:
REMARK  status: ('A' for Active; 'I' for Inactive)
REMARK    1  A    between atoms: N1_2  and  C2_4
REMARK    2  A    between atoms: C4_6  and  S1_7
REMARK    3  A    between atoms: C6_11  and  C7_12
REMARK    4  A    between atoms: C7_12  and  N2_13
REMARK    5  A    between atoms: N3_16  and  C10_17
REMARK    6  A    between atoms: C10_17  and  C11_18
ROOT
HETATM    1  N2  UNL     1     -21.189   2.498  -7.786  1.00  0.00    -0.385 N
HETATM    2  C8  UNL     1     -21.097   2.717  -6.454  1.00  0.00     0.152 C
HETATM    3  C9  UNL     1     -19.640   3.253  -6.236  1.00  0.00     0.292 C
HETATM    4  N3  UNL     1     -19.698   4.671  -6.584  1.00  0.00     0.095 N
HETATM    5  C17 UNL     1     -20.684   4.846  -7.636  1.00  0.00     0.292 C
HETATM    6  C18 UNL     1     -20.708   3.658  -8.573  1.00  0.00     0.152 C
ENDROOT
BRANCH   1   7
HETATM    7  C7  UNL     1     -22.074   1.779  -8.569  1.00  0.00     0.106 C
BRANCH   7   8
HETATM    8  C6  UNL     1     -22.177   0.310  -8.395  1.00  0.00     0.043 A
HETATM    9  C4  UNL     1     -23.009  -0.411  -7.585  1.00  0.00     0.080 A
HETATM   10  C3  UNL     1     -22.712  -1.717  -7.360  1.00  0.00     0.062 A
HETATM   11  C2  UNL     1     -21.593  -2.226  -7.956  1.00  0.00     0.075 A
HETATM   12  S2  UNL     1     -20.998  -0.829  -8.836  1.00  0.00    -0.070 SA
BRANCH   9  13
HETATM   13  S1  UNL     1     -24.445   0.379  -6.865  1.00  0.00     0.173 S
HETATM   14  C5  UNL     1     -24.004   1.343  -5.448  1.00  0.00     0.167 C
HETATM   15  O1  UNL     1     -25.073   1.283  -7.934  1.00  0.00    -0.223 OA
HETATM   16  O2  UNL     1     -25.489  -0.597  -6.486  1.00  0.00    -0.223 OA
ENDBRANCH   9  13
BRANCH  11  17
HETATM   17  N1  UNL     1     -20.947  -3.494  -7.817  1.00  0.00    -0.370 N
HETATM   18  C1  UNL     1     -21.369  -4.557  -8.263  1.00  0.00     0.118 C
ATOM     19  H1  UNL     1     -20.065  -3.517  -7.305  1.00  0.00     0.165 HD
ENDBRANCH  11  17
ENDBRANCH   7   8
ENDBRANCH   1   7
BRANCH   4  20
HETATM   20  C10 UNL     1     -18.431   5.124  -7.138  1.00  0.00     0.311 C
BRANCH  20  21
HETATM   21  C11 UNL     1     -18.500   6.629  -7.209  1.00  0.00    -0.027 A
HETATM   22  C12 UNL     1     -18.310   7.246  -5.969  1.00  0.00     0.032 A
HETATM   23  C13 UNL     1     -18.378   8.632  -5.947  1.00  0.00     0.036 A
HETATM   24 CL1  UNL     1     -18.142   9.437  -4.406  1.00  0.00    -0.084 Cl
HETATM   25  C14 UNL     1     -18.613   9.321  -7.107  1.00  0.00     0.047 A
HETATM   26  C15 UNL     1     -18.800   8.719  -8.341  1.00  0.00     0.036 A
HETATM   27 CL2  UNL     1     -19.098   9.697  -9.745  1.00  0.00    -0.084 Cl
HETATM   28  C16 UNL     1     -18.730   7.339  -8.353  1.00  0.00     0.032 A
ENDBRANCH  20  21
ENDBRANCH   4  20
TORSDOF 6
ENDMDL