MODEL 5
REMARK VINA RESULT: -8.903585285      2.894      3.545
REMARK  7 active torsions:
REMARK  status: ('A' for Active; 'I' for Inactive)
REMARK    1  A    between atoms: C2_2  and  C3_3
REMARK    2  A    between atoms: C6_6  and  S1_7
REMARK    3  A    between atoms: S1_7  and  C7_8
REMARK    4  A    between atoms: C7_8  and  C8_9
REMARK       I    between atoms: C8_9  and  N1_11
REMARK    5  A    between atoms: C11_14  and  C12_15
REMARK    6  A    between atoms: C12_15  and  C13_17
REMARK    7  A    between atoms: C16_23  and  C17_24
ROOT
HETATM    1  C3  UNL     1     -19.468   4.936  -7.642  1.00  0.00    -0.015 A
HETATM    2  C4  UNL     1     -19.447   4.245  -8.821  1.00  0.00     0.031 A
HETATM    3  C5  UNL     1     -19.776   4.923  -9.946  1.00  0.00     0.032 A
HETATM    4  C6  UNL     1     -19.821   4.402 -11.257  1.00  0.00     0.084 A
HETATM    5  N2  UNL     1     -20.174   5.213 -12.260  1.00  0.00    -0.339 N
ATOM      6  H2  UNL     1     -20.201   4.814 -13.198  1.00  0.00     0.168 HD
HETATM    7  C16 UNL     1     -20.494   6.502 -12.134  1.00  0.00     0.096 A
HETATM    8  N3  UNL     1     -20.453   7.007 -10.890  1.00  0.00    -0.339 N
ATOM      9  H3  UNL     1     -20.691   7.988 -10.744  1.00  0.00     0.168 HD
HETATM   10  C18 UNL     1     -20.101   6.239  -9.809  1.00  0.00     0.088 A
HETATM   11  S2  UNL     1     -19.943   6.502  -8.132  1.00  0.00    -0.076 SA
ENDROOT
BRANCH   4  12
HETATM   12  S1  UNL     1     -19.377   2.714 -11.625  1.00  0.00    -0.102 SA
BRANCH  12  13
HETATM   13  C7  UNL     1     -20.758   1.602 -11.765  1.00  0.00     0.183 C
BRANCH  13  14
HETATM   14  C8  UNL     1     -20.861   0.576 -10.734  1.00  0.00     0.229 C
HETATM   15  O1  UNL     1     -20.123  -0.428 -10.824  1.00  0.00    -0.273 OA
HETATM   16  N1  UNL     1     -21.762   0.656  -9.624  1.00  0.00    -0.351 N
HETATM   17  C9  UNL     1     -22.572   1.844  -9.498  1.00  0.00     0.126 C
HETATM   18  C15 UNL     1     -21.817  -0.447  -8.720  1.00  0.00     0.126 C
HETATM   19  C10 UNL     1     -22.880   2.077  -8.021  1.00  0.00     0.032 C
HETATM   20  C11 UNL     1     -23.625   0.835  -7.537  1.00  0.00     0.059 C
HETATM   21  C14 UNL     1     -22.680  -0.322  -7.527  1.00  0.00     0.032 C
BRANCH  20  22
HETATM   22  C12 UNL     1     -24.220   1.077  -6.218  1.00  0.00     0.144 C
HETATM   23  O2  UNL     1     -25.440   1.008  -6.073  1.00  0.00    -0.296 OA
BRANCH  22  24
HETATM   24  C13 UNL     1     -23.415   1.411  -5.012  1.00  0.00     0.193 C
HETATM   25 CL1  UNL     1     -24.426   1.399  -3.548  1.00  0.00    -0.123 Cl
ENDBRANCH  22  24
ENDBRANCH  20  22
ENDBRANCH  13  14
ENDBRANCH  12  13
ENDBRANCH   4  12
BRANCH   7  26
HETATM   26  C17 UNL     1     -20.863   7.287 -13.331  1.00  0.00     0.191 C
HETATM   27 CL2  UNL     1     -22.169   8.408 -12.938  1.00  0.00    -0.122 Cl
ENDBRANCH   7  26
BRANCH   1  28
HETATM   28  C2  UNL     1     -19.140   4.435  -6.255  1.00  0.00     0.042 C
HETATM   29  C1  UNL     1     -20.067   3.317  -5.930  1.00  0.00     0.010 C
ENDBRANCH   1  28
TORSDOF 7
ENDMDL