MODEL 2
REMARK VINA RESULT: -7.821853283      2.558      3.347
REMARK  8 active torsions:
REMARK  status: ('A' for Active; 'I' for Inactive)
REMARK    1  A    between atoms: S1_2  and  C1_4
REMARK    2  A    between atoms: S1_2  and  N1_21
REMARK    3  A    between atoms: C1_4  and  S2_5
REMARK    4  A    between atoms: S2_5  and  C2_6
REMARK    5  A    between atoms: C2_6  and  C3_7
REMARK    6  A    between atoms: C2_6  and  C7_14
REMARK    7  A    between atoms: C3_7  and  S3_8
REMARK    8  A    between atoms: S3_8  and  C4_9
ROOT
HETATM    1  C2  UNL     1     -19.228   4.740  -7.415  1.00  0.00     0.000 C
ENDROOT
BRANCH   1   2
HETATM    2  S2  UNL     1     -20.910   4.146  -7.421  1.00  0.00    -0.116 SA
BRANCH   2   3
HETATM    3  C1  UNL     1     -20.965   2.285  -7.514  1.00  0.00     0.236 C
BRANCH   3   4
HETATM    4  S1  UNL     1     -22.202   1.655  -6.460  1.00  0.00     0.220 S
HETATM    5  O1  UNL     1     -22.317   2.353  -5.133  1.00  0.00    -0.210 OA
HETATM    6  O2  UNL     1     -22.101   0.171  -6.162  1.00  0.00    -0.210 OA
BRANCH   4   7
HETATM    7  N1  UNL     1     -23.767   1.792  -7.246  1.00  0.00    -0.204 NA
HETATM    8  C13 UNL     1     -24.502   0.575  -7.252  1.00  0.00     0.145 C
HETATM    9  C14 UNL     1     -24.019   0.296  -8.682  1.00  0.00     0.198 C
HETATM   10  F1  UNL     1     -25.001  -0.010  -9.581  1.00  0.00    -0.247 F
HETATM   11  C15 UNL     1     -23.617   1.754  -8.687  1.00  0.00     0.145 C
ENDBRANCH   4   7
ENDBRANCH   3   4
ENDBRANCH   2   3
ENDBRANCH   1   2
BRANCH   1  12
HETATM   12  C3  UNL     1     -18.507   4.924  -8.672  1.00  0.00     0.121 C
BRANCH  12  13
HETATM   13  S3  UNL     1     -19.477   5.012 -10.187  1.00  0.00    -0.148 SA
BRANCH  13  14
HETATM   14  C4  UNL     1     -19.658   6.783 -10.559  1.00  0.00     0.120 C
HETATM   15  C5  UNL     1     -20.555   7.449  -9.596  1.00  0.00     0.037 C
HETATM   16  C6  UNL     1     -20.526   8.947  -9.917  1.00  0.00     0.088 C
HETATM   17  S4  UNL     1     -21.301   8.975 -11.592  1.00  0.00    -0.096 SA
HETATM   18  S5  UNL     1     -20.552   7.021 -12.153  1.00  0.00    -0.082 SA
ENDBRANCH  13  14
ENDBRANCH  12  13
ENDBRANCH   1  12
BRANCH   1  19
HETATM   19  C7  UNL     1     -18.862   5.632  -6.287  1.00  0.00    -0.001 A
HETATM   20  C8  UNL     1     -18.593   6.979  -6.522  1.00  0.00     0.014 A
HETATM   21  C9  UNL     1     -18.103   7.857  -5.552  1.00  0.00     0.001 A
HETATM   22  C10 UNL     1     -17.888   7.295  -4.279  1.00  0.00     0.002 A
HETATM   23  C11 UNL     1     -18.155   5.954  -4.039  1.00  0.00     0.024 A
HETATM   24  C12 UNL     1     -18.633   5.131  -5.016  1.00  0.00     0.045 A
HETATM   25 CL1  UNL     1     -18.992   3.411  -4.754  1.00  0.00    -0.083 Cl
ENDBRANCH   1  19
TORSDOF 8
ENDMDL