MODEL 1
REMARK VINA RESULT: -8.790457407      0.000      0.000
REMARK  7 active torsions:
REMARK  status: ('A' for Active; 'I' for Inactive)
REMARK    1  A    between atoms: O1_2  and  C2_3
REMARK    2  A    between atoms: C2_3  and  C3_4
REMARK    3  A    between atoms: N1_7  and  C6_8
REMARK    4  A    between atoms: C6_8  and  C7_9
REMARK    5  A    between atoms: C7_9  and  C8_10
REMARK    6  A    between atoms: C16_24  and  C17_25
REMARK    7  A    between atoms: C17_25  and  C18_26
ROOT
HETATM    1  C3  UNL     1     -21.714   1.690  -6.980  1.00  0.00    -0.001 C
HETATM    2  C4  UNL     1     -20.773   2.660  -6.967  1.00  0.00     0.034 C
HETATM    3  C5  UNL     1     -20.477   3.321  -5.695  1.00  0.00     0.070 C
HETATM    4  N1  UNL     1     -20.092   3.090  -8.147  1.00  0.00    -0.287 N
HETATM    5  N2  UNL     1     -20.425   2.470  -9.362  1.00  0.00    -0.227 N
HETATM    6  C13 UNL     1     -21.352   1.502  -9.409  1.00  0.00     0.136 A
HETATM    7  N3  UNL     1     -21.509   1.095 -10.705  1.00  0.00    -0.329 N
ATOM      8  H3  UNL     1     -22.155   0.369 -11.015  1.00  0.00     0.168 HD
HETATM    9  C14 UNL     1     -20.710   1.771 -11.492  1.00  0.00     0.141 A
HETATM   10 CL1  UNL     1     -20.468   1.694 -13.220  1.00  0.00    -0.061 Cl
HETATM   11  C15 UNL     1     -20.012   2.649 -10.653  1.00  0.00     0.143 A
HETATM   12 BR1  UNL     1     -18.694   3.852 -11.323  1.00  0.00    -0.026 Br
HETATM   13  C16 UNL     1     -22.018   0.976  -8.187  1.00  0.00     0.001 C
ENDROOT
BRANCH   4  14
HETATM   14  C6  UNL     1     -19.092   4.107  -8.082  1.00  0.00     0.152 C
BRANCH  14  15
HETATM   15  C7  UNL     1     -19.545   5.494  -8.428  1.00  0.00     0.053 C
BRANCH  15  16
HETATM   16  C8  UNL     1     -19.394   6.386  -7.188  1.00  0.00     0.123 C
HETATM   17  C9  UNL     1     -18.163   6.027  -6.414  1.00  0.00     0.032 C
HETATM   18  C10 UNL     1     -18.086   6.937  -5.202  1.00  0.00     0.004 C
HETATM   19  C11 UNL     1     -18.351   8.361  -5.598  1.00  0.00     0.026 C
HETATM   20  C12 UNL     1     -18.446   8.426  -7.128  1.00  0.00     0.168 C
HETATM   21  O2  UNL     1     -19.584   7.705  -7.455  1.00  0.00    -0.386 OA
ENDBRANCH  15  16
ENDBRANCH  14  15
ENDBRANCH   4  14
BRANCH   1  22
HETATM   22  C2  UNL     1     -22.319   1.441  -5.661  1.00  0.00     0.208 C
BRANCH  22  23
HETATM   23  O1  UNL     1     -23.395   2.254  -5.337  1.00  0.00    -0.391 OA
HETATM   24  C1  UNL     1     -24.495   1.444  -5.062  1.00  0.00     0.201 C
ENDBRANCH  22  23
ENDBRANCH   1  22
BRANCH  13  25
HETATM   25  C17 UNL     1     -23.394   0.589  -8.557  1.00  0.00     0.077 C
BRANCH  25  26
HETATM   26  C18 UNL     1     -24.410   1.624  -8.840  1.00  0.00     0.149 A
HETATM   27  C19 UNL     1     -25.373   1.443  -9.990  1.00  0.00     0.200 A
HETATM   28  O3  UNL     1     -25.806   1.050  -8.745  1.00  0.00    -0.381 OA
ENDBRANCH  25  26
ENDBRANCH  13  25
TORSDOF 7
ENDMDL