MODEL 5
REMARK VINA RESULT: -9.551806634      4.854      6.777
REMARK  8 active torsions:
REMARK  status: ('A' for Active; 'I' for Inactive)
REMARK    1  A    between atoms: C2_2  and  O1_4
REMARK    2  A    between atoms: O1_4  and  C4_5
REMARK       I    between atoms: N1_9  and  C7_10
REMARK    3  A    between atoms: C7_10  and  C8_12
REMARK    4  A    between atoms: C12_16  and  C13_17
REMARK    5  A    between atoms: C13_17  and  O4_19
REMARK    6  A    between atoms: O4_19  and  C14_20
REMARK    7  A    between atoms: C17_23  and  O5_24
REMARK    8  A    between atoms: O5_24  and  C18_25
ROOT
HETATM    1  C8  UNL     1     -19.256   5.125  -9.039  1.00  0.00     0.092 C
HETATM    2  C9  UNL     1     -17.878   5.547  -8.575  1.00  0.00     0.015 C
HETATM    3  C10 UNL     1     -18.042   6.656  -7.584  1.00  0.00     0.002 C
HETATM    4  C11 UNL     1     -19.513   6.827  -7.409  1.00  0.00     0.015 C
HETATM    5  C12 UNL     1     -20.175   6.270  -8.664  1.00  0.00     0.099 C
ENDROOT
BRANCH   1   6
HETATM    6  C7  UNL     1     -19.616   3.869  -8.335  1.00  0.00     0.234 C
HETATM    7  N1  UNL     1     -20.263   2.770  -8.962  1.00  0.00    -0.291 N
HETATM    8  S1  UNL     1     -20.587   3.021 -10.676  1.00  0.00    -0.051 SA
HETATM    9  C21 UNL     1     -20.561   1.625  -8.134  1.00  0.00     0.142 C
HETATM   10  C6  UNL     1     -21.933   1.877 -11.159  1.00  0.00     0.100 C
HETATM   11  C5  UNL     1     -23.046   1.871 -10.156  1.00  0.00     0.044 C
HETATM   12  C4  UNL     1     -22.768   0.895  -9.039  1.00  0.00     0.124 C
HETATM   13  C22 UNL     1     -22.062   1.581  -7.897  1.00  0.00     0.053 C
HETATM   14  O2  UNL     1     -19.341   3.743  -7.095  1.00  0.00    -0.272 OA
BRANCH  12  15
HETATM   15  O1  UNL     1     -23.863   0.166  -8.646  1.00  0.00    -0.381 OA
BRANCH  15  16
HETATM   16  C2  UNL     1     -23.785  -0.298  -7.341  1.00  0.00     0.113 C
HETATM   17  C1  UNL     1     -23.506  -1.802  -7.428  1.00  0.00     0.039 C
HETATM   18  C3  UNL     1     -25.144  -0.144  -6.691  1.00  0.00     0.039 C
ENDBRANCH  15  16
ENDBRANCH  12  15
ENDBRANCH   1   6
BRANCH   5  19
HETATM   19  C13 UNL     1     -20.104   7.360  -9.680  1.00  0.00     0.269 C
HETATM   20  O3  UNL     1     -20.473   8.512  -9.336  1.00  0.00    -0.264 OA
BRANCH  19  21
HETATM   21  O4  UNL     1     -19.659   7.173 -10.962  1.00  0.00    -0.279 OA
BRANCH  21  22
HETATM   22  C14 UNL     1     -20.079   7.874 -12.063  1.00  0.00     0.079 A
HETATM   23  C15 UNL     1     -21.178   7.493 -12.779  1.00  0.00     0.040 A
HETATM   24  C16 UNL     1     -21.609   8.207 -13.906  1.00  0.00     0.040 A
HETATM   25  C17 UNL     1     -20.928   9.314 -14.313  1.00  0.00     0.075 A
HETATM   26  C19 UNL     1     -19.790   9.713 -13.577  1.00  0.00     0.040 A
HETATM   27  C20 UNL     1     -19.392   8.988 -12.473  1.00  0.00     0.040 A
BRANCH  25  28
HETATM   28  O5  UNL     1     -21.309  10.051 -15.412  1.00  0.00    -0.290 OA
BRANCH  28  29
HETATM   29  C18 UNL     1     -21.029   9.781 -16.739  1.00  0.00     0.505 C
HETATM   30  F1  UNL     1     -22.065   9.041 -17.312  1.00  0.00    -0.184 F
HETATM   31  F2  UNL     1     -19.908   8.954 -16.867  1.00  0.00    -0.184 F
ENDBRANCH  28  29
ENDBRANCH  25  28
ENDBRANCH  21  22
ENDBRANCH  19  21
ENDBRANCH   5  19
TORSDOF 8
ENDMDL