MODEL 1
REMARK VINA RESULT: -10.599065275      0.000      0.000
REMARK  7 active torsions:
REMARK  status: ('A' for Active; 'I' for Inactive)
REMARK    1  A    between atoms: C2_5  and  C3_6
REMARK    2  A    between atoms: C2_5  and  C9_13
REMARK    3  A    between atoms: C9_13  and  C10_14
REMARK    4  A    between atoms: C9_13  and  C17_23
REMARK    5  A    between atoms: C10_14  and  C11_16
REMARK    6  A    between atoms: C17_23  and  C18_25
REMARK    7  A    between atoms: C21_28  and  N3_29
ROOT
HETATM    1  N1  UNL     1     -18.164   2.539 -12.216  1.00  0.00    -0.172 NA
HETATM    2  C1  UNL     1     -18.756   3.524 -12.059  1.00  0.00     0.182 C
HETATM    3  N2  UNL     1     -19.414   4.679 -11.909  1.00  0.00    -0.295 N
ATOM      4  H2  UNL     1     -19.537   5.155 -12.803  1.00  0.00     0.178 HD
HETATM    5  C2  UNL     1     -19.906   5.313 -11.000  1.00  0.00     0.048 C
ENDROOT
BRANCH   5   6
HETATM    6  C3  UNL     1     -20.555   6.611 -11.383  1.00  0.00    -0.011 A
HETATM    7  C4  UNL     1     -20.983   6.805 -12.687  1.00  0.00     0.016 A
HETATM    8  C5  UNL     1     -21.582   7.980 -13.065  1.00  0.00     0.043 A
HETATM    9  C6  UNL     1     -21.762   8.984 -12.146  1.00  0.00     0.116 A
HETATM   10  F1  UNL     1     -22.361  10.139 -12.556  1.00  0.00    -0.206 F
HETATM   11  C7  UNL     1     -21.338   8.781 -10.873  1.00  0.00     0.043 A
HETATM   12  C8  UNL     1     -20.736   7.613 -10.468  1.00  0.00     0.016 A
ENDBRANCH   5   6
BRANCH   5  13
HETATM   13  C9  UNL     1     -19.894   5.015  -9.572  1.00  0.00     0.186 C
BRANCH  13  14
HETATM   14  C10 UNL     1     -20.076   3.572  -9.231  1.00  0.00     0.177 C
HETATM   15  O1  UNL     1     -19.130   2.882  -8.792  1.00  0.00    -0.291 OA
BRANCH  14  16
HETATM   16  C11 UNL     1     -21.385   2.916  -9.408  1.00  0.00     0.011 A
HETATM   17  C12 UNL     1     -21.950   2.683 -10.646  1.00  0.00     0.017 A
HETATM   18  C13 UNL     1     -23.177   2.063 -10.743  1.00  0.00     0.025 A
HETATM   19  C14 UNL     1     -23.889   1.654  -9.636  1.00  0.00     0.034 A
HETATM   20 CL1  UNL     1     -25.433   0.876  -9.751  1.00  0.00    -0.084 Cl
HETATM   21  C15 UNL     1     -23.338   1.880  -8.395  1.00  0.00     0.025 A
HETATM   22  C16 UNL     1     -22.109   2.501  -8.311  1.00  0.00     0.017 A
ENDBRANCH  14  16
ENDBRANCH  13  14
BRANCH  13  23
HETATM   23  C17 UNL     1     -18.619   5.498  -8.976  1.00  0.00     0.177 C
HETATM   24  O2  UNL     1     -17.553   5.239  -9.626  1.00  0.00    -0.291 OA
BRANCH  23  25
HETATM   25  C18 UNL     1     -18.488   6.224  -7.738  1.00  0.00     0.011 A
HETATM   26  C19 UNL     1     -18.242   5.554  -6.541  1.00  0.00     0.017 A
HETATM   27  C20 UNL     1     -18.095   6.220  -5.355  1.00  0.00     0.037 A
HETATM   28  C21 UNL     1     -18.196   7.609  -5.346  1.00  0.00     0.102 A
HETATM   29  C22 UNL     1     -18.439   8.287  -6.518  1.00  0.00     0.037 A
HETATM   30  C23 UNL     1     -18.586   7.591  -7.718  1.00  0.00     0.017 A
BRANCH  28  31
HETATM   31  N3  UNL     1     -18.047   8.322  -4.125  1.00  0.00    -0.116 N
HETATM   32  O3  UNL     1     -17.419   7.780  -3.185  1.00  0.00    -0.532 OA
HETATM   33  O4  UNL     1     -18.592   9.569  -4.021  1.00  0.00    -0.532 OA
ENDBRANCH  28  31
ENDBRANCH  23  25
ENDBRANCH  13  23
ENDBRANCH   5  13
TORSDOF 7
ENDMDL