MODEL 5
REMARK VINA RESULT: -8.950657767      1.317      1.460
REMARK  7 active torsions:
REMARK  status: ('A' for Active; 'I' for Inactive)
REMARK    1  A    between atoms: O1_2  and  C2_3
REMARK    2  A    between atoms: C4_5  and  C5_6
REMARK    3  A    between atoms: C5_6  and  C7_9
REMARK    4  A    between atoms: C5_6  and  O2_16
REMARK    5  A    between atoms: C7_9  and  N2_10
REMARK    6  A    between atoms: O2_16  and  C13_17
REMARK    7  A    between atoms: C20_25  and  N3_26
ROOT
HETATM    1  C5  UNL     1     -19.491   4.767 -10.592  1.00  0.00     0.206 C
HETATM    2  C6  UNL     1     -18.419   4.098 -11.408  1.00  0.00     0.105 C
HETATM    3  N1  UNL     1     -17.560   3.576 -12.001  1.00  0.00    -0.194 NA
ENDROOT
BRANCH   1   4
HETATM    4  C4  UNL     1     -20.323   3.617  -9.991  1.00  0.00     0.034 A
HETATM    5  C3  UNL     1     -21.360   3.095 -10.715  1.00  0.00     0.053 A
HETATM    6  C2  UNL     1     -22.141   2.074 -10.182  1.00  0.00     0.095 A
HETATM    7  C20 UNL     1     -21.828   1.627  -8.923  1.00  0.00     0.069 A
HETATM    8  C19 UNL     1     -20.792   2.139  -8.183  1.00  0.00     0.075 A
HETATM    9  C18 UNL     1     -20.010   3.174  -8.738  1.00  0.00     0.129 A
HETATM   10  F1  UNL     1     -18.987   3.633  -7.995  1.00  0.00    -0.205 F
BRANCH   6  11
HETATM   11  O1  UNL     1     -23.193   1.553 -10.935  1.00  0.00    -0.354 OA
HETATM   12  C1  UNL     1     -24.424   2.226 -11.001  1.00  0.00     0.210 C
ENDBRANCH   6  11
BRANCH   7  13
HETATM   13  N3  UNL     1     -22.597   0.592  -8.335  1.00  0.00    -0.344 N
HETATM   14  C21 UNL     1     -22.064  -0.730  -8.273  1.00  0.00     0.152 C
HETATM   15  C22 UNL     1     -22.919  -1.659  -7.434  1.00  0.00     0.187 C
HETATM   16  O3  UNL     1     -24.287  -1.349  -7.591  1.00  0.00    -0.385 OA
HETATM   17  C23 UNL     1     -24.478  -0.124  -6.955  1.00  0.00     0.226 C
HETATM   18  C24 UNL     1     -23.899   0.968  -7.817  1.00  0.00     0.295 C
HETATM   19  F2  UNL     1     -23.764   2.116  -7.051  1.00  0.00    -0.225 F
ENDBRANCH   7  13
ENDBRANCH   1   4
BRANCH   1  20
HETATM   20  C7  UNL     1     -20.425   5.406 -11.570  1.00  0.00     0.331 C
BRANCH  20  21
HETATM   21  N2  UNL     1     -19.834   6.362 -12.504  1.00  0.00     0.092 N
HETATM   22  C8  UNL     1     -19.934   7.710 -11.894  1.00  0.00     0.272 C
HETATM   23  C9  UNL     1     -21.343   8.147 -11.704  1.00  0.00     0.030 C
HETATM   24  C10 UNL     1     -22.010   8.353 -13.058  1.00  0.00     0.003 C
HETATM   25  C11 UNL     1     -21.072   7.803 -14.098  1.00  0.00     0.030 C
HETATM   26  C12 UNL     1     -20.693   6.386 -13.693  1.00  0.00     0.272 C
ENDBRANCH  20  21
ENDBRANCH   1  20
BRANCH   1  27
HETATM   27  O2  UNL     1     -19.043   5.573  -9.736  1.00  0.00    -0.354 OA
BRANCH  27  28
HETATM   28  C13 UNL     1     -18.592   6.383  -8.914  1.00  0.00     0.124 C
HETATM   29  C14 UNL     1     -17.406   5.943  -8.033  1.00  0.00     0.032 C
HETATM   30  C15 UNL     1     -17.664   6.468  -6.655  1.00  0.00     0.002 C
HETATM   31  C16 UNL     1     -19.125   6.768  -6.582  1.00  0.00     0.002 C
HETATM   32  C17 UNL     1     -19.527   7.147  -7.992  1.00  0.00     0.032 C
ENDBRANCH  27  28
ENDBRANCH   1  27
TORSDOF 7
ENDMDL