MODEL 4
REMARK VINA RESULT: -9.036438661      2.389      3.696
REMARK  7 active torsions:
REMARK  status: ('A' for Active; 'I' for Inactive)
REMARK    1  A    between atoms: O1_2  and  C2_3
REMARK    2  A    between atoms: C4_5  and  C5_6
REMARK    3  A    between atoms: C5_6  and  N1_7
REMARK    4  A    between atoms: N1_7  and  C7_9
REMARK    5  A    between atoms: C7_9  and  C8_10
REMARK    6  A    between atoms: C8_10  and  C9_11
REMARK    7  A    between atoms: N2_17  and  C14_18
ROOT
HETATM    1  C9  UNL     1     -20.486   6.696 -10.326  1.00  0.00     0.265 C
HETATM    2  O2  UNL     1     -20.316   8.068 -10.305  1.00  0.00    -0.358 OA
HETATM    3  C10 UNL     1     -19.161   8.230  -9.545  1.00  0.00     0.211 C
HETATM    4  C11 UNL     1     -19.430   7.250  -8.423  1.00  0.00     0.110 C
HETATM    5  C12 UNL     1     -18.191   6.794  -7.734  1.00  0.00     0.064 C
HETATM    6  C13 UNL     1     -18.502   6.784  -6.227  1.00  0.00     0.153 C
HETATM    7  N2  UNL     1     -18.787   8.123  -5.879  1.00  0.00    -0.289 N
HETATM    8  O3  UNL     1     -19.637   8.785  -6.646  1.00  0.00    -0.279 OA
HETATM    9  C19 UNL     1     -20.352   7.921  -7.435  1.00  0.00     0.241 C
HETATM   10  O4  UNL     1     -20.095   6.221  -9.087  1.00  0.00    -0.345 OA
ENDROOT
BRANCH   1  11
HETATM   11  C8  UNL     1     -19.613   6.138 -11.441  1.00  0.00     0.105 C
BRANCH  11  12
HETATM   12  C7  UNL     1     -18.987   4.827 -11.025  1.00  0.00     0.067 C
BRANCH  12  13
HETATM   13  N1  UNL     1     -19.774   3.749 -11.470  1.00  0.00    -0.373 N
HETATM   14  C6  UNL     1     -19.917   3.565 -12.866  1.00  0.00     0.154 C
BRANCH  13  15
HETATM   15  C5  UNL     1     -19.773   2.624 -10.633  1.00  0.00     0.102 C
BRANCH  15  16
HETATM   16  C4  UNL     1     -20.982   2.338  -9.849  1.00  0.00     0.004 A
HETATM   17  C3  UNL     1     -22.091   1.790 -10.423  1.00  0.00     0.053 A
HETATM   18  C2  UNL     1     -23.191   1.532  -9.607  1.00  0.00     0.090 A
HETATM   19  C22 UNL     1     -23.148   1.827  -8.244  1.00  0.00     0.069 A
HETATM   20  C21 UNL     1     -22.013   2.379  -7.700  1.00  0.00     0.051 A
HETATM   21 CL2  UNL     1     -24.551   1.486  -7.258  1.00  0.00    -0.081 Cl
HETATM   22  C20 UNL     1     -20.929   2.638  -8.489  1.00  0.00     0.047 A
HETATM   23 CL1  UNL     1     -19.450   3.346  -7.832  1.00  0.00    -0.083 Cl
BRANCH  18  24
HETATM   24  O1  UNL     1     -24.317   0.980 -10.171  1.00  0.00    -0.354 OA
HETATM   25  C1  UNL     1     -25.382   1.796 -10.588  1.00  0.00     0.210 C
ENDBRANCH  18  24
ENDBRANCH  15  16
ENDBRANCH  13  15
ENDBRANCH  12  13
ENDBRANCH  11  12
ENDBRANCH   1  11
BRANCH   7  26
HETATM   26  C14 UNL     1     -18.595   8.548  -4.556  1.00  0.00     0.108 C
HETATM   27  C15 UNL     1     -17.777   7.648  -3.669  1.00  0.00     0.027 C
HETATM   28  C16 UNL     1     -17.217   8.668  -2.668  1.00  0.00     0.002 C
HETATM   29  C17 UNL     1     -16.778   9.765  -3.635  1.00  0.00     0.002 C
HETATM   30  C18 UNL     1     -17.994   9.927  -4.488  1.00  0.00     0.027 C
ENDBRANCH   7  26
TORSDOF 7
ENDMDL