MODEL 2
REMARK VINA RESULT: -9.734893227      0.633      1.016
REMARK  7 active torsions:
REMARK  status: ('A' for Active; 'I' for Inactive)
REMARK    1  A    between atoms: C2_2  and  C3_3
REMARK    2  A    between atoms: C3_3  and  N1_4
REMARK    3  A    between atoms: C5_6  and  C6_7
REMARK    4  A    between atoms: C6_7  and  C8_10
REMARK    5  A    between atoms: C8_10  and  S1_20
REMARK    6  A    between atoms: C9_11  and  C10_12
REMARK    7  A    between atoms: S1_20  and  C16_23
ROOT
HETATM    1  C6  UNL     1     -21.486   1.892 -10.094  1.00  0.00     0.190 C
HETATM    2  C7  UNL     1     -22.904   1.648 -10.321  1.00  0.00     0.075 C
HETATM    3  N2  UNL     1     -24.052   1.475 -10.524  1.00  0.00    -0.196 NA
ENDROOT
BRANCH   1   4
HETATM    4  C5  UNL     1     -20.649   1.308 -11.164  1.00  0.00     0.067 A
HETATM    5  C4  UNL     1     -20.195   1.931 -12.286  1.00  0.00     0.140 A
HETATM    6  N1  UNL     1     -19.463   1.021 -12.996  1.00  0.00    -0.284 N
HETATM    7  N4  UNL     1     -19.483  -0.106 -12.314  1.00  0.00    -0.240 N
HETATM    8  N3  UNL     1     -20.194   0.062 -11.215  1.00  0.00    -0.287 N
ATOM      9  H4  UNL     1     -19.023  -0.973 -12.593  1.00  0.00     0.208 HD
ATOM     10  H3  UNL     1     -20.368  -0.656 -10.512  1.00  0.00     0.188 HD
BRANCH   6  11
HETATM   11  C3  UNL     1     -18.799   1.306 -14.275  1.00  0.00     0.176 C
BRANCH  11  12
HETATM   12  C2  UNL     1     -19.383   2.556 -14.871  1.00  0.00    -0.015 C
HETATM   13  C1  UNL     1     -19.518   2.709 -16.174  1.00  0.00     0.008 C
ENDBRANCH  11  12
ENDBRANCH   6  11
ENDBRANCH   1   4
BRANCH   1  14
HETATM   14  C8  UNL     1     -21.110   1.531  -8.735  1.00  0.00     0.066 C
HETATM   15  C9  UNL     1     -20.403   2.364  -7.996  1.00  0.00     0.032 C
BRANCH  15  16
HETATM   16  C10 UNL     1     -19.894   3.678  -8.315  1.00  0.00    -0.032 A
HETATM   17  C11 UNL     1     -19.207   4.360  -7.295  1.00  0.00     0.035 A
HETATM   18  C12 UNL     1     -18.716   5.628  -7.439  1.00  0.00     0.036 A
HETATM   19 CL1  UNL     1     -17.861   6.445  -6.134  1.00  0.00    -0.084 Cl
HETATM   20  C13 UNL     1     -18.877   6.314  -8.624  1.00  0.00     0.047 A
HETATM   21  C14 UNL     1     -19.544   5.671  -9.630  1.00  0.00     0.036 A
HETATM   22 CL2  UNL     1     -19.775   6.500 -11.150  1.00  0.00    -0.084 Cl
HETATM   23  C15 UNL     1     -20.043   4.377  -9.480  1.00  0.00     0.035 A
ENDBRANCH  15  16
BRANCH  14  24
HETATM   24  S1  UNL     1     -21.518   0.022  -7.936  1.00  0.00     0.204 S
HETATM   25  O1  UNL     1     -20.418  -0.292  -6.935  1.00  0.00    -0.217 OA
HETATM   26  O2  UNL     1     -21.712  -1.122  -8.840  1.00  0.00    -0.217 OA
BRANCH  24  27
HETATM   27  C16 UNL     1     -22.993   0.262  -7.041  1.00  0.00     0.064 A
HETATM   28  C17 UNL     1     -24.180  -0.373  -7.350  1.00  0.00     0.024 A
HETATM   29  C18 UNL     1     -25.339  -0.131  -6.615  1.00  0.00     0.002 A
HETATM   30  C19 UNL     1     -25.344   0.743  -5.563  1.00  0.00     0.000 A
HETATM   31  C20 UNL     1     -24.158   1.375  -5.256  1.00  0.00     0.002 A
HETATM   32  C21 UNL     1     -23.011   1.138  -5.979  1.00  0.00     0.024 A
ENDBRANCH  24  27
ENDBRANCH  14  24
ENDBRANCH   1  14
TORSDOF 7
ENDMDL