MODEL 5
REMARK VINA RESULT: -9.387985021      0.863      1.057
REMARK  8 active torsions:
REMARK  status: ('A' for Active; 'I' for Inactive)
REMARK    1  A    between atoms: C3_3  and  C4_4
REMARK    2  A    between atoms: C4_4  and  O1_5
REMARK    3  A    between atoms: O1_5  and  C5_6
REMARK    4  A    between atoms: C5_6  and  C6_8
REMARK    5  A    between atoms: C13_17  and  C14_18
REMARK    6  A    between atoms: C14_18  and  O6_20
REMARK    7  A    between atoms: O6_20  and  C15_21
REMARK    8  A    between atoms: C15_21  and  C16_22
ROOT
HETATM    1  C6  UNL     1     -21.336   0.697 -10.590  1.00  0.00     0.186 C
HETATM    2  C7  UNL     1     -20.522  -0.551 -10.563  1.00  0.00     0.145 C
HETATM    3  O3  UNL     1     -19.957  -1.144 -11.456  1.00  0.00    -0.297 OA
HETATM    4  C8  UNL     1     -20.490  -1.016  -9.152  1.00  0.00     0.090 C
HETATM    5  C9  UNL     1     -21.057   0.118  -8.325  1.00  0.00     0.044 C
HETATM    6  C10 UNL     1     -21.997   0.736  -9.258  1.00  0.00    -0.031 C
HETATM    7  C11 UNL     1     -23.203   1.253  -9.057  1.00  0.00     0.139 C
HETATM    8  O4  UNL     1     -23.934   1.356  -7.885  1.00  0.00    -0.362 OA
HETATM    9  C12 UNL     1     -23.894   0.472  -6.785  1.00  0.00     0.190 C
HETATM   10  C13 UNL     1     -22.500   0.458  -6.250  1.00  0.00     0.129 C
HETATM   11  C22 UNL     1     -21.506  -0.326  -7.025  1.00  0.00     0.106 C
HETATM   12 CL2  UNL     1     -22.121  -2.003  -7.130  1.00  0.00    -0.123 Cl
ENDROOT
BRANCH  10  13
HETATM   13  C14 UNL     1     -22.049   1.853  -5.955  1.00  0.00     0.266 C
HETATM   14  O5  UNL     1     -22.626   2.539  -5.072  1.00  0.00    -0.265 OA
BRANCH  13  15
HETATM   15  O6  UNL     1     -20.995   2.445  -6.626  1.00  0.00    -0.316 OA
BRANCH  15  16
HETATM   16  C15 UNL     1     -21.073   3.590  -7.443  1.00  0.00     0.217 C
BRANCH  16  17
HETATM   17  C16 UNL     1     -19.869   4.427  -7.228  1.00  0.00    -0.032 A
HETATM   18  C17 UNL     1     -19.162   5.013  -8.250  1.00  0.00     0.009 A
HETATM   19  C18 UNL     1     -18.038   5.791  -8.055  1.00  0.00     0.002 A
HETATM   20  C19 UNL     1     -17.587   6.002  -6.772  1.00  0.00     0.024 A
HETATM   21  C20 UNL     1     -18.277   5.427  -5.729  1.00  0.00     0.034 A
HETATM   22 CL1  UNL     1     -17.666   5.724  -4.112  1.00  0.00    -0.084 Cl
HETATM   23  C21 UNL     1     -19.399   4.651  -5.931  1.00  0.00     0.033 A
ENDBRANCH  16  17
ENDBRANCH  15  16
ENDBRANCH  13  15
ENDBRANCH  10  13
BRANCH   1  24
HETATM   24  C5  UNL     1     -20.506   1.886 -10.853  1.00  0.00     0.274 C
HETATM   25  O2  UNL     1     -19.476   2.190 -10.229  1.00  0.00    -0.264 OA
BRANCH  24  26
HETATM   26  O1  UNL     1     -20.910   2.726 -11.880  1.00  0.00    -0.317 OA
BRANCH  26  27
HETATM   27  C4  UNL     1     -20.219   3.855 -12.319  1.00  0.00     0.206 C
BRANCH  27  28
HETATM   28  C3  UNL     1     -20.619   5.111 -11.633  1.00  0.00    -0.005 C
HETATM   29  C2  UNL     1     -19.883   6.203 -11.705  1.00  0.00    -0.033 C
HETATM   30  C1  UNL     1     -20.300   7.442 -11.013  1.00  0.00     0.036 C
ENDBRANCH  27  28
ENDBRANCH  26  27
ENDBRANCH  24  26
ENDBRANCH   1  24
TORSDOF 8
ENDMDL