MODEL 2
REMARK VINA RESULT: -9.155622537      1.475      2.488
REMARK  13 active torsions:
REMARK  status: ('A' for Active; 'I' for Inactive)
REMARK    1  A    between atoms: C7_7  and  O1_8
REMARK    2  A    between atoms: O1_8  and  C8_9
REMARK    3  A    between atoms: C9_12  and  N2_13
REMARK    4  A    between atoms: N2_13  and  C10_15
REMARK    5  A    between atoms: C15_20  and  C16_21
REMARK    6  A    between atoms: C16_21  and  N3_22
REMARK    7  A    between atoms: N3_22  and  C17_24
REMARK    8  A    between atoms: C20_31  and  O2_32
REMARK    9  A    between atoms: O2_32  and  C21_33
REMARK   10  A    between atoms: C21_33  and  C22_34
REMARK   11  A    between atoms: C28_41  and  N6_42
REMARK   12  A    between atoms: N6_42  and  C29_44
REMARK   13  A    between atoms: N7_47  and  C32_48
ROOT
HETATM    1  C32 UNL     1      38.896  -7.853  14.763  1.00  0.00     0.252 C
HETATM    2  C33 UNL     1      38.104  -6.924  15.540  1.00  0.00     0.079 C
HETATM    3  N8  UNL     1      37.467  -6.186  16.155  1.00  0.00    -0.196 NA
ENDROOT
BRANCH   1   4
HETATM    4  N7  UNL     1      38.049  -8.593  13.819  1.00  0.00    -0.340 N
HETATM    5  C31 UNL     1      37.623  -8.032  12.678  1.00  0.00     0.096 A
HETATM    6  C30 UNL     1      36.817  -8.750  11.794  1.00  0.00     0.066 A
HETATM    7  C29 UNL     1      36.440 -10.048  12.066  1.00  0.00     0.108 A
HETATM    8  N9  UNL     1      36.888 -10.572  13.220  1.00  0.00    -0.338 N
HETATM    9  C34 UNL     1      37.672  -9.859  14.071  1.00  0.00     0.185 A
ATOM     10  H9  UNL     1      36.633 -11.530  13.463  1.00  0.00     0.168 HD
BRANCH   7  11
HETATM   11  N6  UNL     1      35.701 -10.667  11.236  1.00  0.00    -0.326 N
ATOM     12  H6  UNL     1      35.966 -10.630  10.252  1.00  0.00     0.169 HD
BRANCH  11  13
HETATM   13  C28 UNL     1      34.542 -11.403  11.571  1.00  0.00     0.147 A
HETATM   14  C20 UNL     1      33.315 -10.705  11.559  1.00  0.00     0.158 A
HETATM   15  C9  UNL     1      32.139 -11.327  11.880  1.00  0.00     0.146 A
HETATM   16  N1  UNL     1      32.211 -12.657  12.210  1.00  0.00    -0.305 N
HETATM   17  C8  UNL     1      33.374 -13.321  12.220  1.00  0.00     0.232 A
ATOM     18  H1  UNL     1      31.355 -13.154  12.455  1.00  0.00     0.171 HD
HETATM   19  N10 UNL     1      34.514 -12.679  11.899  1.00  0.00    -0.305 N
ATOM     20  H10 UNL     1      35.391 -13.200  11.912  1.00  0.00     0.171 HD
BRANCH  14  21
HETATM   21  O2  UNL     1      33.303  -9.369  11.210  1.00  0.00    -0.340 OA
BRANCH  21  22
HETATM   22  C21 UNL     1      32.777  -8.910  10.015  1.00  0.00     0.214 C
BRANCH  22  23
HETATM   23  C22 UNL     1      33.320  -7.720   9.385  1.00  0.00    -0.031 A
HETATM   24  C23 UNL     1      32.753  -7.186   8.223  1.00  0.00     0.009 A
HETATM   25  C24 UNL     1      33.292  -6.113   7.588  1.00  0.00     0.004 A
HETATM   26  C25 UNL     1      34.433  -5.490   8.062  1.00  0.00     0.042 A
HETATM   27  C26 UNL     1      34.978  -6.034   9.214  1.00  0.00     0.117 A
HETATM   28  F1  UNL     1      36.111  -5.422   9.689  1.00  0.00    -0.206 F
HETATM   29  C27 UNL     1      34.453  -7.121   9.878  1.00  0.00     0.051 A
ENDBRANCH  22  23
ENDBRANCH  21  22
ENDBRANCH  14  21
BRANCH  15  30
HETATM   30  N2  UNL     1      30.994 -10.740  11.978  1.00  0.00    -0.340 N
ATOM     31  H2  UNL     1      30.797  -9.916  11.409  1.00  0.00     0.167 HD
BRANCH  30  32
HETATM   32  C10 UNL     1      30.012 -11.231  12.865  1.00  0.00     0.041 A
HETATM   33  C11 UNL     1      30.045 -10.955  14.238  1.00  0.00     0.030 A
HETATM   34  C12 UNL     1      29.084 -11.428  15.094  1.00  0.00     0.002 A
HETATM   35  C13 UNL     1      28.045 -12.192  14.640  1.00  0.00     0.001 A
HETATM   36  C14 UNL     1      27.969 -12.490  13.295  1.00  0.00     0.011 A
HETATM   37  C15 UNL     1      28.960 -11.995  12.449  1.00  0.00    -0.013 A
BRANCH  37  38
HETATM   38  C16 UNL     1      28.840 -12.324  11.016  1.00  0.00     0.178 C
BRANCH  38  39
HETATM   39  N3  UNL     1      27.586 -12.886  10.630  1.00  0.00    -0.222 N
ATOM     40  H3  UNL     1      27.363 -13.800  11.025  1.00  0.00     0.178 HD
BRANCH  39  41
HETATM   41  C17 UNL     1      26.712 -12.385   9.853  1.00  0.00     0.678 A
HETATM   42  N4  UNL     1      26.229 -12.965   8.749  1.00  0.00    -0.201 N
HETATM   43  C18 UNL     1      25.323 -12.164   8.165  1.00  0.00     0.123 A
ATOM     44  H4  UNL     1      26.508 -13.882   8.400  1.00  0.00     0.183 HD
HETATM   45  C19 UNL     1      25.240 -11.029   8.945  1.00  0.00     0.123 A
HETATM   46  N5  UNL     1      26.106 -11.199   9.972  1.00  0.00    -0.201 N
ATOM     47  H5  UNL     1      26.271 -10.525  10.720  1.00  0.00     0.183 HD
ENDBRANCH  39  41
ENDBRANCH  38  39
ENDBRANCH  37  38
ENDBRANCH  30  32
ENDBRANCH  15  30
BRANCH  17  48
HETATM   48  O1  UNL     1      33.430 -14.688  12.560  1.00  0.00    -0.279 OA
BRANCH  48  49
HETATM   49  C7  UNL     1      32.266 -15.415  12.766  1.00  0.00     0.080 A
HETATM   50  C6  UNL     1      32.071 -16.116  13.952  1.00  0.00     0.044 A
HETATM   51  C4  UNL     1      30.910 -16.846  14.165  1.00  0.00    -0.059 A
HETATM   52  C3  UNL     1      29.924 -16.892  13.205  1.00  0.00     0.013 A
HETATM   53  C5  UNL     1      30.742 -17.576  15.438  1.00  0.00     0.048 C
HETATM   54  C2  UNL     1      30.120 -16.197  12.037  1.00  0.00    -0.059 A
HETATM   55  C1  UNL     1      29.055 -16.251  11.006  1.00  0.00     0.048 C
HETATM   56  C35 UNL     1      31.291 -15.462  11.823  1.00  0.00     0.044 A
ENDBRANCH  48  49
ENDBRANCH  17  48
ENDBRANCH  11  13
ENDBRANCH   7  11
ENDBRANCH   1   4
TORSDOF 13
ENDMDL