MODEL 2
REMARK VINA RESULT: -6.752945793      6.694     12.066
REMARK  14 active torsions:
REMARK  status: ('A' for Active; 'I' for Inactive)
REMARK    1  A    between atoms: C2_2  and  C3_3
REMARK    2  A    between atoms: C7_7  and  C8_8
REMARK    3  A    between atoms: C8_8  and  C9_9
REMARK    4  A    between atoms: C9_9  and  O1_10
REMARK    5  A    between atoms: C9_9  and  C11_12
REMARK    6  A    between atoms: C11_12  and  C12_13
REMARK    7  A    between atoms: C12_13  and  O2_14
REMARK    8  A    between atoms: O2_14  and  C13_15
REMARK    9  A    between atoms: C13_15  and  O4_17
REMARK   10  A    between atoms: O4_17  and  C14_18
REMARK   11  A    between atoms: C14_18  and  C16_20
REMARK   12  A    between atoms: C24_30  and  O6_31
REMARK   13  A    between atoms: C31_40  and  O8_42
REMARK   14  A    between atoms: C34_45  and  O9_46
ROOT
HETATM    1  C11 UNL     1      34.558  -4.479  19.202  1.00  0.00     0.036 C
HETATM    2  C18 UNL     1      34.661  -5.654  20.207  1.00  0.00     0.128 C
HETATM    3 CL1  UNL     1      34.955  -5.158  21.885  1.00  0.00    -0.119 Cl
HETATM    4  C19 UNL     1      33.624  -6.681  20.102  1.00  0.00    -0.025 C
HETATM    5  C20 UNL     1      32.741  -6.727  21.083  1.00  0.00     0.019 C
HETATM    6  C21 UNL     1      33.440  -7.737  19.081  1.00  0.00     0.176 A
HETATM    7  O5  UNL     1      34.613  -8.032  18.469  1.00  0.00    -0.355 OA
HETATM    8  C22 UNL     1      33.902  -7.250  17.692  1.00  0.00     0.178 A
HETATM    9  C23 UNL     1      33.226  -5.991  17.539  1.00  0.00     0.060 C
HETATM   10  C24 UNL     1      31.738  -6.342  17.408  1.00  0.00     0.161 C
HETATM   11  C25 UNL     1      31.464  -7.809  17.664  1.00  0.00     0.011 C
HETATM   12  C26 UNL     1      30.650  -8.519  16.917  1.00  0.00     0.025 C
HETATM   13  C27 UNL     1      32.163  -8.369  18.814  1.00  0.00     0.199 C
HETATM   14  O7  UNL     1      31.698  -9.290  19.479  1.00  0.00    -0.289 OA
HETATM   15  C28 UNL     1      33.537  -4.693  18.160  1.00  0.00    -0.025 C
HETATM   16  C29 UNL     1      32.190  -4.022  18.532  1.00  0.00     0.016 C
HETATM   17  C30 UNL     1      33.895  -3.711  16.983  1.00  0.00     0.016 C
ENDROOT
BRANCH   1  18
HETATM   18  C9  UNL     1      35.974  -4.252  18.743  1.00  0.00     0.137 C
BRANCH  18  19
HETATM   19  C8  UNL     1      36.910  -5.258  18.236  1.00  0.00     0.060 C
BRANCH  19  20
HETATM   20  C7  UNL     1      36.771  -5.830  16.891  1.00  0.00    -0.018 C
HETATM   21  C6  UNL     1      37.310  -6.981  16.479  1.00  0.00    -0.049 C
HETATM   22  C5  UNL     1      37.032  -7.369  15.042  1.00  0.00     0.052 C
HETATM   23  C31 UNL     1      38.117  -7.922  17.247  1.00  0.00     0.080 C
HETATM   24  C3  UNL     1      38.308  -7.763  14.338  1.00  0.00     0.003 C
HETATM   25  C4  UNL     1      39.175  -6.547  14.049  1.00  0.00     0.022 C
HETATM   26  C34 UNL     1      39.110  -8.748  15.154  1.00  0.00     0.133 C
HETATM   27  C33 UNL     1      38.294  -9.167  16.354  1.00  0.00     0.075 C
HETATM   28  C32 UNL     1      39.494  -7.487  17.613  1.00  0.00     0.051 C
BRANCH  24  29
HETATM   29  C2  UNL     1      37.949  -8.376  13.037  1.00  0.00    -0.025 C
HETATM   30  C1  UNL     1      36.930  -7.974  12.331  1.00  0.00     0.008 C
ENDBRANCH  24  29
BRANCH  26  31
HETATM   31  O9  UNL     1      39.437  -9.850  14.353  1.00  0.00    -0.394 OA
ATOM     32  H9  UNL     1      38.804 -10.543  14.503  1.00  0.00     0.210 HD
ENDBRANCH  26  31
BRANCH  23  33
HETATM   33  O8  UNL     1      37.427  -8.426  18.384  1.00  0.00    -0.386 OA
ATOM     34  H8  UNL     1      37.895  -8.260  19.194  1.00  0.00     0.211 HD
ENDBRANCH  23  33
ENDBRANCH  19  20
ENDBRANCH  18  19
BRANCH  18  35
HETATM   35  O1  UNL     1      36.731  -3.701  19.850  1.00  0.00    -0.389 OA
HETATM   36  C10 UNL     1      37.908  -4.350  19.955  1.00  0.00     0.202 C
ENDBRANCH  18  35
ENDBRANCH   1  18
BRANCH   1  37
HETATM   37  C12 UNL     1      34.208  -3.355  20.164  1.00  0.00     0.196 C
BRANCH  37  38
HETATM   38  O2  UNL     1      34.633  -2.063  19.790  1.00  0.00    -0.297 OA
BRANCH  38  39
HETATM   39  C13 UNL     1      33.763  -1.022  19.763  1.00  0.00     0.406 C
HETATM   40  O3  UNL     1      32.684  -0.983  20.388  1.00  0.00    -0.229 OA
BRANCH  39  41
HETATM   41  O4  UNL     1      34.109   0.073  18.979  1.00  0.00    -0.293 OA
BRANCH  41  42
HETATM   42  C14 UNL     1      34.682   1.256  19.430  1.00  0.00     0.129 C
HETATM   43  C15 UNL     1      35.946   1.623  18.676  1.00  0.00     0.040 C
BRANCH  42  44
HETATM   44  C16 UNL     1      33.717   2.438  19.395  1.00  0.00     0.028 C
HETATM   45  C17 UNL     1      34.529   3.672  19.029  1.00  0.00     0.007 C
ENDBRANCH  42  44
ENDBRANCH  41  42
ENDBRANCH  39  41
ENDBRANCH  38  39
ENDBRANCH  37  38
ENDBRANCH   1  37
BRANCH  10  46
HETATM   46  O6  UNL     1      31.258  -6.162  16.084  1.00  0.00    -0.390 OA
ATOM     47  H6  UNL     1      30.330  -5.956  16.063  1.00  0.00     0.210 HD
ENDBRANCH  10  46
TORSDOF 14
ENDMDL