MODEL 1
REMARK VINA RESULT: -7.862618679      0.000      0.000
REMARK  14 active torsions:
REMARK  status: ('A' for Active; 'I' for Inactive)
REMARK    1  A    between atoms: C2_2  and  C3_3
REMARK    2  A    between atoms: C3_3  and  C5_5
REMARK    3  A    between atoms: C5_5  and  C6_7
REMARK    4  A    between atoms: C6_7  and  C7_8
REMARK    5  A    between atoms: C7_8  and  O2_9
REMARK    6  A    between atoms: C7_8  and  C8_11
REMARK    7  A    between atoms: C8_11  and  C9_12
REMARK    8  A    between atoms: C9_12  and  C10_13
REMARK    9  A    between atoms: C10_13  and  O3_14
REMARK   10  A    between atoms: C16_22  and  C17_24
REMARK   11  A    between atoms: C24_34  and  O8_35
REMARK   12  A    between atoms: O8_35  and  C25_36
REMARK   13  A    between atoms: C25_36  and  C26_38
REMARK   14  A    between atoms: C32_44  and  O10_46
ROOT
HETATM    1  C10 UNL     1      31.587 -11.783  14.467  1.00  0.00     0.172 C
HETATM    2  O4  UNL     1      31.757 -12.534  15.638  1.00  0.00    -0.340 OA
HETATM    3  C11 UNL     1      30.481 -12.319  16.080  1.00  0.00     0.106 C
HETATM    4  C12 UNL     1      30.600 -11.445  17.326  1.00  0.00     0.042 C
HETATM    5  C13 UNL     1      29.456 -10.549  17.590  1.00  0.00     0.010 C
HETATM    6  C14 UNL     1      29.081 -10.703  19.078  1.00  0.00     0.023 C
HETATM    7  C15 UNL     1      28.803  -9.357  19.706  1.00  0.00     0.013 C
HETATM    8  C16 UNL     1      28.004 -11.711  19.263  1.00  0.00     0.187 C
HETATM    9 CL1  UNL     1      26.468 -10.766  19.436  1.00  0.00    -0.099 Cl
HETATM   10  C19 UNL     1      27.758 -12.633  18.170  1.00  0.00     0.291 C
HETATM   11  O6  UNL     1      26.575 -13.109  18.246  1.00  0.00    -0.263 OA
HETATM   12  O7  UNL     1      28.471 -13.089  17.124  1.00  0.00    -0.307 OA
HETATM   13  C20 UNL     1      29.678 -13.474  16.589  1.00  0.00     0.190 C
HETATM   14  C21 UNL     1      29.440 -14.554  15.637  1.00  0.00     0.013 C
HETATM   15  C22 UNL     1      29.142 -14.652  14.368  1.00  0.00    -0.053 C
HETATM   16  C23 UNL     1      29.000 -16.030  13.847  1.00  0.00     0.046 C
HETATM   17  C24 UNL     1      28.935 -13.566  13.409  1.00  0.00     0.195 C
HETATM   18  C32 UNL     1      29.091 -12.202  13.926  1.00  0.00     0.096 C
HETATM   19  C33 UNL     1      29.012 -11.171  12.756  1.00  0.00     0.049 C
HETATM   20  C34 UNL     1      30.145 -11.743  14.796  1.00  0.00     0.122 C
ENDROOT
BRANCH   1  21
HETATM   21  C9  UNL     1      32.154 -12.436  13.285  1.00  0.00     0.071 C
BRANCH  21  22
HETATM   22  C8  UNL     1      33.169 -13.519  13.452  1.00  0.00     0.037 C
BRANCH  22  23
HETATM   23  C7  UNL     1      32.654 -14.922  13.496  1.00  0.00     0.125 C
BRANCH  23  24
HETATM   24  C6  UNL     1      33.668 -15.809  12.741  1.00  0.00     0.110 C
BRANCH  24  25
HETATM   25  C5  UNL     1      33.902 -15.238  11.390  1.00  0.00     0.133 C
HETATM   26  O1  UNL     1      34.999 -14.756  11.164  1.00  0.00    -0.297 OA
BRANCH  25  27
HETATM   27  C3  UNL     1      32.892 -15.226  10.324  1.00  0.00     0.051 C
HETATM   28  C4  UNL     1      31.806 -16.257  10.491  1.00  0.00     0.018 C
BRANCH  27  29
HETATM   29  C2  UNL     1      33.496 -15.420   8.949  1.00  0.00     0.007 C
HETATM   30  C1  UNL     1      33.490 -16.903   8.654  1.00  0.00     0.006 C
ENDBRANCH  27  29
ENDBRANCH  25  27
ENDBRANCH  24  25
ENDBRANCH  23  24
BRANCH  23  31
HETATM   31  O2  UNL     1      32.552 -15.440  14.779  1.00  0.00    -0.395 OA
ATOM     32  H2  UNL     1      33.087 -14.889  15.338  1.00  0.00     0.210 HD
ENDBRANCH  23  31
ENDBRANCH  22  23
ENDBRANCH  21  22
ENDBRANCH   1  21
BRANCH   1  33
HETATM   33  O3  UNL     1      32.153 -10.486  14.499  1.00  0.00    -0.365 OA
ATOM     34  H3  UNL     1      32.082 -10.151  13.613  1.00  0.00     0.213 HD
ENDBRANCH   1  33
BRANCH  18  35
HETATM   35  O10 UNL     1      27.843 -11.929  14.572  1.00  0.00    -0.387 OA
ATOM     36  H10 UNL     1      27.898 -11.008  14.801  1.00  0.00     0.210 HD
ENDBRANCH  18  35
BRANCH  17  37
HETATM   37  O8  UNL     1      27.606 -13.690  12.805  1.00  0.00    -0.304 OA
BRANCH  37  38
HETATM   38  C25 UNL     1      27.391 -13.971  11.493  1.00  0.00     0.294 C
HETATM   39  O9  UNL     1      27.830 -15.043  11.021  1.00  0.00    -0.259 OA
BRANCH  38  40
HETATM   40  C26 UNL     1      26.649 -13.012  10.654  1.00  0.00     0.039 A
HETATM   41  C27 UNL     1      25.929 -11.981  11.214  1.00  0.00     0.017 A
HETATM   42  C28 UNL     1      25.217 -11.055  10.487  1.00  0.00     0.001 A
HETATM   43  C29 UNL     1      25.238 -11.186   9.112  1.00  0.00     0.000 A
HETATM   44  C30 UNL     1      25.948 -12.208   8.507  1.00  0.00     0.001 A
HETATM   45  C31 UNL     1      26.654 -13.123   9.282  1.00  0.00     0.017 A
ENDBRANCH  38  40
ENDBRANCH  37  38
ENDBRANCH  17  37
BRANCH   8  46
HETATM   46  C17 UNL     1      28.129 -12.420  20.592  1.00  0.00     0.157 C
HETATM   47  C18 UNL     1      29.253 -13.349  20.884  1.00  0.00     0.093 C
HETATM   48  O5  UNL     1      27.301 -12.231  21.444  1.00  0.00    -0.296 OA
ENDBRANCH   8  46
TORSDOF 14
ENDMDL