MODEL 2
REMARK VINA RESULT: -7.696365249      7.606     11.270
REMARK  13 active torsions:
REMARK  status: ('A' for Active; 'I' for Inactive)
REMARK    1  A    between atoms: C3_3  and  C5_5
REMARK    2  A    between atoms: C5_5  and  O2_7
REMARK    3  A    between atoms: O2_7  and  C6_8
REMARK    4  A    between atoms: C7_9  and  O3_10
REMARK    5  A    between atoms: N1_21  and  O5_23
REMARK    6  A    between atoms: C20_29  and  C21_30
REMARK    7  A    between atoms: C21_30  and  C23_32
REMARK    8  A    between atoms: C23_32  and  C24_33
REMARK    9  A    between atoms: C24_33  and  C25_34
REMARK   10  A    between atoms: C25_34  and  C26_35
REMARK   11  A    between atoms: C26_35  and  C27_36
REMARK   12  A    between atoms: C32_44  and  C34_46
REMARK   13  A    between atoms: C34_46  and  O9_48
ROOT
HETATM    1  C6  UNL     1      37.249  -7.685  13.725  1.00  0.00     0.179 C
HETATM    2  C7  UNL     1      38.133  -6.469  14.004  1.00  0.00     0.149 C
HETATM    3  C8  UNL     1      38.631  -6.354  15.376  1.00  0.00     0.044 C
HETATM    4  C9  UNL     1      37.952  -7.088  16.490  1.00  0.00    -0.032 C
HETATM    5  C10 UNL     1      39.108  -7.373  17.493  1.00  0.00     0.016 C
HETATM    6  C11 UNL     1      37.009  -6.256  17.325  1.00  0.00     0.009 C
HETATM    7  C12 UNL     1      37.694  -4.952  17.559  1.00  0.00     0.084 C
HETATM    8  C13 UNL     1      37.228  -4.379  18.868  1.00  0.00     0.137 C
HETATM    9  O4  UNL     1      37.901  -4.590  19.839  1.00  0.00    -0.297 OA
HETATM   10  C14 UNL     1      35.962  -3.550  19.039  1.00  0.00     0.108 C
HETATM   11  C15 UNL     1      35.115  -3.990  17.884  1.00  0.00     0.030 C
HETATM   12  N1  UNL     1      34.829  -3.099  17.004  1.00  0.00    -0.276 N
ATOM     13  H1  UNL     1      35.216  -2.174  17.194  1.00  0.00     0.193 HD
HETATM   14  C16 UNL     1      34.674  -5.414  17.779  1.00  0.00     0.004 C
HETATM   15  C17 UNL     1      33.286  -5.372  17.169  1.00  0.00     0.022 C
HETATM   16  C18 UNL     1      34.519  -5.975  19.147  1.00  0.00     0.016 C
HETATM   17  C19 UNL     1      34.221  -4.895  20.202  1.00  0.00     0.007 C
HETATM   18  C20 UNL     1      35.311  -3.906  20.307  1.00  0.00     0.006 C
HETATM   19  C28 UNL     1      35.594  -6.200  16.875  1.00  0.00     0.038 C
HETATM   20  C29 UNL     1      35.086  -7.535  16.508  1.00  0.00     0.176 C
HETATM   21  F1  UNL     1      34.018  -8.007  17.286  1.00  0.00    -0.249 F
HETATM   22  C30 UNL     1      36.064  -8.674  16.654  1.00  0.00     0.044 C
HETATM   23  C31 UNL     1      37.428  -8.437  16.112  1.00  0.00     0.017 C
HETATM   24  C32 UNL     1      37.569  -8.782  14.635  1.00  0.00     0.078 C
HETATM   25  C33 UNL     1      39.034  -9.191  14.382  1.00  0.00     0.029 C
ENDROOT
BRANCH  18  26
HETATM   26  C21 UNL     1      34.805  -2.712  21.142  1.00  0.00    -0.013 C
HETATM   27  C22 UNL     1      34.917  -3.003  22.608  1.00  0.00     0.010 C
BRANCH  26  28
HETATM   28  C23 UNL     1      33.415  -2.390  20.758  1.00  0.00     0.005 C
BRANCH  28  29
HETATM   29  C24 UNL     1      33.120  -1.288  19.861  1.00  0.00     0.001 C
BRANCH  29  30
HETATM   30  C25 UNL     1      33.890  -0.051  19.765  1.00  0.00     0.010 C
BRANCH  30  31
HETATM   31  C26 UNL     1      34.941   0.091  18.722  1.00  0.00     0.113 C
BRANCH  31  32
HETATM   32  C27 UNL     1      35.564   1.469  18.791  1.00  0.00     0.172 C
HETATM   33  O6  UNL     1      34.844   2.413  19.173  1.00  0.00    -0.648 OA
HETATM   34  O7  UNL     1      36.886   1.709  18.451  1.00  0.00    -0.648 OA
ENDBRANCH  31  32
ENDBRANCH  30  31
ENDBRANCH  29  30
ENDBRANCH  28  29
ENDBRANCH  26  28
ENDBRANCH  18  26
BRANCH  12  35
HETATM   35  O5  UNL     1      34.109  -3.183  15.884  1.00  0.00    -0.290 OA
ATOM     36  H5  UNL     1      34.004  -2.567  15.168  1.00  0.00     0.244 HD
ENDBRANCH  12  35
BRANCH   2  37
HETATM   37  O3  UNL     1      37.451  -5.309  13.554  1.00  0.00    -0.393 OA
ATOM     38  H3  UNL     1      36.561  -5.339  13.884  1.00  0.00     0.210 HD
ENDBRANCH   2  37
BRANCH  24  39
HETATM   39  C34 UNL     1      36.759  -9.981  14.367  1.00  0.00     0.270 C
HETATM   40  O8  UNL     1      35.564  -9.986  14.018  1.00  0.00    -0.264 OA
BRANCH  39  41
HETATM   41  O9  UNL     1      37.314 -11.279  14.493  1.00  0.00    -0.326 OA
HETATM   42  C35 UNL     1      36.789 -12.226  15.403  1.00  0.00     0.213 C
ENDBRANCH  39  41
ENDBRANCH  24  39
BRANCH   1  43
HETATM   43  O2  UNL     1      37.444  -8.122  12.388  1.00  0.00    -0.308 OA
BRANCH  43  44
HETATM   44  C5  UNL     1      36.519  -7.876  11.389  1.00  0.00     0.289 C
HETATM   45  O1  UNL     1      35.760  -6.873  11.566  1.00  0.00    -0.260 OA
BRANCH  44  46
HETATM   46  C3  UNL     1      36.440  -8.717  10.233  1.00  0.00     0.009 C
HETATM   47  C2  UNL     1      36.436  -8.320   8.984  1.00  0.00    -0.018 C
HETATM   48  C1  UNL     1      36.518  -6.887   8.646  1.00  0.00     0.036 C
HETATM   49  C4  UNL     1      36.352 -10.196  10.459  1.00  0.00     0.054 C
ENDBRANCH  44  46
ENDBRANCH  43  44
ENDBRANCH   1  43
TORSDOF 13
ENDMDL