MODEL 5
REMARK VINA RESULT: -8.578126030      7.079     11.586
REMARK  13 active torsions:
REMARK  status: ('A' for Active; 'I' for Inactive)
REMARK    1  A    between atoms: N2_3  and  C2_4
REMARK    2  A    between atoms: N2_3  and  C9_11
REMARK    3  A    between atoms: C2_4  and  C3_5
REMARK    4  A    between atoms: C14_16  and  C15_17
REMARK    5  A    between atoms: C15_17  and  O1_18
REMARK    6  A    between atoms: O1_18  and  C16_19
REMARK    7  A    between atoms: C19_22  and  S1_23
REMARK    8  A    between atoms: S1_23  and  N3_26
REMARK    9  A    between atoms: C20_29  and  C21_30
REMARK   10  A    between atoms: C20_29  and  C27_37
REMARK   11  A    between atoms: C30_40  and  C31_41
REMARK   12  A    between atoms: C31_41  and  O5_42
REMARK   13  A    between atoms: N5_44  and  O6_46
ROOT
HETATM    1  N1  UNL     1      28.153 -11.072   9.740  1.00  0.00    -0.172 NA
HETATM    2  C1  UNL     1      28.888 -11.317  10.599  1.00  0.00     0.185 C
HETATM    3  N2  UNL     1      29.806 -11.600  11.644  1.00  0.00    -0.280 N
ENDROOT
BRANCH   3   4
HETATM    4  C2  UNL     1      29.832 -10.727  12.789  1.00  0.00     0.179 C
BRANCH   4   5
HETATM    5  C3  UNL     1      29.185 -11.367  13.948  1.00  0.00    -0.039 A
HETATM    6  C4  UNL     1      29.781 -11.179  15.185  1.00  0.00     0.009 A
HETATM    7  C5  UNL     1      29.239 -11.737  16.292  1.00  0.00     0.001 A
HETATM    8  C6  UNL     1      28.083 -12.512  16.281  1.00  0.00     0.000 A
HETATM    9  C7  UNL     1      27.498 -12.691  15.039  1.00  0.00     0.001 A
HETATM   10  C8  UNL     1      28.031 -12.135  13.895  1.00  0.00     0.009 A
ENDBRANCH   4   5
ENDBRANCH   3   4
BRANCH   3  11
HETATM   11  C9  UNL     1      30.713 -12.695  11.530  1.00  0.00     0.053 A
HETATM   12  C10 UNL     1      30.252 -13.985  11.663  1.00  0.00     0.031 A
HETATM   13  C11 UNL     1      31.122 -15.067  11.630  1.00  0.00     0.002 A
HETATM   14  C12 UNL     1      32.457 -14.780  11.458  1.00  0.00     0.001 A
HETATM   15  C13 UNL     1      32.926 -13.497  11.323  1.00  0.00     0.011 A
HETATM   16  C14 UNL     1      32.053 -12.434  11.355  1.00  0.00    -0.007 A
BRANCH  16  17
HETATM   17  C15 UNL     1      32.584 -11.041  11.104  1.00  0.00     0.216 C
BRANCH  17  18
HETATM   18  O1  UNL     1      33.948 -11.134  10.944  1.00  0.00    -0.347 OA
BRANCH  18  19
HETATM   19  C16 UNL     1      34.956 -10.678  11.770  1.00  0.00     0.069 A
HETATM   20  C17 UNL     1      35.903  -9.767  11.269  1.00  0.00     0.038 A
HETATM   21  C18 UNL     1      36.920  -9.279  12.057  1.00  0.00     0.027 A
HETATM   22  C19 UNL     1      37.058  -9.659  13.371  1.00  0.00     0.076 A
HETATM   23  C32 UNL     1      36.136 -10.552  13.870  1.00  0.00     0.027 A
HETATM   24  C33 UNL     1      35.107 -11.050  13.082  1.00  0.00     0.038 A
BRANCH  22  25
HETATM   25  S1  UNL     1      38.347  -9.014  14.385  1.00  0.00     0.260 S
HETATM   26  O2  UNL     1      39.105  -8.037  13.501  1.00  0.00    -0.204 OA
HETATM   27  O3  UNL     1      39.293 -10.118  14.695  1.00  0.00    -0.204 OA
BRANCH  25  28
HETATM   28  N3  UNL     1      37.759  -8.178  15.706  1.00  0.00    -0.078 NA
HETATM   29  N4  UNL     1      38.636  -7.582  16.573  1.00  0.00     0.012 NA
HETATM   30  O4  UNL     1      37.941  -6.661  17.280  1.00  0.00    -0.251 OA
HETATM   31  C20 UNL     1      36.605  -6.708  16.900  1.00  0.00     0.142 C
HETATM   32  C30 UNL     1      36.791  -7.113  15.417  1.00  0.00     0.213 C
BRANCH  31  33
HETATM   33  C21 UNL     1      35.996  -5.366  17.006  1.00  0.00    -0.019 A
HETATM   34  C22 UNL     1      36.600  -4.454  17.841  1.00  0.00     0.013 A
HETATM   35  C23 UNL     1      36.071  -3.189  17.977  1.00  0.00     0.043 A
HETATM   36  C24 UNL     1      34.938  -2.808  17.289  1.00  0.00     0.116 A
HETATM   37  F1  UNL     1      34.401  -1.571  17.409  1.00  0.00    -0.206 F
HETATM   38  C25 UNL     1      34.325  -3.706  16.456  1.00  0.00     0.043 A
HETATM   39  C26 UNL     1      34.866  -4.968  16.331  1.00  0.00     0.013 A
ENDBRANCH  31  33
BRANCH  31  40
HETATM   40  C27 UNL     1      35.867  -7.754  17.664  1.00  0.00     0.029 A
HETATM   41  C28 UNL     1      36.169  -8.096  19.070  1.00  0.00     0.009 A
HETATM   42  C29 UNL     1      34.874  -7.390  18.722  1.00  0.00     0.009 A
ENDBRANCH  31  40
BRANCH  32  43
HETATM   43  C31 UNL     1      37.443  -5.955  14.779  1.00  0.00     0.159 C
HETATM   44  N5  UNL     1      36.967  -5.432  13.707  1.00  0.00    -0.249 N
ATOM     45  H5  UNL     1      36.123  -5.837  13.304  1.00  0.00     0.196 HD
BRANCH  43  46
HETATM   46  O5  UNL     1      38.592  -5.390  15.314  1.00  0.00    -0.347 OA
ATOM     47  H5  UNL     1      38.779  -4.464  15.215  1.00  0.00     0.219 HD
ENDBRANCH  43  46
BRANCH  44  48
HETATM   48  O6  UNL     1      37.536  -4.362  13.081  1.00  0.00    -0.288 OA
ATOM     49  H6  UNL     1      37.049  -3.763  12.527  1.00  0.00     0.244 HD
ENDBRANCH  44  48
ENDBRANCH  32  43
ENDBRANCH  25  28
ENDBRANCH  22  25
ENDBRANCH  18  19
ENDBRANCH  17  18
ENDBRANCH  16  17
ENDBRANCH   3  11
TORSDOF 13
ENDMDL