MODEL 2
REMARK VINA RESULT: -9.018336254      3.721      9.210
REMARK  10 active torsions:
REMARK  status: ('A' for Active; 'I' for Inactive)
REMARK    1  A    between atoms: O1_2  and  C2_3
REMARK    2  A    between atoms: C4_5  and  O2_6
REMARK    3  A    between atoms: C7_9  and  C8_10
REMARK    4  A    between atoms: C8_10  and  C9_11
REMARK    5  A    between atoms: C8_10  and  C26_33
REMARK    6  A    between atoms: N2_16  and  C12_17
REMARK    7  A    between atoms: C12_17  and  C13_18
REMARK    8  A    between atoms: C16_21  and  C17_22
REMARK    9  A    between atoms: C27_34  and  O4_35
REMARK   10  A    between atoms: N4_41  and  C29_42
ROOT
HETATM    1  C8  UNL     1      37.649  -6.735  18.672  1.00  0.00     0.011 C
ENDROOT
BRANCH   1   2
HETATM    2  C7  UNL     1      38.058  -7.116  17.286  1.00  0.00    -0.018 A
HETATM    3  C6  UNL     1      38.041  -6.110  16.324  1.00  0.00     0.049 A
HETATM    4  C4  UNL     1      38.385  -6.313  15.004  1.00  0.00     0.071 A
HETATM    5  C3  UNL     1      38.760  -7.599  14.670  1.00  0.00     0.073 A
HETATM    6  C2  UNL     1      38.784  -8.610  15.610  1.00  0.00     0.071 A
HETATM    7  C36 UNL     1      38.436  -8.383  16.919  1.00  0.00     0.049 A
BRANCH   4   8
HETATM    8  O2  UNL     1      38.362  -5.298  14.059  1.00  0.00    -0.356 OA
HETATM    9  C5  UNL     1      37.421  -5.380  13.005  1.00  0.00     0.210 C
ENDBRANCH   4   8
BRANCH   6  10
HETATM   10  O1  UNL     1      39.158  -9.917  15.298  1.00  0.00    -0.356 OA
HETATM   11  C1  UNL     1      39.278 -10.237  13.925  1.00  0.00     0.210 C
ENDBRANCH   6  10
ENDBRANCH   1   2
BRANCH   1  12
HETATM   12  C9  UNL     1      36.347  -6.090  18.776  1.00  0.00     0.069 A
HETATM   13  C10 UNL     1      35.240  -6.158  17.982  1.00  0.00     0.039 A
HETATM   14  C11 UNL     1      34.966  -6.936  16.732  1.00  0.00     0.071 C
HETATM   15  N1  UNL     1      34.313  -5.339  18.565  1.00  0.00    -0.299 N
HETATM   16  N2  UNL     1      34.800  -4.796  19.651  1.00  0.00    -0.252 N
ATOM     17  H1  UNL     1      33.374  -5.174  18.204  1.00  0.00     0.187 HD
HETATM   18  C25 UNL     1      36.045  -5.220  19.831  1.00  0.00     0.275 A
HETATM   19  O3  UNL     1      36.779  -4.868  20.801  1.00  0.00    -0.266 OA
BRANCH  16  20
HETATM   20  C12 UNL     1      34.040  -3.860  20.508  1.00  0.00     0.191 C
BRANCH  20  21
HETATM   21  C13 UNL     1      34.359  -2.457  20.133  1.00  0.00    -0.038 A
HETATM   22  C14 UNL     1      34.196  -2.057  18.833  1.00  0.00     0.010 A
HETATM   23  C15 UNL     1      34.497  -0.746  18.486  1.00  0.00     0.013 A
HETATM   24  C16 UNL     1      34.955   0.165  19.404  1.00  0.00    -0.023 A
HETATM   25  C23 UNL     1      35.115  -0.245  20.709  1.00  0.00     0.013 A
HETATM   26  C24 UNL     1      34.816  -1.556  21.069  1.00  0.00     0.010 A
BRANCH  24  27
HETATM   27  C17 UNL     1      35.275   1.550  19.033  1.00  0.00     0.013 A
HETATM   28  C18 UNL     1      36.454   1.832  18.352  1.00  0.00     0.015 A
HETATM   29  C19 UNL     1      36.717   3.138  18.026  1.00  0.00     0.001 A
HETATM   30  C20 UNL     1      35.840   4.163  18.359  1.00  0.00     0.003 A
HETATM   31  C21 UNL     1      34.670   3.895  19.032  1.00  0.00     0.043 A
HETATM   32  C22 UNL     1      34.407   2.578  19.359  1.00  0.00     0.127 A
HETATM   33  F1  UNL     1      33.247   2.272  20.028  1.00  0.00    -0.205 F
ENDBRANCH  24  27
ENDBRANCH  20  21
ENDBRANCH  16  20
ENDBRANCH   1  12
BRANCH   1  34
HETATM   34  C26 UNL     1      38.016  -7.788  19.572  1.00  0.00     0.085 A
HETATM   35  C27 UNL     1      37.198  -8.845  19.852  1.00  0.00     0.152 A
HETATM   36  C28 UNL     1      37.640  -9.818  20.725  1.00  0.00     0.294 A
HETATM   37  O5  UNL     1      36.891 -10.813  20.999  1.00  0.00    -0.264 OA
HETATM   38  N3  UNL     1      38.849  -9.744  21.297  1.00  0.00    -0.254 N
HETATM   39  N4  UNL     1      39.643  -8.741  21.039  1.00  0.00    -0.217 N
ATOM     40  H3  UNL     1      39.152 -10.476  21.938  1.00  0.00     0.191 HD
HETATM   41  C35 UNL     1      39.264  -7.773  20.203  1.00  0.00     0.281 A
HETATM   42  O6  UNL     1      40.041  -6.783  19.947  1.00  0.00    -0.265 OA
BRANCH  35  43
HETATM   43  O4  UNL     1      35.946  -9.016  19.318  1.00  0.00    -0.355 OA
ATOM     44  H4  UNL     1      35.415  -9.796  19.437  1.00  0.00     0.218 HD
ENDBRANCH  35  43
BRANCH  39  45
HETATM   45  C29 UNL     1      40.920  -8.693  21.664  1.00  0.00     0.060 A
HETATM   46  C30 UNL     1      41.266  -7.801  22.640  1.00  0.00     0.031 A
HETATM   47  C31 UNL     1      42.543  -7.841  23.184  1.00  0.00     0.002 A
HETATM   48  C32 UNL     1      43.476  -8.770  22.759  1.00  0.00     0.000 A
HETATM   49  C33 UNL     1      43.116  -9.662  21.779  1.00  0.00     0.002 A
HETATM   50  C34 UNL     1      41.852  -9.634  21.228  1.00  0.00     0.031 A
ENDBRANCH  39  45
ENDBRANCH   1  34
TORSDOF 10
ENDMDL