MODEL 3
REMARK VINA RESULT: -9.534480768      4.965     10.312
REMARK  11 active torsions:
REMARK  status: ('A' for Active; 'I' for Inactive)
REMARK    1  A    between atoms: N1_1  and  C1_5
REMARK    2  A    between atoms: C1_5  and  C2_6
REMARK    3  A    between atoms: C2_6  and  C3_7
REMARK    4  A    between atoms: C2_6  and  C21_32
REMARK    5  A    between atoms: C3_7  and  N2_8
REMARK    6  A    between atoms: N3_10  and  C5_12
REMARK    7  A    between atoms: C9_16  and  C10_17
REMARK    8  A    between atoms: C21_32  and  O3_33
REMARK    9  A    between atoms: C21_32  and  C29_45
REMARK   10  A    between atoms: O3_33  and  N4_34
REMARK   11  A    between atoms: C22_36  and  C23_37
ROOT
HETATM    1  C2  UNL     1      37.244  -6.026  15.172  1.00  0.00     0.065 C
ENDROOT
BRANCH   1   2
HETATM    2  C1  UNL     1      38.313  -5.860  16.207  1.00  0.00     0.238 C
BRANCH   2   3
HETATM    3  N1  UNL     1      38.347  -6.912  17.192  1.00  0.00    -0.079 N
ATOM      4  H13 UNL     1      39.251  -6.932  17.663  1.00  0.00     0.274 HD
ATOM      5  H12 UNL     1      37.746  -6.681  17.984  1.00  0.00     0.274 HD
ATOM      6  H11 UNL     1      38.114  -7.834  16.825  1.00  0.00     0.274 HD
ENDBRANCH   2   3
ENDBRANCH   1   2
BRANCH   1   7
HETATM    7  C3  UNL     1      36.040  -5.207  15.355  1.00  0.00     0.134 C
BRANCH   7   8
HETATM    8  N2  UNL     1      35.241  -5.341  16.537  1.00  0.00    -0.354 N
HETATM    9  C4  UNL     1      35.195  -4.389  17.598  1.00  0.00     0.143 C
HETATM   10  N3  UNL     1      36.100  -3.630  18.104  1.00  0.00    -0.337 N
HETATM   11  S1  UNL     1      33.450  -4.421  18.186  1.00  0.00    -0.086 SA
ATOM     12  H3  UNL     1      37.052  -3.649  17.739  1.00  0.00     0.168 HD
HETATM   13  C17 UNL     1      32.934  -5.691  16.995  1.00  0.00     0.093 C
HETATM   14  C18 UNL     1      31.996  -6.684  17.551  1.00  0.00     0.158 C
HETATM   15  C20 UNL     1      34.321  -6.387  16.944  1.00  0.00     0.115 C
HETATM   16  S2  UNL     1      32.995  -7.501  18.803  1.00  0.00     0.147 S
HETATM   17  O1  UNL     1      33.002  -8.971  18.645  1.00  0.00    -0.228 OA
HETATM   18  O2  UNL     1      32.519  -7.032  20.122  1.00  0.00    -0.228 OA
HETATM   19  C19 UNL     1      34.590  -6.789  18.372  1.00  0.00     0.166 C
BRANCH  10  20
HETATM   20  C5  UNL     1      35.762  -2.766  19.177  1.00  0.00     0.034 A
HETATM   21  C6  UNL     1      36.128  -3.107  20.487  1.00  0.00     0.029 A
HETATM   22  C7  UNL     1      35.793  -2.274  21.527  1.00  0.00     0.003 A
HETATM   23  C8  UNL     1      35.100  -1.100  21.284  1.00  0.00     0.012 A
HETATM   24  C9  UNL     1      34.727  -0.737  19.998  1.00  0.00    -0.024 A
HETATM   25  C16 UNL     1      35.081  -1.601  18.984  1.00  0.00     0.041 A
BRANCH  24  26
HETATM   26  C10 UNL     1      33.997   0.494  19.731  1.00  0.00    -0.026 A
HETATM   27  C11 UNL     1      34.659   1.709  19.663  1.00  0.00     0.012 A
HETATM   28  C12 UNL     1      33.989   2.896  19.405  1.00  0.00     0.001 A
HETATM   29  C13 UNL     1      32.636   2.895  19.212  1.00  0.00     0.000 A
HETATM   30  C14 UNL     1      31.953   1.704  19.276  1.00  0.00     0.001 A
HETATM   31  C15 UNL     1      32.633   0.529  19.532  1.00  0.00     0.012 A
ENDBRANCH  24  26
ENDBRANCH  10  20
ENDBRANCH   7   8
ENDBRANCH   1   7
BRANCH   1  32
HETATM   32  C21 UNL     1      37.759  -6.273  13.774  1.00  0.00     0.192 C
BRANCH  32  33
HETATM   33  O3  UNL     1      37.029  -5.726  12.752  1.00  0.00    -0.270 OA
BRANCH  33  34
HETATM   34  N4  UNL     1      37.030  -5.412  11.531  1.00  0.00    -0.276 N
HETATM   35  C22 UNL     1      36.654  -5.620  10.385  1.00  0.00     0.125 C
ATOM     36  H4  UNL     1      37.632  -4.592  11.468  1.00  0.00     0.193 HD
BRANCH  35  37
HETATM   37  C23 UNL     1      35.766  -6.676   9.868  1.00  0.00    -0.017 A
HETATM   38  C24 UNL     1      36.154  -7.997   9.887  1.00  0.00     0.016 A
HETATM   39  C25 UNL     1      35.336  -8.993   9.403  1.00  0.00     0.045 A
HETATM   40  C26 UNL     1      34.101  -8.635   8.891  1.00  0.00     0.140 A
HETATM   41  F1  UNL     1      33.231  -9.576   8.390  1.00  0.00    -0.204 F
HETATM   42  C27 UNL     1      33.706  -7.321   8.869  1.00  0.00     0.085 A
HETATM   43  N5  UNL     1      32.406  -6.961   8.328  1.00  0.00    -0.099 NA
HETATM   44  C28 UNL     1      34.545  -6.353   9.359  1.00  0.00     0.042 A
ENDBRANCH  35  37
ENDBRANCH  33  34
ENDBRANCH  32  33
BRANCH  32  45
HETATM   45  C29 UNL     1      37.957  -7.703  13.497  1.00  0.00    -0.026 A
HETATM   46  C30 UNL     1      36.910  -8.540  13.248  1.00  0.00     0.010 A
HETATM   47  C31 UNL     1      37.124  -9.874  12.974  1.00  0.00     0.001 A
HETATM   48  C32 UNL     1      38.406 -10.378  12.948  1.00  0.00     0.000 A
HETATM   49  C33 UNL     1      39.479  -9.551  13.197  1.00  0.00     0.001 A
HETATM   50  C34 UNL     1      39.217  -8.223  13.467  1.00  0.00     0.010 A
ENDBRANCH  32  45
ENDBRANCH   1  32
TORSDOF 11
ENDMDL