MODEL 2
REMARK VINA RESULT: -7.773515251      1.100      2.338
REMARK  14 active torsions:
REMARK  status: ('A' for Active; 'I' for Inactive)
REMARK    1  A    between atoms: C2_2  and  O2_4
REMARK    2  A    between atoms: O2_4  and  C3_5
REMARK    3  A    between atoms: C3_5  and  C4_6
REMARK    4  A    between atoms: C4_6  and  O3_7
REMARK    5  A    between atoms: C4_6  and  O4_9
REMARK    6  A    between atoms: C4_6  and  C7_13
REMARK    7  A    between atoms: O4_9  and  C5_10
REMARK    8  A    between atoms: C18_26  and  C19_27
REMARK    9  A    between atoms: C19_27  and  C21_29
REMARK   10  A    between atoms: C21_29  and  C22_30
REMARK   11  A    between atoms: C22_30  and  C23_31
REMARK   12  A    between atoms: C23_31  and  C24_33
REMARK   13  A    between atoms: C30_39  and  O8_40
REMARK   14  A    between atoms: C34_45  and  O9_46
ROOT
HETATM    1  C7  UNL     1      37.552  -7.418  17.195  1.00  0.00     0.064 C
HETATM    2  C8  UNL     1      37.107  -8.493  18.160  1.00  0.00     0.188 C
HETATM    3  O6  UNL     1      37.033  -8.042  19.470  1.00  0.00    -0.356 OA
HETATM    4  C9  UNL     1      37.357  -6.747  19.679  1.00  0.00     0.290 C
HETATM    5  O7  UNL     1      38.485  -6.258  19.092  1.00  0.00    -0.356 OA
HETATM    6  C10 UNL     1      38.697  -6.648  17.800  1.00  0.00     0.188 C
HETATM    7  C11 UNL     1      36.186  -5.901  19.205  1.00  0.00    -0.022 C
HETATM    8  C12 UNL     1      35.142  -6.513  19.748  1.00  0.00    -0.018 C
HETATM    9  C13 UNL     1      33.822  -5.839  19.423  1.00  0.00     0.033 C
HETATM   10  C14 UNL     1      34.144  -4.380  19.728  1.00  0.00     0.005 C
HETATM   11  C15 UNL     1      33.045  -3.673  20.357  1.00  0.00    -0.001 C
HETATM   12  C16 UNL     1      31.758  -3.478  19.667  1.00  0.00     0.006 C
HETATM   13  C17 UNL     1      31.337  -2.058  19.984  1.00  0.00     0.006 C
HETATM   14  C18 UNL     1      32.204  -1.656  21.188  1.00  0.00    -0.002 C
HETATM   15  C27 UNL     1      33.513  -2.321  20.904  1.00  0.00    -0.034 C
HETATM   16  C28 UNL     1      34.282  -2.619  22.178  1.00  0.00     0.016 C
HETATM   17  C29 UNL     1      34.420  -1.628  19.952  1.00  0.00     0.042 C
HETATM   18  C30 UNL     1      35.477  -2.453  19.312  1.00  0.00     0.128 C
HETATM   19  C31 UNL     1      34.965  -3.755  18.646  1.00  0.00    -0.004 C
HETATM   20  C32 UNL     1      34.197  -3.204  17.487  1.00  0.00     0.019 C
HETATM   21  C33 UNL     1      36.078  -4.671  18.330  1.00  0.00     0.059 C
HETATM   22  C34 UNL     1      36.372  -5.145  16.966  1.00  0.00     0.128 C
HETATM   23  C35 UNL     1      36.415  -6.621  16.722  1.00  0.00     0.052 C
ENDROOT
BRANCH   1  24
HETATM   24  C4  UNL     1      38.194  -8.176  16.039  1.00  0.00     0.204 C
BRANCH  24  25
HETATM   25  C3  UNL     1      38.113  -9.649  16.119  1.00  0.00     0.248 C
BRANCH  25  26
HETATM   26  O2  UNL     1      39.131 -10.359  15.451  1.00  0.00    -0.316 OA
BRANCH  26  27
HETATM   27  C2  UNL     1      39.036 -10.871  14.193  1.00  0.00     0.254 C
HETATM   28  C1  UNL     1      40.268 -11.479  13.597  1.00  0.00     0.126 C
HETATM   29  O1  UNL     1      37.944 -10.816  13.593  1.00  0.00    -0.266 OA
ENDBRANCH  26  27
ENDBRANCH  25  26
ENDBRANCH  24  25
BRANCH  24  30
HETATM   30  O3  UNL     1      39.579  -7.840  16.043  1.00  0.00    -0.362 OA
ATOM     31  H3  UNL     1      39.638  -6.917  15.823  1.00  0.00     0.213 HD
ENDBRANCH  24  30
BRANCH  24  32
HETATM   32  O4  UNL     1      37.716  -7.683  14.810  1.00  0.00    -0.280 OA
BRANCH  32  33
HETATM   33  C5  UNL     1      38.462  -6.959  13.923  1.00  0.00     0.257 C
HETATM   34  C6  UNL     1      38.122  -5.545  13.557  1.00  0.00     0.126 C
HETATM   35  O5  UNL     1      39.477  -7.440  13.362  1.00  0.00    -0.266 OA
ENDBRANCH  32  33
ENDBRANCH  24  32
ENDBRANCH   1  24
BRANCH  22  36
HETATM   36  O9  UNL     1      35.542  -4.677  15.937  1.00  0.00    -0.395 OA
ATOM     37  H9  UNL     1      35.799  -4.887  15.047  1.00  0.00     0.210 HD
ENDBRANCH  22  36
BRANCH  18  38
HETATM   38  O8  UNL     1      36.053  -1.725  18.283  1.00  0.00    -0.395 OA
ATOM     39  H8  UNL     1      36.360  -2.327  17.615  1.00  0.00     0.210 HD
ENDBRANCH  18  38
BRANCH  14  40
HETATM   40  C19 UNL     1      32.213  -0.187  21.373  1.00  0.00    -0.014 C
HETATM   41  C20 UNL     1      31.994   0.219  22.777  1.00  0.00     0.010 C
BRANCH  40  42
HETATM   42  C21 UNL     1      31.329   0.546  20.388  1.00  0.00     0.006 C
BRANCH  42  43
HETATM   43  C22 UNL     1      32.104   1.291  19.352  1.00  0.00     0.021 C
BRANCH  43  44
HETATM   44  C23 UNL     1      33.010   2.348  19.946  1.00  0.00     0.085 C
HETATM   45 CL1  UNL     1      34.711   1.876  19.849  1.00  0.00    -0.125 Cl
BRANCH  44  46
HETATM   46  C24 UNL     1      32.824   3.687  19.269  1.00  0.00    -0.004 C
HETATM   47  C25 UNL     1      31.902   4.519  20.143  1.00  0.00     0.011 C
HETATM   48  C26 UNL     1      34.132   4.395  19.021  1.00  0.00     0.011 C
ENDBRANCH  44  46
ENDBRANCH  43  44
ENDBRANCH  42  43
ENDBRANCH  40  42
ENDBRANCH  14  40
TORSDOF 14
ENDMDL