MODEL 3
REMARK VINA RESULT: -7.640350751      2.658      4.538
REMARK  14 active torsions:
REMARK  status: ('A' for Active; 'I' for Inactive)
REMARK    1  A    between atoms: C2_2  and  O2_4
REMARK    2  A    between atoms: O2_4  and  C3_5
REMARK    3  A    between atoms: C18_20  and  O3_21
REMARK    4  A    between atoms: O3_21  and  C19_22
REMARK    5  A    between atoms: C20_24  and  C21_25
REMARK    6  A    between atoms: C21_25  and  O5_26
REMARK    7  A    between atoms: O5_26  and  C22_27
REMARK    8  A    between atoms: C22_27  and  C23_29
REMARK    9  A    between atoms: C23_29  and  C24_30
REMARK   10  A    between atoms: C24_30  and  C25_31
REMARK   11  A    between atoms: C25_31  and  N1_32
REMARK   12  A    between atoms: C25_31  and  C26_36
REMARK   13  A    between atoms: C28_40  and  O9_41
REMARK   14  A    between atoms: C29_43  and  C30_44
ROOT
HETATM    1  C3  UNL     1      29.929 -12.542  15.010  1.00  0.00     0.160 C
HETATM    2  C4  UNL     1      28.925 -13.251  14.074  1.00  0.00     0.040 C
HETATM    3  C5  UNL     1      29.227 -14.480  13.405  1.00  0.00    -0.003 C
HETATM    4  C6  UNL     1      27.964 -14.862  12.606  1.00  0.00    -0.002 A
HETATM    5  C7  UNL     1      27.782 -14.332  11.260  1.00  0.00     0.006 A
HETATM    6  C8  UNL     1      28.085 -15.677  10.662  1.00  0.00     0.010 A
HETATM    7  C9  UNL     1      28.166 -16.231  12.056  1.00  0.00    -0.040 A
HETATM    8  C10 UNL     1      26.969 -17.110  12.446  1.00  0.00     0.015 C
HETATM    9  C11 UNL     1      29.418 -16.921  12.438  1.00  0.00     0.010 C
HETATM   10  C12 UNL     1      30.677 -16.094  12.281  1.00  0.00     0.006 C
HETATM   11  C13 UNL     1      30.386 -14.659  12.467  1.00  0.00    -0.002 C
HETATM   12  C14 UNL     1      31.479 -13.806  13.042  1.00  0.00    -0.038 C
HETATM   13  C15 UNL     1      31.873 -14.524  14.244  1.00  0.00     0.015 C
HETATM   14  C16 UNL     1      32.781 -13.717  12.264  1.00  0.00     0.012 C
HETATM   15  C17 UNL     1      33.630 -12.972  13.325  1.00  0.00     0.037 C
HETATM   16  C18 UNL     1      33.252 -11.616  13.645  1.00  0.00     0.156 C
HETATM   17  C29 UNL     1      32.136 -11.162  14.520  1.00  0.00    -0.024 C
HETATM   18  C33 UNL     1      30.786 -11.681  14.251  1.00  0.00     0.090 C
HETATM   19 CL1  UNL     1      29.652 -10.345  13.680  1.00  0.00    -0.111 Cl
HETATM   20  C34 UNL     1      30.966 -12.454  12.922  1.00  0.00     0.042 C
ENDROOT
BRANCH  16  21
HETATM   21  O3  UNL     1      34.439 -11.078  14.235  1.00  0.00    -0.349 OA
BRANCH  21  22
HETATM   22  C19 UNL     1      35.463 -10.902  13.338  1.00  0.00     0.289 C
HETATM   23  O4  UNL     1      35.104 -10.148  12.254  1.00  0.00    -0.351 OA
HETATM   24  C20 UNL     1      36.352  -9.897  11.596  1.00  0.00     0.151 C
HETATM   25  C27 UNL     1      37.194  -9.400  12.733  1.00  0.00     0.071 C
HETATM   26  C28 UNL     1      36.638 -10.163  13.917  1.00  0.00     0.175 C
BRANCH  24  27
HETATM   27  C21 UNL     1      36.039  -8.795  10.626  1.00  0.00     0.210 C
BRANCH  27  28
HETATM   28  O5  UNL     1      35.826  -7.564  11.108  1.00  0.00    -0.319 OA
BRANCH  28  29
HETATM   29  C22 UNL     1      36.387  -6.350  11.042  1.00  0.00     0.258 C
HETATM   30  O6  UNL     1      37.195  -6.009  11.930  1.00  0.00    -0.265 OA
BRANCH  29  31
HETATM   31  C23 UNL     1      36.067  -5.384   9.919  1.00  0.00     0.113 C
BRANCH  31  32
HETATM   32  C24 UNL     1      35.488  -6.123   8.776  1.00  0.00     0.054 C
BRANCH  32  33
HETATM   33  C25 UNL     1      34.137  -5.656   8.370  1.00  0.00     0.283 C
BRANCH  33  34
HETATM   34  N1  UNL     1      34.114  -5.389   6.917  1.00  0.00    -0.065 N
ATOM     35  H13 UNL     1      33.655  -4.504   6.697  1.00  0.00     0.275 HD
ATOM     36  H12 UNL     1      35.041  -5.169   6.553  1.00  0.00     0.275 HD
ATOM     37  H11 UNL     1      33.686  -6.175   6.427  1.00  0.00     0.275 HD
ENDBRANCH  33  34
BRANCH  33  38
HETATM   38  C26 UNL     1      33.138  -6.741   8.633  1.00  0.00     0.204 C
HETATM   39  O7  UNL     1      32.858  -7.180   9.773  1.00  0.00    -0.646 OA
HETATM   40  O8  UNL     1      32.477  -7.297   7.545  1.00  0.00    -0.646 OA
ENDBRANCH  33  38
ENDBRANCH  32  33
ENDBRANCH  31  32
ENDBRANCH  29  31
ENDBRANCH  28  29
ENDBRANCH  27  28
ENDBRANCH  24  27
BRANCH  26  41
HETATM   41  O9  UNL     1      36.227  -9.209  14.864  1.00  0.00    -0.391 OA
ATOM     42  H9  UNL     1      35.960  -9.622  15.676  1.00  0.00     0.210 HD
ENDBRANCH  26  41
ENDBRANCH  21  22
ENDBRANCH  16  21
BRANCH  17  43
HETATM   43  C30 UNL     1      32.522 -10.711  15.886  1.00  0.00    -0.081 C
HETATM   44  C31 UNL     1      32.637 -11.675  16.997  1.00  0.00     0.043 C
HETATM   45  C32 UNL     1      31.951  -9.421  16.379  1.00  0.00     0.043 C
ENDBRANCH  17  43
BRANCH   1  46
HETATM   46  O2  UNL     1      28.992 -11.700  15.746  1.00  0.00    -0.314 OA
BRANCH  46  47
HETATM   47  C2  UNL     1      28.766 -11.869  17.102  1.00  0.00     0.255 C
HETATM   48  C1  UNL     1      29.019 -10.710  18.032  1.00  0.00     0.126 C
HETATM   49  O1  UNL     1      28.360 -12.972  17.523  1.00  0.00    -0.266 OA
ENDBRANCH  46  47
ENDBRANCH   1  46
TORSDOF 14
ENDMDL