MODEL 3
REMARK VINA RESULT: -8.002657543      1.835      2.608
REMARK  13 active torsions:
REMARK  status: ('A' for Active; 'I' for Inactive)
REMARK    1  A    between atoms: C4_5  and  C5_6
REMARK    2  A    between atoms: C5_6  and  C6_7
REMARK    3  A    between atoms: C6_7  and  O3_9
REMARK    4  A    between atoms: C8_11  and  O4_12
REMARK    5  A    between atoms: C10_15  and  O5_16
REMARK    6  A    between atoms: O5_16  and  C11_17
REMARK    7  A    between atoms: C11_17  and  C12_19
REMARK    8  A    between atoms: C12_19  and  C13_20
REMARK    9  A    between atoms: C14_22  and  C16_24
REMARK   10  A    between atoms: C17_25  and  C18_26
REMARK   11  A    between atoms: C23_31  and  C24_32
REMARK   12  A    between atoms: C27_35  and  O7_36
REMARK   13  A    between atoms: C28_38  and  O8_39
ROOT
HETATM    1  C12 UNL     1      33.477 -12.595  12.621  1.00  0.00     0.037 C
HETATM    2  C14 UNL     1      32.461 -13.295  13.137  1.00  0.00    -0.049 C
HETATM    3  C15 UNL     1      31.514 -13.942  12.192  1.00  0.00     0.049 C
ENDROOT
BRANCH   1   4
HETATM    4  C11 UNL     1      33.694 -12.444  11.202  1.00  0.00     0.291 C
HETATM    5  O6  UNL     1      34.686 -13.037  10.681  1.00  0.00    -0.260 OA
BRANCH   4   6
HETATM    6  O5  UNL     1      32.930 -11.709  10.315  1.00  0.00    -0.312 OA
BRANCH   6   7
HETATM    7  C10 UNL     1      32.461 -10.405  10.578  1.00  0.00     0.139 C
HETATM    8  C9  UNL     1      33.517  -9.391  10.839  1.00  0.00     0.072 C
HETATM    9  C8  UNL     1      34.125  -8.836   9.608  1.00  0.00     0.079 C
HETATM   10  C4  UNL     1      35.317  -7.956   9.795  1.00  0.00     0.104 C
HETATM   11  C35 UNL     1      33.079  -7.974   8.913  1.00  0.00     0.057 C
HETATM   12  C3  UNL     1      34.835  -6.571   9.580  1.00  0.00     0.162 C
HETATM   13  C2  UNL     1      33.768  -6.712   8.562  1.00  0.00    -0.014 C
HETATM   14  O1  UNL     1      35.195  -5.472  10.103  1.00  0.00    -0.292 OA
HETATM   15  C1  UNL     1      33.478  -5.915   7.579  1.00  0.00     0.023 C
HETATM   16  C34 UNL     1      32.475  -8.658   7.735  1.00  0.00     0.013 C
HETATM   17  C33 UNL     1      31.840  -9.958   8.165  1.00  0.00     0.007 C
HETATM   18  C31 UNL     1      31.401  -9.989   9.586  1.00  0.00     0.011 C
HETATM   19  C32 UNL     1      30.334 -11.095   9.667  1.00  0.00     0.012 C
BRANCH   9  20
HETATM   20  O4  UNL     1      34.516  -9.897   8.765  1.00  0.00    -0.388 OA
ATOM     21  H4  UNL     1      33.838 -10.000   8.108  1.00  0.00     0.210 HD
ENDBRANCH   9  20
BRANCH  10  22
HETATM   22  C5  UNL     1      36.122  -8.169  11.007  1.00  0.00     0.126 C
BRANCH  22  23
HETATM   23  C6  UNL     1      36.841  -9.461  10.939  1.00  0.00     0.259 C
HETATM   24  O2  UNL     1      37.212  -9.907   9.821  1.00  0.00    -0.265 OA
BRANCH  23  25
HETATM   25  O3  UNL     1      37.128 -10.212  12.076  1.00  0.00    -0.326 OA
HETATM   26  C7  UNL     1      38.313  -9.904  12.780  1.00  0.00     0.213 C
ENDBRANCH  23  25
ENDBRANCH  22  23
ENDBRANCH  10  22
ENDBRANCH   6   7
ENDBRANCH   4   6
ENDBRANCH   1   4
BRANCH   1  27
HETATM   27  C13 UNL     1      34.462 -11.889  13.507  1.00  0.00     0.160 C
HETATM   28 CL1  UNL     1      35.454 -13.151  14.273  1.00  0.00    -0.125 Cl
ENDBRANCH   1  27
BRANCH   2  29
HETATM   29  C16 UNL     1      32.333 -13.535  14.564  1.00  0.00     0.004 C
HETATM   30  C17 UNL     1      31.852 -12.557  15.517  1.00  0.00    -0.021 C
BRANCH  30  31
HETATM   31  C18 UNL     1      30.518 -11.909  15.458  1.00  0.00     0.015 C
HETATM   32  C19 UNL     1      30.453 -10.672  16.251  1.00  0.00     0.009 C
HETATM   33  C20 UNL     1      29.340 -10.781  17.255  1.00  0.00     0.005 C
HETATM   34  C21 UNL     1      28.843 -12.165  17.139  1.00  0.00    -0.011 C
HETATM   35  C22 UNL     1      29.086 -12.997  18.386  1.00  0.00     0.010 C
HETATM   36  C23 UNL     1      29.409 -12.779  15.906  1.00  0.00     0.031 C
BRANCH  36  37
HETATM   37  C24 UNL     1      28.362 -13.065  14.859  1.00  0.00     0.065 C
HETATM   38  C25 UNL     1      26.960 -12.836  15.367  1.00  0.00     0.046 C
HETATM   39  C26 UNL     1      28.557 -12.037  13.755  1.00  0.00     0.072 C
HETATM   40  C27 UNL     1      27.393 -12.240  12.802  1.00  0.00     0.152 C
HETATM   41  C28 UNL     1      27.512 -13.634  12.272  1.00  0.00     0.175 C
HETATM   42  C29 UNL     1      27.808 -14.684  13.289  1.00  0.00     0.149 C
HETATM   43  C30 UNL     1      28.570 -15.800  12.551  1.00  0.00     0.042 C
HETATM   44  O9  UNL     1      28.594 -14.307  14.343  1.00  0.00    -0.372 OA
BRANCH  40  45
HETATM   45  O7  UNL     1      27.610 -11.358  11.729  1.00  0.00    -0.393 OA
ATOM     46  H7  UNL     1      26.753 -11.038  11.474  1.00  0.00     0.210 HD
ENDBRANCH  40  45
BRANCH  41  47
HETATM   47  O8  UNL     1      26.324 -14.002  11.615  1.00  0.00    -0.390 OA
ATOM     48  H8  UNL     1      26.373 -13.763  10.698  1.00  0.00     0.210 HD
ENDBRANCH  41  47
ENDBRANCH  36  37
ENDBRANCH  30  31
ENDBRANCH   2  29
TORSDOF 13
ENDMDL