MODEL 4
REMARK VINA RESULT: -4.804917945      7.740     10.651
REMARK  9 active torsions:
REMARK  status: ('A' for Active; 'I' for Inactive)
REMARK    1  A    between atoms: O1_2  and  C2_3
REMARK    2  A    between atoms: C2_3  and  O2_4
REMARK    3  A    between atoms: O2_4  and  C3_5
REMARK    4  A    between atoms: C3_5  and  C4_6
REMARK    5  A    between atoms: C18_22  and  O5_23
REMARK    6  A    between atoms: C19_25  and  O6_26
REMARK    7  A    between atoms: O6_26  and  C20_27
REMARK    8  A    between atoms: C24_32  and  O8_33
REMARK    9  A    between atoms: O8_33  and  C25_34
ROOT
HETATM    1  C4  UNL     1      23.214  -1.168  14.514  1.00  0.00     0.013 A
HETATM    2  C5  UNL     1      23.884   0.154  14.083  1.00  0.00     0.014 A
HETATM    3  C6  UNL     1      23.340   1.180  14.709  1.00  0.00    -0.006 C
HETATM    4  C7  UNL     1      23.869   2.524  14.365  1.00  0.00     0.011 C
HETATM    5  C8  UNL     1      22.476   1.007  15.868  1.00  0.00     0.022 C
HETATM    6  C9  UNL     1      23.493   0.129  16.737  1.00  0.00     0.028 C
HETATM    7  C10 UNL     1      22.972  -0.984  15.891  1.00  0.00     0.059 C
HETATM    8  C11 UNL     1      23.040  -2.297  16.592  1.00  0.00     0.140 C
HETATM    9  O3  UNL     1      21.992  -2.791  16.951  1.00  0.00    -0.297 OA
HETATM   10  C12 UNL     1      24.254  -3.050  16.891  1.00  0.00     0.091 C
HETATM   11  C13 UNL     1      25.073  -3.544  15.755  1.00  0.00     0.004 C
HETATM   12  C14 UNL     1      24.253  -4.391  14.841  1.00  0.00     0.019 C
HETATM   13  C15 UNL     1      26.033  -4.547  16.454  1.00  0.00     0.020 C
HETATM   14  C16 UNL     1      27.348  -4.458  15.768  1.00  0.00     0.083 C
HETATM   15  C17 UNL     1      27.036  -3.601  14.634  1.00  0.00     0.164 C
HETATM   16  O4  UNL     1      27.495  -3.652  13.532  1.00  0.00    -0.295 OA
HETATM   17  C18 UNL     1      26.005  -2.610  15.096  1.00  0.00     0.152 C
HETATM   18  C19 UNL     1      25.662  -1.681  14.050  1.00  0.00     0.184 C
HETATM   19  C22 UNL     1      24.280  -1.294  13.650  1.00  0.00     0.002 A
HETATM   20  C23 UNL     1      24.072  -1.313  12.146  1.00  0.00     0.019 C
HETATM   21  C24 UNL     1      21.653  -0.205  16.082  1.00  0.00     0.153 C
ENDROOT
BRANCH   1  22
HETATM   22  C3  UNL     1      21.833  -1.391  13.768  1.00  0.00     0.182 C
BRANCH  22  23
HETATM   23  O2  UNL     1      21.663  -2.720  13.497  1.00  0.00    -0.366 OA
BRANCH  23  24
HETATM   24  C2  UNL     1      20.754  -2.840  12.459  1.00  0.00     0.337 C
BRANCH  24  25
HETATM   25  O1  UNL     1      19.944  -1.732  12.314  1.00  0.00    -0.372 OA
HETATM   26  C1  UNL     1      18.853  -2.101  11.528  1.00  0.00     0.204 C
ENDBRANCH  24  25
ENDBRANCH  23  24
ENDBRANCH  22  23
ENDBRANCH   1  22
BRANCH  21  27
HETATM   27  O8  UNL     1      21.293  -0.349  17.463  1.00  0.00    -0.315 OA
BRANCH  27  28
HETATM   28  C25 UNL     1      19.958  -0.191  17.879  1.00  0.00     0.255 C
HETATM   29  C26 UNL     1      19.180  -1.377  18.295  1.00  0.00     0.126 C
HETATM   30  O9  UNL     1      19.518   0.978  17.865  1.00  0.00    -0.266 OA
ENDBRANCH  27  28
ENDBRANCH  21  27
BRANCH  18  31
HETATM   31  O6  UNL     1      26.330  -0.433  14.348  1.00  0.00    -0.312 OA
BRANCH  31  32
HETATM   32  C20 UNL     1      27.430   0.054  13.717  1.00  0.00     0.255 C
HETATM   33  C21 UNL     1      27.362   1.003  12.556  1.00  0.00     0.126 C
HETATM   34  O7  UNL     1      28.565  -0.306  14.122  1.00  0.00    -0.266 OA
ENDBRANCH  31  32
ENDBRANCH  18  31
BRANCH  17  35
HETATM   35  O5  UNL     1      26.723  -1.968  16.149  1.00  0.00    -0.379 OA
ATOM     36  H5  UNL     1      27.614  -1.870  15.833  1.00  0.00     0.211 HD
ENDBRANCH  17  35
TORSDOF 9
ENDMDL