MODEL 3
REMARK VINA RESULT: -6.215038068      2.405      4.505
REMARK  6 active torsions:
REMARK  status: ('A' for Active; 'I' for Inactive)
REMARK       I    between atoms: C3_3  and  N1_5
REMARK    1  A    between atoms: C13_16  and  C14_17
REMARK    2  A    between atoms: C18_23  and  C19_24
REMARK    3  A    between atoms: C19_24  and  O6_26
REMARK    4  A    between atoms: O6_26  and  C20_27
REMARK    5  A    between atoms: C20_27  and  C21_28
REMARK    6  A    between atoms: C21_28  and  C22_29
ROOT
HETATM    1  C1  UNL     1      22.934  -2.696   3.116  1.00  0.00     0.108 C
HETATM    2  C2  UNL     1      23.459  -1.709   3.626  1.00  0.00    -0.088 C
HETATM    3  C3  UNL     1      24.044  -0.551   4.204  1.00  0.00     0.286 C
HETATM    4  O1  UNL     1      23.568   0.552   3.791  1.00  0.00    -0.259 OA
HETATM    5  N1  UNL     1      25.093  -0.627   5.180  1.00  0.00    -0.331 N
HETATM    6  C4  UNL     1      25.462  -1.963   5.474  1.00  0.00     0.132 C
HETATM    7  C5  UNL     1      26.885  -2.324   5.654  1.00  0.00     0.008 C
HETATM    8  C6  UNL     1      27.018  -3.834   5.532  1.00  0.00     0.012 C
HETATM    9  C7  UNL     1      27.486  -1.964   6.970  1.00  0.00     0.044 C
HETATM   10  C8  UNL     1      26.747  -2.423   8.178  1.00  0.00     0.175 C
HETATM   11  O2  UNL     1      26.054  -1.198   8.127  1.00  0.00    -0.384 OA
HETATM   12  C9  UNL     1      27.054  -0.605   7.463  1.00  0.00     0.134 C
HETATM   13  C10 UNL     1      26.931   0.361   6.380  1.00  0.00     0.044 C
HETATM   14  C11 UNL     1      27.611   1.676   6.757  1.00  0.00     0.010 C
HETATM   15  C12 UNL     1      26.676   2.766   7.080  1.00  0.00     0.006 C
HETATM   16  C13 UNL     1      25.357   2.237   7.592  1.00  0.00     0.010 C
HETATM   17  C18 UNL     1      24.704   1.503   6.446  1.00  0.00     0.118 C
HETATM   18  C25 UNL     1      25.611   0.599   5.705  1.00  0.00     0.051 C
HETATM   19  C26 UNL     1      26.036   1.356   4.395  1.00  0.00     0.040 C
ENDROOT
BRANCH  17  20
HETATM   20  C19 UNL     1      23.390   1.054   6.854  1.00  0.00     0.265 C
HETATM   21  O5  UNL     1      22.341   1.594   6.428  1.00  0.00    -0.265 OA
BRANCH  20  22
HETATM   22  O6  UNL     1      23.125   0.008   7.732  1.00  0.00    -0.321 OA
BRANCH  22  23
HETATM   23  C20 UNL     1      22.284  -1.064   7.454  1.00  0.00     0.186 C
BRANCH  23  24
HETATM   24  C21 UNL     1      21.451  -1.335   8.691  1.00  0.00     0.111 C
BRANCH  24  25
HETATM   25  C22 UNL     1      20.220  -0.503   8.711  1.00  0.00     0.125 A
HETATM   26  N2  UNL     1      19.917   0.430   7.808  1.00  0.00    -0.348 N
HETATM   27  C23 UNL     1      18.722   0.968   8.162  1.00  0.00     0.114 A
ATOM     28  H2  UNL     1      20.480   0.692   6.998  1.00  0.00     0.167 HD
HETATM   29  C24 UNL     1      18.333   0.321   9.303  1.00  0.00     0.161 A
HETATM   30  O7  UNL     1      19.268  -0.548   9.583  1.00  0.00    -0.308 OA
ENDBRANCH  24  25
ENDBRANCH  23  24
ENDBRANCH  22  23
ENDBRANCH  20  22
ENDBRANCH  17  20
BRANCH  16  31
HETATM   31  C14 UNL     1      24.597   3.435   8.076  1.00  0.00     0.038 C
HETATM   32  C15 UNL     1      24.754   4.675   7.237  1.00  0.00     0.177 C
HETATM   33  O3  UNL     1      24.097   5.697   7.971  1.00  0.00    -0.367 OA
HETATM   34  C16 UNL     1      24.983   6.082   8.974  1.00  0.00     0.337 C
HETATM   35  O4  UNL     1      25.787   5.015   9.391  1.00  0.00    -0.367 OA
HETATM   36  C17 UNL     1      25.090   3.830   9.466  1.00  0.00     0.177 C
ENDBRANCH  16  31
TORSDOF 6
ENDMDL