MODEL 3
REMARK VINA RESULT: -6.336570294      5.151      9.342
REMARK  6 active torsions:
REMARK  status: ('A' for Active; 'I' for Inactive)
REMARK    1  A    between atoms: O1_2  and  C2_3
REMARK    2  A    between atoms: N1_5  and  C4_6
REMARK    3  A    between atoms: C5_9  and  C6_10
REMARK       I    between atoms: C6_10  and  N3_12
REMARK    4  A    between atoms: C14_20  and  O3_21
REMARK    5  A    between atoms: C18_28  and  N5_29
REMARK       I    between atoms: N5_29  and  C20_31
REMARK       I    between atoms: C20_31  and  N6_33
REMARK    6  A    between atoms: N6_33  and  C21_35
ROOT
HETATM    1  C4  UNL     1      24.504   2.990   7.165  1.00  0.00     0.165 A
HETATM    2  N2  UNL     1      24.495   3.621   8.321  1.00  0.00    -0.317 N
ATOM      3  H2  UNL     1      24.216   3.130   9.170  1.00  0.00     0.169 HD
HETATM    4  C5  UNL     1      24.843   4.871   8.374  1.00  0.00     0.183 A
HETATM    5  N4  UNL     1      25.196   5.460   7.223  1.00  0.00    -0.305 N
ATOM      6  H4  UNL     1      25.495   6.422   7.065  1.00  0.00     0.176 HD
HETATM    7  S1  UNL     1      25.025   4.216   6.102  1.00  0.00     0.024 SA
ENDROOT
BRANCH   1   8
HETATM    8  N1  UNL     1      24.150   1.612   6.892  1.00  0.00    -0.356 N
HETATM    9  C3  UNL     1      24.935   0.510   7.401  1.00  0.00     0.159 C
HETATM   10  C2  UNL     1      24.082  -0.730   7.172  1.00  0.00     0.163 C
HETATM   11  C18 UNL     1      23.348  -0.332   5.913  1.00  0.00     0.137 C
HETATM   12  C17 UNL     1      23.039   1.139   6.109  1.00  0.00     0.153 C
BRANCH  10  13
HETATM   13  O1  UNL     1      23.306  -1.076   8.231  1.00  0.00    -0.387 OA
HETATM   14  C1  UNL     1      23.999  -1.314   9.401  1.00  0.00     0.202 C
ENDBRANCH  10  13
BRANCH  11  15
HETATM   15  N5  UNL     1      22.205  -1.098   5.589  1.00  0.00    -0.330 N
HETATM   16  C19 UNL     1      22.203  -2.031   4.433  1.00  0.00     0.155 C
HETATM   17  C20 UNL     1      21.008  -1.020   6.328  1.00  0.00     0.318 C
HETATM   18  O4  UNL     1      20.022  -1.801   6.010  1.00  0.00    -0.247 OA
HETATM   19  N6  UNL     1      20.805  -0.147   7.389  1.00  0.00    -0.339 N
ATOM     20  H6  UNL     1      21.550   0.490   7.674  1.00  0.00     0.164 HD
BRANCH  19  21
HETATM   21  C21 UNL     1      19.518  -0.138   8.103  1.00  0.00     0.078 C
HETATM   22  C22 UNL     1      19.675  -0.739   9.460  1.00  0.00     0.032 C
HETATM   23  C23 UNL     1      18.909   1.237   8.084  1.00  0.00     0.032 C
ENDBRANCH  19  21
ENDBRANCH  11  15
ENDBRANCH   1   8
BRANCH   4  24
HETATM   24  C6  UNL     1      24.849   5.612   9.660  1.00  0.00     0.288 C
HETATM   25  O2  UNL     1      24.833   6.898   9.642  1.00  0.00    -0.264 OA
HETATM   26  N3  UNL     1      24.872   4.929  10.902  1.00  0.00    -0.345 N
HETATM   27  C7  UNL     1      24.890   3.525  11.114  1.00  0.00     0.127 C
HETATM   28  C16 UNL     1      24.887   5.599  12.199  1.00  0.00     0.138 C
HETATM   29  C8  UNL     1      24.879   3.263  12.628  1.00  0.00     0.033 C
HETATM   30  C9  UNL     1      24.274   4.570  13.113  1.00  0.00     0.004 C
HETATM   31  C10 UNL     1      22.796   4.584  12.975  1.00  0.00     0.014 C
HETATM   32  C14 UNL     1      24.689   4.899  14.548  1.00  0.00     0.131 C
HETATM   33  C11 UNL     1      22.088   4.237  14.258  1.00  0.00     0.001 C
HETATM   34  C12 UNL     1      22.856   3.313  15.162  1.00  0.00     0.002 C
HETATM   35  C13 UNL     1      24.236   3.813  15.493  1.00  0.00     0.033 C
BRANCH  32  36
HETATM   36  O3  UNL     1      24.173   6.129  14.831  1.00  0.00    -0.390 OA
HETATM   37  C15 UNL     1      24.447   6.698  16.032  1.00  0.00     0.202 C
ENDBRANCH  32  36
ENDBRANCH   4  24
TORSDOF 6
ENDMDL