MODEL 3
REMARK VINA RESULT: -6.273674288      4.660      6.820
REMARK  8 active torsions:
REMARK  status: ('A' for Active; 'I' for Inactive)
REMARK    1  A    between atoms: C2_2  and  O1_3
REMARK    2  A    between atoms: O1_3  and  C3_4
REMARK    3  A    between atoms: C3_4  and  C4_6
REMARK    4  A    between atoms: C4_6  and  N1_7
REMARK       I    between atoms: N2_10  and  C7_11
REMARK    5  A    between atoms: C7_11  and  C8_13
REMARK    6  A    between atoms: C8_13  and  C9_14
REMARK    7  A    between atoms: C20_26  and  C21_27
REMARK    8  A    between atoms: C21_27  and  O6_29
ROOT
HETATM    1  C9  UNL     1      23.789  -1.398   6.842  1.00  0.00     0.043 C
HETATM    2  C10 UNL     1      25.115  -1.749   7.584  1.00  0.00     0.175 C
HETATM    3  O4  UNL     1      25.703  -0.489   7.496  1.00  0.00    -0.383 OA
HETATM    4  C11 UNL     1      25.803  -0.297   6.090  1.00  0.00     0.144 C
HETATM    5  C12 UNL     1      26.837  -1.261   5.628  1.00  0.00     0.034 C
HETATM    6  C13 UNL     1      27.981  -0.730   4.847  1.00  0.00     0.002 C
HETATM    7  C14 UNL     1      27.770  -0.197   3.501  1.00  0.00     0.000 C
HETATM    8  C15 UNL     1      27.873  -1.087   2.329  1.00  0.00     0.000 C
HETATM    9  C16 UNL     1      27.197  -2.403   2.341  1.00  0.00     0.000 C
HETATM   10  C17 UNL     1      25.763  -2.356   1.813  1.00  0.00     0.000 C
HETATM   11  C18 UNL     1      24.809  -3.207   2.578  1.00  0.00     0.002 C
HETATM   12  C19 UNL     1      23.426  -2.693   2.707  1.00  0.00     0.035 C
HETATM   13  C20 UNL     1      23.180  -1.689   3.805  1.00  0.00     0.177 C
HETATM   14  N3  UNL     1      24.369  -1.231   4.410  1.00  0.00    -0.402 N
ATOM     15  H3  UNL     1      25.249  -1.306   3.902  1.00  0.00     0.154 HD
HETATM   16  C23 UNL     1      24.364  -0.674   5.698  1.00  0.00     0.113 C
ENDROOT
BRANCH   1  17
HETATM   17  C8  UNL     1      23.101  -0.570   7.889  1.00  0.00     0.112 C
BRANCH  17  18
HETATM   18  C7  UNL     1      21.957   0.212   7.499  1.00  0.00     0.220 C
HETATM   19  N2  UNL     1      20.705  -0.058   8.094  1.00  0.00    -0.349 N
HETATM   20  C6  UNL     1      20.530  -1.097   9.081  1.00  0.00     0.145 C
HETATM   21  C24 UNL     1      19.529   0.704   7.734  1.00  0.00     0.145 C
HETATM   22  C5  UNL     1      19.374  -0.699  10.008  1.00  0.00     0.137 C
HETATM   23  N1  UNL     1      18.162  -0.686   9.230  1.00  0.00    -0.400 N
HETATM   24  C25 UNL     1      18.298  -0.150   7.911  1.00  0.00     0.137 C
HETATM   25  O3  UNL     1      22.045   1.118   6.650  1.00  0.00    -0.273 OA
BRANCH  23  26
HETATM   26  C4  UNL     1      16.986  -0.294   9.930  1.00  0.00     0.228 C
BRANCH  26  27
HETATM   27  C3  UNL     1      16.037  -1.399  10.182  1.00  0.00     0.276 C
HETATM   28  O2  UNL     1      16.026  -1.946  11.308  1.00  0.00    -0.263 OA
BRANCH  27  29
HETATM   29  O1  UNL     1      15.151  -1.863   9.226  1.00  0.00    -0.321 OA
BRANCH  29  30
HETATM   30  C2  UNL     1      14.675  -1.079   8.159  1.00  0.00     0.174 C
HETATM   31  C1  UNL     1      15.072  -1.738   6.852  1.00  0.00     0.034 C
ENDBRANCH  29  30
ENDBRANCH  27  29
ENDBRANCH  26  27
ENDBRANCH  23  26
ENDBRANCH  17  18
ENDBRANCH   1  17
BRANCH  13  32
HETATM   32  C21 UNL     1      22.462  -0.555   3.148  1.00  0.00     0.281 C
HETATM   33  O5  UNL     1      21.274  -0.745   2.797  1.00  0.00    -0.263 OA
BRANCH  32  34
HETATM   34  O6  UNL     1      23.025   0.681   2.907  1.00  0.00    -0.325 OA
HETATM   35  C22 UNL     1      23.907   0.955   1.834  1.00  0.00     0.213 C
ENDBRANCH  32  34
ENDBRANCH  13  32
TORSDOF 8
ENDMDL