MODEL 4
REMARK VINA RESULT: -7.431907820      2.616      5.299
REMARK  8 active torsions:
REMARK  status: ('A' for Active; 'I' for Inactive)
REMARK    1  A    between atoms: C1_2  and  C2_3
REMARK       I    between atoms: C1_2  and  N1_22
REMARK    2  A    between atoms: C2_3  and  O2_4
REMARK    3  A    between atoms: O2_4  and  C3_5
REMARK    4  A    between atoms: C3_5  and  C4_7
REMARK    5  A    between atoms: C4_7  and  S1_8
REMARK    6  A    between atoms: S1_8  and  C5_10
REMARK    7  A    between atoms: N1_22  and  C15_24
REMARK    8  A    between atoms: N3_29  and  C18_30
ROOT
HETATM    1  O2  UNL     1      20.867  -1.603  13.199  1.00  0.00    -0.311 OA
ENDROOT
BRANCH   1   2
HETATM    2  C2  UNL     1      20.499  -2.344  12.078  1.00  0.00     0.281 C
BRANCH   2   3
HETATM    3  C1  UNL     1      19.363  -1.817  11.289  1.00  0.00     0.247 C
HETATM    4  O1  UNL     1      18.276  -1.717  11.986  1.00  0.00    -0.271 OA
HETATM    5  N1  UNL     1      19.290  -1.437   9.983  1.00  0.00    -0.310 N
ATOM      6  H1  UNL     1      19.466  -2.237   9.375  1.00  0.00     0.170 HD
BRANCH   5   7
HETATM    7  C15 UNL     1      19.080  -0.431   9.306  1.00  0.00     0.128 A
HETATM    8  C16 UNL     1      18.001   0.436   9.529  1.00  0.00     0.069 A
HETATM    9  C17 UNL     1      18.051   1.431   8.610  1.00  0.00     0.111 A
HETATM   10  N2  UNL     1      19.110   1.198   7.849  1.00  0.00    -0.306 N
HETATM   11  N3  UNL     1      19.733   0.077   8.262  1.00  0.00    -0.247 N
ATOM     12  H2  UNL     1      19.409   1.779   7.066  1.00  0.00     0.186 HD
BRANCH  11  13
HETATM   13  C18 UNL     1      20.915  -0.406   7.596  1.00  0.00     0.245 C
HETATM   14  C19 UNL     1      20.455  -1.200   6.368  1.00  0.00     0.056 C
HETATM   15  C20 UNL     1      21.687  -1.973   5.907  1.00  0.00     0.006 C
HETATM   16  C21 UNL     1      22.810  -0.954   5.807  1.00  0.00     0.026 C
HETATM   17  C22 UNL     1      22.261   0.443   5.929  1.00  0.00     0.170 C
HETATM   18  O7  UNL     1      21.670   0.685   7.144  1.00  0.00    -0.365 OA
ENDBRANCH  11  13
ENDBRANCH   5   7
ENDBRANCH   2   3
ENDBRANCH   1   2
BRANCH   1  19
HETATM   19  C3  UNL     1      21.789  -1.993  14.110  1.00  0.00     0.270 C
HETATM   20  O3  UNL     1      21.719  -1.651  15.315  1.00  0.00    -0.264 OA
BRANCH  19  21
HETATM   21  C4  UNL     1      22.968  -2.859  13.786  1.00  0.00     0.220 C
BRANCH  21  22
HETATM   22  S1  UNL     1      24.436  -1.902  13.604  1.00  0.00     0.038 S
HETATM   23  O4  UNL     1      24.101  -0.259  13.707  1.00  0.00    -0.257 OA
BRANCH  22  24
HETATM   24  C5  UNL     1      25.161  -2.187  12.007  1.00  0.00     0.179 C
HETATM   25  C6  UNL     1      24.341  -3.158  11.202  1.00  0.00     0.028 C
HETATM   26  C7  UNL     1      23.356  -2.605  10.272  1.00  0.00     0.002 C
HETATM   27  C8  UNL     1      23.513  -1.248   9.732  1.00  0.00     0.000 C
HETATM   28  C9  UNL     1      24.643  -0.921   8.855  1.00  0.00     0.000 C
HETATM   29  C10 UNL     1      25.442  -2.023   8.277  1.00  0.00     0.000 C
HETATM   30  C11 UNL     1      26.869  -2.128   8.676  1.00  0.00     0.002 C
HETATM   31  C12 UNL     1      27.539  -0.899   9.172  1.00  0.00     0.027 C
HETATM   32  C13 UNL     1      27.666  -0.862  10.700  1.00  0.00     0.178 C
HETATM   33  O5  UNL     1      27.543  -2.125  11.274  1.00  0.00    -0.321 OA
HETATM   34  C14 UNL     1      26.573  -2.618  12.094  1.00  0.00     0.275 C
HETATM   35  O6  UNL     1      26.865  -3.471  12.962  1.00  0.00    -0.264 OA
ENDBRANCH  22  24
ENDBRANCH  21  22
ENDBRANCH  19  21
ENDBRANCH   1  19
TORSDOF 8
ENDMDL