MODEL 5
REMARK VINA RESULT: -6.444885855      3.458      7.866
REMARK  9 active torsions:
REMARK  status: ('A' for Active; 'I' for Inactive)
REMARK    1  A    between atoms: C2_2  and  O2_4
REMARK    2  A    between atoms: O2_4  and  C3_5
REMARK    3  A    between atoms: C3_5  and  C4_6
REMARK    4  A    between atoms: C4_6  and  S1_7
REMARK    5  A    between atoms: S1_7  and  C5_10
REMARK    6  A    between atoms: C8_13  and  O5_14
REMARK    7  A    between atoms: C10_17  and  C11_18
REMARK    8  A    between atoms: C16_24  and  O7_25
REMARK    9  A    between atoms: O7_25  and  C17_26
ROOT
HETATM    1  C5  UNL     1      25.393  -0.684   3.515  1.00  0.00     0.072 C
HETATM    2  C6  UNL     1      24.568   0.559   3.315  1.00  0.00     0.029 C
HETATM    3  C7  UNL     1      23.358   0.434   2.484  1.00  0.00     0.039 C
HETATM    4  C8  UNL     1      22.289  -0.446   3.092  1.00  0.00     0.059 C
HETATM    5  C9  UNL     1      21.938  -0.140   4.497  1.00  0.00     0.043 C
HETATM    6  C10 UNL     1      22.459  -1.216   5.463  1.00  0.00     0.003 C
HETATM    7  C19 UNL     1      23.928  -1.249   5.546  1.00  0.00     0.016 C
HETATM    8  C20 UNL     1      24.729  -1.689   4.387  1.00  0.00    -0.018 C
HETATM    9  C21 UNL     1      25.738  -2.762   4.844  1.00  0.00     0.017 C
HETATM   10  C22 UNL     1      24.034  -2.259   3.217  1.00  0.00    -0.000 C
HETATM   11  C23 UNL     1      22.674  -1.873   2.854  1.00  0.00     0.043 C
HETATM   12  C24 UNL     1      25.148  -1.695   2.359  1.00  0.00     0.031 C
ENDROOT
BRANCH   6  13
HETATM   13  C11 UNL     1      21.865  -0.843   6.800  1.00  0.00     0.089 C
HETATM   14  C12 UNL     1      20.409  -1.168   6.858  1.00  0.00     0.134 C
HETATM   15  O6  UNL     1      19.862  -1.944   6.130  1.00  0.00    -0.297 OA
HETATM   16  C13 UNL     1      19.627  -0.460   7.904  1.00  0.00     0.079 C
HETATM   17  C14 UNL     1      20.355  -0.807   9.215  1.00  0.00     0.010 C
HETATM   18  C15 UNL     1      21.355  -1.923   8.960  1.00  0.00     0.034 C
HETATM   19  C16 UNL     1      22.491  -1.420   8.012  1.00  0.00     0.143 C
BRANCH  19  20
HETATM   20  O7  UNL     1      23.153  -0.450   8.837  1.00  0.00    -0.316 OA
BRANCH  20  21
HETATM   21  C17 UNL     1      24.476  -0.656   9.148  1.00  0.00     0.255 C
HETATM   22  C18 UNL     1      25.050  -2.021   8.975  1.00  0.00     0.126 C
HETATM   23  O8  UNL     1      25.231   0.249   9.573  1.00  0.00    -0.266 OA
ENDBRANCH  20  21
ENDBRANCH  19  20
ENDBRANCH   6  13
BRANCH   4  24
HETATM   24  O5  UNL     1      21.131  -0.222   2.305  1.00  0.00    -0.390 OA
ATOM     25  H5  UNL     1      20.407  -0.229   2.919  1.00  0.00     0.210 HD
ENDBRANCH   4  24
BRANCH   1  26
HETATM   26  S1  UNL     1      27.084  -0.303   3.703  1.00  0.00     0.155 S
HETATM   27  O3  UNL     1      27.513   0.941   2.903  1.00  0.00    -0.227 OA
HETATM   28  O4  UNL     1      27.938  -1.378   2.967  1.00  0.00    -0.227 OA
BRANCH  26  29
HETATM   29  C4  UNL     1      27.765  -0.264   5.296  1.00  0.00     0.168 C
BRANCH  29  30
HETATM   30  C3  UNL     1      27.643   1.019   6.028  1.00  0.00     0.193 C
BRANCH  30  31
HETATM   31  O2  UNL     1      26.296   1.127   6.598  1.00  0.00    -0.321 OA
BRANCH  31  32
HETATM   32  C2  UNL     1      25.541   2.231   6.274  1.00  0.00     0.254 C
HETATM   33  C1  UNL     1      24.164   2.331   6.853  1.00  0.00     0.126 C
HETATM   34  O1  UNL     1      26.017   3.102   5.520  1.00  0.00    -0.266 OA
ENDBRANCH  31  32
ENDBRANCH  30  31
ENDBRANCH  29  30
ENDBRANCH  26  29
ENDBRANCH   1  26
TORSDOF 9
ENDMDL