MODEL 1
REMARK VINA RESULT: -7.234565195      0.000      0.000
REMARK  8 active torsions:
REMARK  status: ('A' for Active; 'I' for Inactive)
REMARK    1  A    between atoms: C2_2  and  N1_3
REMARK       I    between atoms: N1_3  and  C3_4
REMARK    2  A    between atoms: N1_3  and  C18_31
REMARK    3  A    between atoms: C3_4  and  O2_6
REMARK    4  A    between atoms: O2_6  and  C4_7
REMARK    5  A    between atoms: C4_7  and  C5_8
REMARK    6  A    between atoms: N2_13  and  C9_14
REMARK    7  A    between atoms: C10_17  and  N4_18
REMARK    8  A    between atoms: N4_18  and  C11_20
ROOT
HETATM    1  C5  UNL     1      26.411  -2.173   9.503  1.00  0.00     0.030 C
HETATM    2  C6  UNL     1      27.660  -1.427   9.298  1.00  0.00     0.017 C
HETATM    3  C7  UNL     1      27.476   0.078   9.299  1.00  0.00     0.104 C
HETATM    4  C8  UNL     1      26.055   0.434   9.034  1.00  0.00     0.238 C
HETATM    5  O3  UNL     1      25.598   1.544   9.432  1.00  0.00    -0.273 OA
HETATM    6  N2  UNL     1      25.183  -0.437   8.342  1.00  0.00    -0.150 N
HETATM    7  C17 UNL     1      25.400  -1.857   8.385  1.00  0.00     0.157 C
ENDROOT
BRANCH   1   8
HETATM    8  C4  UNL     1      25.722  -2.179  10.811  1.00  0.00     0.186 C
BRANCH   8   9
HETATM    9  O2  UNL     1      24.577  -2.855  10.982  1.00  0.00    -0.303 OA
BRANCH   9  10
HETATM   10  C3  UNL     1      23.257  -2.642  11.057  1.00  0.00     0.363 C
HETATM   11  N1  UNL     1      22.585  -2.274  12.292  1.00  0.00    -0.321 N
HETATM   12  O1  UNL     1      22.576  -2.765  10.012  1.00  0.00    -0.238 OA
BRANCH  11  13
HETATM   13  C2  UNL     1      21.169  -2.074  12.229  1.00  0.00     0.124 C
HETATM   14  C1  UNL     1      20.372  -3.364  12.328  1.00  0.00     0.026 C
ENDBRANCH  11  13
BRANCH  11  15
HETATM   15  C18 UNL     1      23.371  -2.130  13.503  1.00  0.00     0.120 C
HETATM   16  C19 UNL     1      23.704  -3.415  14.180  1.00  0.00     0.054 C
HETATM   17  C20 UNL     1      22.795  -3.794  15.299  1.00  0.00     0.173 C
HETATM   18  O4  UNL     1      23.203  -3.163  16.464  1.00  0.00    -0.361 OA
HETATM   19  C21 UNL     1      22.813  -1.844  16.465  1.00  0.00     0.260 C
HETATM   20  C22 UNL     1      23.964  -0.882  16.315  1.00  0.00     0.063 C
HETATM   21  O5  UNL     1      21.959  -1.630  15.406  1.00  0.00    -0.354 OA
HETATM   22  C23 UNL     1      23.632  -0.161  15.025  1.00  0.00     0.039 C
HETATM   23  C24 UNL     1      22.669  -1.125  14.363  1.00  0.00     0.147 C
ENDBRANCH  11  15
ENDBRANCH   9  10
ENDBRANCH   8   9
ENDBRANCH   1   8
BRANCH   6  24
HETATM   24  C9  UNL     1      24.070   0.034   7.580  1.00  0.00     0.702 A
HETATM   25  N3  UNL     1      22.825  -0.427   7.797  1.00  0.00    -0.022 N
HETATM   26  C10 UNL     1      21.773   0.022   7.074  1.00  0.00     0.693 A
ATOM     27  H3  UNL     1      22.671  -1.128   8.521  1.00  0.00     0.203 HD
HETATM   28  N5  UNL     1      22.034   0.948   6.129  1.00  0.00    -0.187 N
HETATM   29  C16 UNL     1      23.267   1.427   5.889  1.00  0.00     0.215 A
ATOM     30  H5  UNL     1      21.259   1.303   5.569  1.00  0.00     0.185 HD
HETATM   31  N6  UNL     1      24.295   0.955   6.632  1.00  0.00    -0.186 N
ATOM     32  H6  UNL     1      25.241   1.300   6.471  1.00  0.00     0.185 HD
BRANCH  26  33
HETATM   33  N4  UNL     1      20.574  -0.415   7.279  1.00  0.00    -0.221 N
ATOM     34  H4  UNL     1      20.144  -1.074   6.629  1.00  0.00     0.178 HD
BRANCH  33  35
HETATM   35  C11 UNL     1      19.860   0.040   8.433  1.00  0.00     0.099 C
HETATM   36  C12 UNL     1      19.436  -1.104   9.350  1.00  0.00     0.026 C
HETATM   37  C13 UNL     1      18.462  -0.367  10.276  1.00  0.00     0.002 C
HETATM   38  C14 UNL     1      17.766   0.648   9.378  1.00  0.00     0.002 C
HETATM   39  C15 UNL     1      18.504   0.630   8.068  1.00  0.00     0.026 C
ENDBRANCH  33  35
ENDBRANCH  26  33
ENDBRANCH   6  24
TORSDOF 8
ENDMDL