MODEL 3
REMARK VINA RESULT: -6.314295375      1.366      2.324
REMARK  9 active torsions:
REMARK  status: ('A' for Active; 'I' for Inactive)
REMARK    1  A    between atoms: C2_2  and  O2_4
REMARK    2  A    between atoms: O2_4  and  C3_5
REMARK    3  A    between atoms: C3_5  and  C4_6
REMARK    4  A    between atoms: C4_6  and  O4_8
REMARK    5  A    between atoms: O4_8  and  C5_9
REMARK    6  A    between atoms: C5_9  and  C6_10
REMARK    7  A    between atoms: C6_10  and  O5_11
REMARK    8  A    between atoms: O5_11  and  C7_12
REMARK    9  A    between atoms: C7_12  and  C8_14
ROOT
HETATM    1  C3  UNL     1      23.513  -2.099  12.498  1.00  0.00     0.255 C
HETATM    2  C18 UNL     1      23.979  -3.536  12.026  1.00  0.00     0.271 C
HETATM    3  O7  UNL     1      23.805  -3.914  10.861  1.00  0.00    -0.269 OA
HETATM    4  N1  UNL     1      24.539  -4.095  13.164  1.00  0.00    -0.294 N
ATOM      5  H1  UNL     1      25.316  -4.755  13.164  1.00  0.00     0.171 HD
HETATM    6  C19 UNL     1      23.886  -3.623  14.326  1.00  0.00     0.238 C
HETATM    7  O8  UNL     1      23.746  -4.291  15.362  1.00  0.00    -0.272 OA
HETATM    8  C20 UNL     1      23.450  -2.206  13.962  1.00  0.00     0.107 A
HETATM    9  C21 UNL     1      22.545  -1.641  14.946  1.00  0.00    -0.018 A
HETATM   10  C22 UNL     1      21.490  -0.592  14.727  1.00  0.00     0.017 C
HETATM   11  C23 UNL     1      22.223  -2.451  16.232  1.00  0.00     0.017 C
HETATM   12  C24 UNL     1      24.019  -1.174  14.865  1.00  0.00    -0.018 A
HETATM   13  C25 UNL     1      24.900  -1.541  16.042  1.00  0.00     0.017 C
HETATM   14  C26 UNL     1      24.123   0.279  14.542  1.00  0.00     0.017 C
ENDROOT
BRANCH   1  15
HETATM   15  O2  UNL     1      22.358  -2.013  11.820  1.00  0.00    -0.288 OA
BRANCH  15  16
HETATM   16  C2  UNL     1      21.131  -2.473  12.009  1.00  0.00     0.256 C
HETATM   17  C1  UNL     1      19.923  -1.705  11.564  1.00  0.00     0.126 C
HETATM   18  O1  UNL     1      20.939  -3.561  12.562  1.00  0.00    -0.266 OA
ENDBRANCH  15  16
ENDBRANCH   1  15
BRANCH   1  19
HETATM   19  C4  UNL     1      24.693  -1.367  11.942  1.00  0.00     0.305 C
HETATM   20  O3  UNL     1      25.815  -1.757  12.281  1.00  0.00    -0.261 OA
BRANCH  19  21
HETATM   21  O4  UNL     1      24.571  -0.321  11.101  1.00  0.00    -0.317 OA
BRANCH  21  22
HETATM   22  C5  UNL     1      24.883  -0.312   9.723  1.00  0.00     0.205 C
BRANCH  22  23
HETATM   23  C6  UNL     1      24.038  -1.209   8.885  1.00  0.00     0.205 C
BRANCH  23  24
HETATM   24  O5  UNL     1      23.327  -0.490   7.922  1.00  0.00    -0.319 OA
BRANCH  24  25
HETATM   25  C7  UNL     1      22.335  -0.995   7.131  1.00  0.00     0.267 C
HETATM   26  O6  UNL     1      21.264  -1.420   7.616  1.00  0.00    -0.264 OA
BRANCH  25  27
HETATM   27  C8  UNL     1      22.554  -1.031   5.656  1.00  0.00     0.049 C
HETATM   28  C9  UNL     1      23.928  -1.576   5.383  1.00  0.00     0.024 C
HETATM   29  C10 UNL     1      24.192  -1.608   3.895  1.00  0.00    -0.013 C
HETATM   30  C11 UNL     1      23.114  -2.452   3.241  1.00  0.00     0.009 C
HETATM   31  C15 UNL     1      24.139  -0.197   3.351  1.00  0.00     0.009 C
HETATM   32  C12 UNL     1      21.767  -1.837   3.487  1.00  0.00    -0.013 C
HETATM   33  C13 UNL     1      21.744  -0.443   2.909  1.00  0.00     0.009 C
HETATM   34  C17 UNL     1      21.459  -1.783   4.969  1.00  0.00     0.024 C
HETATM   35  C14 UNL     1      22.783   0.373   3.633  1.00  0.00    -0.013 C
HETATM   36  C16 UNL     1      22.536   0.402   5.118  1.00  0.00     0.024 C
ENDBRANCH  25  27
ENDBRANCH  24  25
ENDBRANCH  23  24
ENDBRANCH  22  23
ENDBRANCH  21  22
ENDBRANCH  19  21
ENDBRANCH   1  19
TORSDOF 9
ENDMDL