MODEL 5
REMARK VINA RESULT: -7.122462163      5.454      9.409
REMARK  6 active torsions:
REMARK  status: ('A' for Active; 'I' for Inactive)
REMARK    1  A    between atoms: C2_2  and  C3_3
REMARK    2  A    between atoms: C8_17  and  N2_18
REMARK    3  A    between atoms: N2_18  and  C9_20
REMARK    4  A    between atoms: C9_20  and  C10_21
REMARK    5  A    between atoms: C10_21  and  N3_22
REMARK    6  A    between atoms: C14_28  and  C15_29
ROOT
HETATM    1  C3  UNL     1      22.725  -2.235  14.624  1.00  0.00     0.147 C
HETATM    2  O1  UNL     1      23.966  -1.858  15.109  1.00  0.00    -0.356 OA
HETATM    3  C4  UNL     1      24.784  -2.698  15.714  1.00  0.00     0.311 A
HETATM    4  C5  UNL     1      25.516  -3.649  14.822  1.00  0.00     0.056 A
HETATM    5  N1  UNL     1      25.244  -4.752  15.397  1.00  0.00    -0.285 N
ATOM      6  H1  UNL     1      25.504  -5.715  15.184  1.00  0.00     0.178 HD
HETATM    7  S1  UNL     1      24.296  -4.070  16.645  1.00  0.00     0.263 S
HETATM    8  O2  UNL     1      24.940  -4.180  18.009  1.00  0.00    -0.203 OA
HETATM    9  O3  UNL     1      22.876  -4.469  16.700  1.00  0.00    -0.203 OA
HETATM   10  C6  UNL     1      26.318  -3.300  13.614  1.00  0.00     0.197 C
HETATM   11  S2  UNL     1      25.133  -2.795  12.383  1.00  0.00     0.151 S
HETATM   12  O4  UNL     1      25.943  -2.495  11.127  1.00  0.00    -0.227 OA
HETATM   13  O5  UNL     1      24.330  -4.018  12.063  1.00  0.00    -0.227 OA
HETATM   14  C7  UNL     1      24.184  -1.401  12.845  1.00  0.00     0.168 C
HETATM   15  C8  UNL     1      22.712  -1.768  13.180  1.00  0.00     0.123 C
ENDROOT
BRANCH  15  16
HETATM   16  N2  UNL     1      22.325  -2.658  12.197  1.00  0.00    -0.393 N
ATOM     17  H2  UNL     1      22.778  -3.572  12.223  1.00  0.00     0.159 HD
BRANCH  16  18
HETATM   18  C9  UNL     1      21.408  -2.471  11.186  1.00  0.00     0.077 C
BRANCH  18  19
HETATM   19  C10 UNL     1      21.863  -1.917   9.870  1.00  0.00     0.186 C
BRANCH  19  20
HETATM   20  N3  UNL     1      20.845  -1.366   9.032  1.00  0.00    -0.318 N
HETATM   21  N4  UNL     1      19.557  -1.069   9.578  1.00  0.00    -0.311 N
HETATM   22  C11 UNL     1      19.020  -0.061   9.000  1.00  0.00     0.002 C
ATOM     23  H4  UNL     1      19.121  -1.596  10.334  1.00  0.00     0.186 HD
HETATM   24  C12 UNL     1      17.680   0.482   9.357  1.00  0.00     0.065 C
HETATM   25  C13 UNL     1      19.972   0.408   7.939  1.00  0.00     0.081 C
HETATM   26  C14 UNL     1      20.703  -0.932   7.680  1.00  0.00     0.112 C
BRANCH  26  27
HETATM   27  C15 UNL     1      21.902  -0.667   6.874  1.00  0.00     0.010 C
HETATM   28  C16 UNL     1      21.789  -1.134   5.436  1.00  0.00     0.007 C
HETATM   29  C17 UNL     1      22.158  -0.073   4.433  1.00  0.00     0.000 C
HETATM   30  C18 UNL     1      23.453   0.612   4.725  1.00  0.00     0.000 C
HETATM   31  C19 UNL     1      23.385   1.197   6.107  1.00  0.00     0.000 C
HETATM   32  C20 UNL     1      22.080   0.857   6.809  1.00  0.00     0.007 C
ENDBRANCH  26  27
ENDBRANCH  19  20
ENDBRANCH  18  19
ENDBRANCH  16  18
ENDBRANCH  15  16
BRANCH   1  33
HETATM   33  C2  UNL     1      21.762  -1.444  15.513  1.00  0.00     0.029 C
HETATM   34  C1  UNL     1      21.951   0.030  15.497  1.00  0.00     0.007 C
ENDBRANCH   1  33
TORSDOF 6
ENDMDL