MODEL 3
REMARK VINA RESULT: -5.188216824      1.005      1.179
REMARK  5 active torsions:
REMARK  status: ('A' for Active; 'I' for Inactive)
REMARK    1  A    between atoms: N1_2  and  C2_4
REMARK    2  A    between atoms: C6_13  and  C7_14
REMARK    3  A    between atoms: C8_17  and  N5_18
REMARK    4  A    between atoms: N5_18  and  C9_20
REMARK    5  A    between atoms: C17_31  and  C18_32
ROOT
HETATM    1  C7  UNL     1       8.909  16.593  16.537  1.00  0.00     0.073 A
HETATM    2  N4  UNL     1       8.712  17.388  17.621  1.00  0.00    -0.190 N
ATOM      3  H4  UNL     1       9.037  17.065  18.532  1.00  0.00     0.184 HD
HETATM    4  C8  UNL     1       8.109  18.578  17.536  1.00  0.00     0.678 A
HETATM    5  N7  UNL     1       7.687  18.990  16.331  1.00  0.00    -0.201 N
ATOM      6  H7  UNL     1       7.225  19.896  16.257  1.00  0.00     0.183 HD
HETATM    7  C16 UNL     1       7.854  18.239  15.201  1.00  0.00     0.116 A
HETATM    8  C17 UNL     1       8.476  17.012  15.295  1.00  0.00    -0.010 A
ENDROOT
BRANCH   1   9
HETATM    9  C6  UNL     1       9.567  15.292  16.614  1.00  0.00     0.058 A
HETATM   10  C2  UNL     1      10.930  15.262  16.861  1.00  0.00     0.117 A
HETATM   11  N2  UNL     1      11.613  14.117  16.948  1.00  0.00    -0.318 N
HETATM   12  C3  UNL     1      10.934  12.956  16.787  1.00  0.00     0.180 A
ATOM     13  H2  UNL     1      12.617  14.117  17.130  1.00  0.00     0.170 HD
HETATM   14 CL1  UNL     1      11.861  11.463  16.907  1.00  0.00    -0.045 Cl
HETATM   15  N3  UNL     1       9.618  12.970  16.550  1.00  0.00    -0.336 N
HETATM   16  C4  UNL     1       8.903  14.104  16.456  1.00  0.00     0.024 A
ATOM     17  H3  UNL     1       9.135  12.079  16.435  1.00  0.00     0.168 HD
HETATM   18  C5  UNL     1       7.451  14.101  16.192  1.00  0.00     0.069 C
BRANCH  10  19
HETATM   19  N1  UNL     1      11.575  16.390  17.013  1.00  0.00    -0.380 N
HETATM   20  C1  UNL     1      12.977  16.446  17.285  1.00  0.00     0.147 C
ATOM     21  H1  UNL     1      11.056  17.265  16.934  1.00  0.00     0.160 HD
ENDBRANCH  10  19
ENDBRANCH   1   9
BRANCH   8  22
HETATM   22  C18 UNL     1       8.661  16.195  14.086  1.00  0.00     0.022 A
HETATM   23  C19 UNL     1       8.315  16.687  12.753  1.00  0.00     0.010 A
HETATM   24  C20 UNL     1       7.460  15.611  13.389  1.00  0.00     0.010 A
ENDBRANCH   8  22
BRANCH   4  25
HETATM   25  N5  UNL     1       7.909  19.353  18.541  1.00  0.00    -0.221 N
ATOM     26  H5  UNL     1       7.018  19.848  18.579  1.00  0.00     0.178 HD
BRANCH  25  27
HETATM   27  C9  UNL     1       8.826  19.579  19.603  1.00  0.00     0.106 C
HETATM   28  C10 UNL     1       9.859  18.510  19.855  1.00  0.00     0.033 C
HETATM   29  C11 UNL     1       9.499  18.587  21.324  1.00  0.00     0.024 C
HETATM   30  C12 UNL     1      10.396  19.517  22.099  1.00  0.00     0.277 C
HETATM   31  C15 UNL     1       8.292  19.435  20.995  1.00  0.00     0.043 C
HETATM   32  N6  UNL     1       9.551  20.524  22.691  1.00  0.00     0.085 N
HETATM   33  C13 UNL     1      10.221  21.782  22.911  1.00  0.00     0.309 C
HETATM   34  C14 UNL     1       8.376  20.644  21.867  1.00  0.00     0.279 C
ENDBRANCH  25  27
ENDBRANCH   4  25
TORSDOF 5
ENDMDL