MODEL 5
REMARK VINA RESULT: -5.854849420      3.421      6.614
REMARK  5 active torsions:
REMARK  status: ('A' for Active; 'I' for Inactive)
REMARK    1  A    between atoms: C3_3  and  C4_4
REMARK    2  A    between atoms: C4_4  and  N1_5
REMARK    3  A    between atoms: C7_8  and  N2_9
REMARK    4  A    between atoms: C8_12  and  C9_13
REMARK    5  A    between atoms: C9_13  and  O1_14
ROOT
HETATM    1  C1  UNL     1       7.917  16.071  12.199  1.00  0.00     0.112 C
HETATM    2  C2  UNL     1       7.914  15.309  13.443  1.00  0.00    -0.109 C
HETATM    3  C3  UNL     1       7.834  14.700  14.461  1.00  0.00    -0.077 C
ENDROOT
BRANCH   3   4
HETATM    4  C4  UNL     1       7.611  13.968  15.732  1.00  0.00     0.365 C
BRANCH   4   5
HETATM    5  N1  UNL     1       8.835  13.990  16.547  1.00  0.00     0.099 N
HETATM    6  C5  UNL     1       9.908  14.683  15.856  1.00  0.00     0.275 C
HETATM    7  C6  UNL     1       9.939  16.128  16.254  1.00  0.00     0.057 C
HETATM    8  C7  UNL     1      10.554  16.202  17.665  1.00  0.00     0.111 C
HETATM    9  C19 UNL     1       9.907  15.100  18.426  1.00  0.00     0.057 C
HETATM   10  C20 UNL     1       8.585  14.660  17.825  1.00  0.00     0.275 C
BRANCH   8  11
HETATM   11  N2  UNL     1      10.059  17.477  18.244  1.00  0.00    -0.290 N
HETATM   12  N3  UNL     1      10.502  18.012  19.310  1.00  0.00    -0.295 N
HETATM   13  C8  UNL     1       9.781  18.947  19.852  1.00  0.00     0.087 A
ATOM     14  H3  UNL     1      11.388  17.718  19.722  1.00  0.00     0.187 HD
HETATM   15  C10 UNL     1       8.660  18.982  18.934  1.00  0.00     0.086 A
HETATM   16  C11 UNL     1       8.886  18.087  17.912  1.00  0.00     0.051 A
HETATM   17  C18 UNL     1       7.419  19.634  19.243  1.00  0.00     0.256 C
HETATM   18  C12 UNL     1       8.173  17.829  16.670  1.00  0.00     0.045 C
HETATM   19  C13 UNL     1       8.747  18.592  15.498  1.00  0.00     0.031 C
HETATM   20  C16 UNL     1       6.755  18.213  16.646  1.00  0.00     0.015 C
HETATM   21  C14 UNL     1       7.653  18.466  14.454  1.00  0.00     0.083 C
HETATM   22 CL1  UNL     1       7.412  20.055  13.683  1.00  0.00    -0.125 Cl
HETATM   23  C15 UNL     1       6.413  18.003  15.164  1.00  0.00     0.027 C
HETATM   24  C17 UNL     1       6.428  19.671  16.915  1.00  0.00     0.128 C
HETATM   25  N4  UNL     1       6.288  19.861  18.352  1.00  0.00    -0.356 N
ATOM     26  H4  UNL     1       5.391  20.155  18.739  1.00  0.00     0.162 HD
HETATM   27  O2  UNL     1       7.264  20.029  20.424  1.00  0.00    -0.268 OA
BRANCH  13  28
HETATM   28  C9  UNL     1       9.823  20.001  20.846  1.00  0.00     0.163 C
BRANCH  28  29
HETATM   29  O1  UNL     1      10.138  21.263  20.407  1.00  0.00    -0.370 OA
ATOM     30  H1  UNL     1      10.034  21.976  21.026  1.00  0.00     0.216 HD
ENDBRANCH  28  29
ENDBRANCH  13  28
ENDBRANCH   8  11
ENDBRANCH   4   5
ENDBRANCH   3   4
TORSDOF 5
ENDMDL