MODEL 2
REMARK VINA RESULT: -7.368268825      2.885      5.782
REMARK  5 active torsions:
REMARK  status: ('A' for Active; 'I' for Inactive)
REMARK    1  A    between atoms: C7_8  and  O1_9
REMARK    2  A    between atoms: C9_13  and  C10_14
REMARK    3  A    between atoms: C9_13  and  C12_16
REMARK    4  A    between atoms: C12_16  and  O3_17
REMARK    5  A    between atoms: C17_24  and  O5_25
ROOT
HETATM    1  C1  UNL     1       8.712  13.423  15.681  1.00  0.00     0.015 C
HETATM    2  C2  UNL     1       8.104  14.573  15.587  1.00  0.00    -0.083 C
HETATM    3  C3  UNL     1       7.616  14.955  14.251  1.00  0.00     0.049 C
HETATM    4  C4  UNL     1       8.183  16.131  13.588  1.00  0.00     0.062 C
HETATM    5 BR1  UNL     1       7.581  16.171  11.753  1.00  0.00    -0.091 Br
HETATM    6  C5  UNL     1       7.857  17.466  14.281  1.00  0.00     0.024 C
HETATM    7  C6  UNL     1       8.737  17.473  15.445  1.00  0.00     0.026 C
HETATM    8  C7  UNL     1       8.949  18.845  16.145  1.00  0.00     0.154 C
HETATM    9  C8  UNL     1       8.797  18.553  17.566  1.00  0.00     0.192 C
HETATM   10  O2  UNL     1       9.333  19.005  18.650  1.00  0.00    -0.342 OA
HETATM   11  C9  UNL     1       8.747  18.309  19.731  1.00  0.00     0.186 C
HETATM   12  O4  UNL     1       8.335  17.019  19.486  1.00  0.00    -0.345 OA
HETATM   13  C13 UNL     1       9.132  16.293  18.682  1.00  0.00     0.163 C
HETATM   14  C14 UNL     1       8.674  15.033  18.047  1.00  0.00     0.044 C
HETATM   15  C15 UNL     1       7.944  15.358  16.776  1.00  0.00     0.024 C
HETATM   16  C16 UNL     1       8.146  16.731  16.543  1.00  0.00     0.040 C
HETATM   17  C17 UNL     1       9.300  17.100  17.491  1.00  0.00     0.119 C
ENDROOT
BRANCH  11  18
HETATM   18  C10 UNL     1       9.770  18.374  20.869  1.00  0.00     0.066 C
HETATM   19  C11 UNL     1       9.263  19.106  22.066  1.00  0.00     0.010 C
ENDBRANCH  11  18
BRANCH  11  20
HETATM   20  C12 UNL     1       7.531  19.079  20.196  1.00  0.00     0.232 C
BRANCH  20  21
HETATM   21  O3  UNL     1       6.385  18.682  19.482  1.00  0.00    -0.396 OA
ATOM     22  H3  UNL     1       5.675  19.299  19.615  1.00  0.00     0.209 HD
ENDBRANCH  20  21
ENDBRANCH  11  20
BRANCH   8  23
HETATM   23  O1  UNL     1       7.879  19.642  15.676  1.00  0.00    -0.392 OA
ATOM     24  H1  UNL     1       7.101  19.184  15.969  1.00  0.00     0.210 HD
ENDBRANCH   8  23
BRANCH  17  25
HETATM   25  O5  UNL     1      10.505  16.969  16.938  1.00  0.00    -0.379 OA
HETATM   26  C18 UNL     1      11.445  16.233  17.568  1.00  0.00     0.202 C
ENDBRANCH  17  25
TORSDOF 5
ENDMDL