MODEL 4
REMARK VINA RESULT: -2.783263549      1.135      1.354
REMARK  4 active torsions:
REMARK  status: ('A' for Active; 'I' for Inactive)
REMARK    1  A    between atoms: C7_8  and  C8_9
REMARK       I    between atoms: C8_9  and  N1_11
REMARK    2  A    between atoms: N1_11  and  C9_13
REMARK    3  A    between atoms: C9_13  and  C11_16
REMARK    4  A    between atoms: C15_20  and  C16_21
ROOT
HETATM    1  C9  UNL     1       8.777  16.388  14.359  1.00  0.00     0.196 C
HETATM    2  C10 UNL     1       7.853  16.821  13.294  1.00  0.00     0.085 C
HETATM    3  N2  UNL     1       7.130  17.164  12.449  1.00  0.00    -0.195 NA
ENDROOT
BRANCH   1   4
HETATM    4  N1  UNL     1       8.719  17.299  15.475  1.00  0.00    -0.343 N
HETATM    5  C8  UNL     1       9.815  17.355  16.374  1.00  0.00     0.225 C
HETATM    6  O2  UNL     1      10.842  16.623  16.220  1.00  0.00    -0.273 OA
ATOM      7  H1  UNL     1       7.902  17.894  15.616  1.00  0.00     0.163 HD
BRANCH   5   8
HETATM    8  C7  UNL     1       9.745  18.282  17.502  1.00  0.00     0.102 C
HETATM    9  C6  UNL     1       8.649  19.299  17.406  1.00  0.00     0.182 C
HETATM   10  O1  UNL     1       7.938  19.400  18.619  1.00  0.00    -0.385 OA
HETATM   11  C5  UNL     1       8.828  19.736  19.639  1.00  0.00     0.126 C
HETATM   12  C4  UNL     1       8.050  20.005  20.895  1.00  0.00     0.042 C
HETATM   13  C19 UNL     1       9.829  18.651  19.898  1.00  0.00     0.017 C
HETATM   14  C2  UNL     1       9.067  20.404  21.969  1.00  0.00    -0.029 C
HETATM   15  C1  UNL     1       9.912  21.546  21.434  1.00  0.00     0.016 C
HETATM   16  C3  UNL     1       8.313  20.855  23.194  1.00  0.00     0.016 C
HETATM   17  C21 UNL     1       9.958  19.236  22.256  1.00  0.00     0.090 C
HETATM   18  C20 UNL     1       9.756  18.087  21.292  1.00  0.00     0.028 C
HETATM   19 CL1  UNL     1       9.743  18.717  23.943  1.00  0.00    -0.124 Cl
HETATM   20  C18 UNL     1       9.635  17.585  18.837  1.00  0.00     0.023 C
ENDBRANCH   5   8
ENDBRANCH   1   4
BRANCH   1  21
HETATM   21  C11 UNL     1       8.395  14.972  14.809  1.00  0.00     0.028 C
HETATM   22  C12 UNL     1       7.384  15.167  15.960  1.00  0.00     0.008 C
HETATM   23  C13 UNL     1       7.857  14.184  17.055  1.00  0.00     0.006 C
HETATM   24  C14 UNL     1       8.551  13.213  16.185  1.00  0.00     0.004 A
HETATM   25  C15 UNL     1       9.886  12.991  15.810  1.00  0.00     0.084 A
HETATM   26  C17 UNL     1       9.492  14.321  15.555  1.00  0.00     0.010 A
BRANCH  25  27
HETATM   27  C16 UNL     1      10.869  12.702  16.899  1.00  0.00     0.236 C
HETATM   28  N3  UNL     1      11.810  13.631  17.370  1.00  0.00    -0.062 NA
HETATM   29  O3  UNL     1      10.875  11.548  17.451  1.00  0.00    -0.276 OA
ENDBRANCH  25  27
ENDBRANCH   1  21
TORSDOF 4
ENDMDL