MODEL 2
REMARK VINA RESULT: -4.231075820      2.415      4.743
REMARK  5 active torsions:
REMARK  status: ('A' for Active; 'I' for Inactive)
REMARK    1  A    between atoms: C2_2  and  N1_3
REMARK    2  A    between atoms: C6_7  and  N2_8
REMARK    3  A    between atoms: N2_8  and  C7_10
REMARK    4  A    between atoms: C13_22  and  N6_23
REMARK    5  A    between atoms: N6_23  and  C14_25
ROOT
HETATM    1  C7  UNL     1       9.166  16.802  17.342  1.00  0.00     0.147 A
HETATM    2  N3  UNL     1       9.367  17.795  18.211  1.00  0.00    -0.336 N
ATOM      3  H3  UNL     1       9.652  18.701  17.838  1.00  0.00     0.168 HD
HETATM    4  C8  UNL     1       9.219  17.686  19.551  1.00  0.00     0.085 A
HETATM    5  C9  UNL     1       9.445  18.764  20.394  1.00  0.00    -0.019 A
HETATM    6  C10 UNL     1       9.272  18.564  21.730  1.00  0.00    -0.026 A
HETATM    7  C11 UNL     1       8.883  17.322  22.206  1.00  0.00     0.098 A
HETATM    8  N4  UNL     1       8.670  16.295  21.365  1.00  0.00    -0.350 N
ATOM      9  H4  UNL     1       8.384  15.388  21.734  1.00  0.00     0.166 HD
HETATM   10  C12 UNL     1       8.834  16.458  20.027  1.00  0.00     0.134 A
HETATM   11  N5  UNL     1       8.610  15.399  19.201  1.00  0.00    -0.324 N
ATOM     12  H5  UNL     1       8.323  14.497  19.582  1.00  0.00     0.169 HD
HETATM   13  C13 UNL     1       8.769  15.556  17.896  1.00  0.00     0.148 A
HETATM   14  C17 UNL     1       9.574  19.837  22.419  1.00  0.00    -0.018 C
HETATM   15  C18 UNL     1      11.048  19.885  22.788  1.00  0.00     0.020 C
HETATM   16  C19 UNL     1       8.697  20.022  23.639  1.00  0.00     0.020 C
HETATM   17  C20 UNL     1       9.328  20.873  21.366  1.00  0.00     0.018 C
HETATM   18  C21 UNL     1       9.858  20.161  20.112  1.00  0.00     0.043 C
ENDROOT
BRANCH   1  19
HETATM   19  N2  UNL     1       9.289  16.853  16.112  1.00  0.00    -0.367 N
ATOM     20  H2  UNL     1      10.183  16.459  15.823  1.00  0.00     0.161 HD
BRANCH  19  21
HETATM   21  C6  UNL     1       8.563  17.291  15.006  1.00  0.00     0.111 C
HETATM   22  C5  UNL     1       8.885  18.741  14.696  1.00  0.00     0.028 C
HETATM   23  C4  UNL     1       8.140  19.249  13.500  1.00  0.00     0.032 C
HETATM   24  C3  UNL     1       8.010  18.272  12.379  1.00  0.00     0.272 C
HETATM   25  N1  UNL     1       7.756  16.923  12.773  1.00  0.00     0.090 N
HETATM   26  C22 UNL     1       8.635  16.405  13.779  1.00  0.00     0.297 C
BRANCH  25  27
HETATM   27  C2  UNL     1       7.636  16.061  11.645  1.00  0.00     0.268 C
HETATM   28  C1  UNL     1       6.270  15.970  11.043  1.00  0.00     0.037 C
ENDBRANCH  25  27
ENDBRANCH  19  21
ENDBRANCH   1  19
BRANCH  13  29
HETATM   29  N6  UNL     1       8.587  14.645  17.067  1.00  0.00    -0.366 N
ATOM     30  H6  UNL     1       7.750  14.863  16.525  1.00  0.00     0.161 HD
BRANCH  29  31
HETATM   31  C14 UNL     1       9.105  13.449  16.614  1.00  0.00     0.120 A
HETATM   32  C15 UNL     1      10.346  13.487  15.681  1.00  0.00     0.067 A
HETATM   33  C16 UNL     1      10.409  12.831  16.995  1.00  0.00     0.195 A
HETATM   34  F1  UNL     1      10.487  11.427  16.939  1.00  0.00    -0.247 F
ENDBRANCH  29  31
ENDBRANCH  13  29
TORSDOF 5
ENDMDL