MODEL 2
REMARK VINA RESULT: -1.385716452      3.201      7.665
REMARK  5 active torsions:
REMARK  status: ('A' for Active; 'I' for Inactive)
REMARK    1  A    between atoms: N1_2  and  C3_4
REMARK    2  A    between atoms: N2_7  and  C6_8
REMARK    3  A    between atoms: N3_12  and  C10_13
REMARK    4  A    between atoms: C12_15  and  N4_16
REMARK    5  A    between atoms: N4_16  and  C13_18
ROOT
HETATM    1  C6  UNL     1       8.760  15.212  16.243  1.00  0.00     0.255 C
HETATM    2  C7  UNL     1       8.842  16.636  15.592  1.00  0.00     0.072 C
HETATM    3  C8  UNL     1       9.218  17.564  16.755  1.00  0.00     0.206 C
HETATM    4  C9  UNL     1       8.114  18.243  17.480  1.00  0.00     0.157 C
HETATM    5  N3  UNL     1       7.915  17.791  18.868  1.00  0.00    -0.365 N
HETATM    6  C18 UNL     1       8.006  16.584  19.618  1.00  0.00     0.126 C
HETATM    7  C19 UNL     1       8.177  15.269  18.847  1.00  0.00     0.055 C
HETATM    8  C20 UNL     1       8.442  15.687  17.529  1.00  0.00     0.221 C
HETATM    9  N7  UNL     1       9.636  16.555  17.705  1.00  0.00    -0.063 N
ATOM     10  H71 UNL     1       9.863  16.861  18.651  1.00  0.00     0.278 HD
ATOM     11  H72 UNL     1      10.553  16.131  17.571  1.00  0.00     0.278 HD
ENDROOT
BRANCH   5  12
HETATM   12  C10 UNL     1       7.515  18.854  19.733  1.00  0.00     0.110 A
HETATM   13  C11 UNL     1       8.281  19.389  20.716  1.00  0.00     0.096 A
HETATM   14  C12 UNL     1       7.784  20.432  21.514  1.00  0.00     0.108 A
HETATM   15  N5  UNL     1       6.556  20.885  21.290  1.00  0.00    -0.304 N
HETATM   16  C17 UNL     1       5.787  20.354  20.312  1.00  0.00     0.268 A
ATOM     17  H5  UNL     1       6.187  21.643  21.864  1.00  0.00     0.171 HD
HETATM   18  F1  UNL     1       4.538  20.831  20.102  1.00  0.00    -0.165 F
HETATM   19  N6  UNL     1       6.284  19.360  19.564  1.00  0.00    -0.304 N
ATOM     20  H6  UNL     1       5.697  18.967  18.829  1.00  0.00     0.171 HD
BRANCH  14  21
HETATM   21  N4  UNL     1       8.587  20.867  22.411  1.00  0.00    -0.368 N
ATOM     22  H4  UNL     1       8.161  21.142  23.296  1.00  0.00     0.161 HD
BRANCH  21  23
HETATM   23  C13 UNL     1      10.000  21.014  22.331  1.00  0.00     0.021 C
HETATM   24  C14 UNL     1      10.501  22.256  23.001  1.00  0.00     0.037 C
HETATM   25  C15 UNL     1      10.690  19.802  22.908  1.00  0.00     0.037 C
HETATM   26  C16 UNL     1      10.413  21.105  20.860  1.00  0.00     0.037 C
ENDBRANCH  21  23
ENDBRANCH  14  21
ENDBRANCH   5  12
BRANCH   1  27
HETATM   27  N2  UNL     1       9.991  14.586  15.968  1.00  0.00     0.097 N
HETATM   28  C5  UNL     1      11.119  15.110  16.712  1.00  0.00     0.275 C
HETATM   29  C4  UNL     1      12.229  14.297  16.027  1.00  0.00     0.068 C
HETATM   30  C3  UNL     1      11.575  12.920  16.040  1.00  0.00     0.252 C
HETATM   31  C21 UNL     1      10.082  13.193  16.282  1.00  0.00     0.308 C
BRANCH  30  32
HETATM   32  N1  UNL     1      12.095  12.191  17.172  1.00  0.00     0.086 N
HETATM   33  C1  UNL     1      12.565  13.121  18.162  1.00  0.00     0.310 C
HETATM   34  C2  UNL     1      11.151  11.250  17.706  1.00  0.00     0.310 C
ENDBRANCH  30  32
ENDBRANCH   1  27
TORSDOF 5
ENDMDL