MODEL 2
REMARK VINA RESULT: -6.248989277      0.833      1.012
REMARK  8 active torsions:
REMARK  status: ('A' for Active; 'I' for Inactive)
REMARK    1  A    between atoms: C2_2  and  C3_4
REMARK    2  A    between atoms: C3_4  and  N1_6
REMARK    3  A    between atoms: N1_6  and  C4_8
REMARK    4  A    between atoms: C6_11  and  C7_12
REMARK    5  A    between atoms: C7_12  and  N2_13
REMARK    6  A    between atoms: N2_13  and  C8_15
REMARK    7  A    between atoms: C8_15  and  N3_17
REMARK    8  A    between atoms: N3_17  and  N4_19
ROOT
HETATM    1  C7  UNL     1       7.190  18.340  15.461  1.00  0.00     0.179 C
ENDROOT
BRANCH   1   2
HETATM    2  C6  UNL     1       7.222  18.596  16.968  1.00  0.00     0.037 A
HETATM    3  C5  UNL     1       6.033  18.692  17.636  1.00  0.00     0.080 A
HETATM    4  S2  UNL     1       6.533  18.979  19.238  1.00  0.00    -0.064 SA
HETATM    5  C4  UNL     1       8.215  18.962  18.981  1.00  0.00     0.151 A
HETATM    6  N6  UNL     1       8.327  18.738  17.673  1.00  0.00    -0.333 N
HETATM    7  C14 UNL     1       9.681  18.648  17.030  1.00  0.00     0.158 C
BRANCH   5   8
HETATM    8  N1  UNL     1       9.203  19.129  19.846  1.00  0.00    -0.330 N
ATOM      9  H1  UNL     1      10.049  19.650  19.615  1.00  0.00     0.168 HD
BRANCH   8  10
HETATM   10  C3  UNL     1       9.002  18.529  21.119  1.00  0.00     0.097 C
HETATM   11  S1  UNL     1       8.661  16.952  21.205  1.00  0.00    -0.064 SA
BRANCH  10  12
HETATM   12  C2  UNL     1       9.100  19.335  22.344  1.00  0.00     0.139 C
HETATM   13  C1  UNL     1       8.209  20.571  22.204  1.00  0.00     0.034 C
HETATM   14 CL1  UNL     1      10.780  19.839  22.608  1.00  0.00    -0.118 Cl
ENDBRANCH  10  12
ENDBRANCH   8  10
ENDBRANCH   5   8
ENDBRANCH   1   2
BRANCH   1  15
HETATM   15  N2  UNL     1       7.035  16.943  15.190  1.00  0.00    -0.361 N
ATOM     16  H2  UNL     1       6.255  16.436  15.612  1.00  0.00     0.162 HD
BRANCH  15  17
HETATM   17  C8  UNL     1       7.940  16.247  14.349  1.00  0.00     0.182 C
HETATM   18  S3  UNL     1       7.958  16.555  12.745  1.00  0.00    -0.040 SA
BRANCH  17  19
HETATM   19  N3  UNL     1       8.850  15.280  14.862  1.00  0.00    -0.295 N
ATOM     20  H3  UNL     1       9.364  14.682  14.215  1.00  0.00     0.183 HD
BRANCH  19  21
HETATM   21  N4  UNL     1       9.051  15.135  16.232  1.00  0.00    -0.226 NA
HETATM   22  C9  UNL     1       8.885  13.787  16.680  1.00  0.00     0.144 C
HETATM   23  C10 UNL     1      10.055  12.892  16.335  1.00  0.00     0.288 C
HETATM   24  N5  UNL     1      11.275  13.671  16.383  1.00  0.00     0.086 N
HETATM   25  C11 UNL     1      12.446  12.871  16.608  1.00  0.00     0.310 C
HETATM   26  C12 UNL     1      11.140  14.751  17.344  1.00  0.00     0.288 C
HETATM   27  C13 UNL     1      10.224  15.785  16.723  1.00  0.00     0.144 C
ENDBRANCH  19  21
ENDBRANCH  17  19
ENDBRANCH  15  17
ENDBRANCH   1  15
TORSDOF 8
ENDMDL