MODEL 4
REMARK VINA RESULT: -4.937964849      1.398      1.820
REMARK  5 active torsions:
REMARK  status: ('A' for Active; 'I' for Inactive)
REMARK    1  A    between atoms: C5_6  and  O1_7
REMARK    2  A    between atoms: C9_15  and  N3_16
REMARK       I    between atoms: N3_16  and  C10_18
REMARK    3  A    between atoms: C10_18  and  C11_20
REMARK    4  A    between atoms: C11_20  and  O3_22
REMARK    5  A    between atoms: C11_20  and  C13_24
ROOT
HETATM    1  C1  UNL     1       9.897  14.171  17.463  1.00  0.00     0.018 C
HETATM    2  C2  UNL     1       9.385  15.108  16.914  1.00  0.00    -0.074 C
HETATM    3  C3  UNL     1       8.786  16.232  16.236  1.00  0.00     0.066 A
HETATM    4  C4  UNL     1       8.240  16.091  14.960  1.00  0.00     0.065 A
HETATM    5 BR1  UNL     1       8.311  14.364  14.141  1.00  0.00    -0.046 Br
HETATM    6  C5  UNL     1       7.669  17.169  14.319  1.00  0.00     0.089 A
HETATM    7  C7  UNL     1       7.629  18.401  14.927  1.00  0.00     0.071 A
HETATM    8  C8  UNL     1       8.165  18.532  16.176  1.00  0.00     0.080 A
HETATM    9  N1  UNL     1       8.128  19.732  16.771  1.00  0.00    -0.284 N
ATOM     10  H1  UNL     1       7.705  20.529  16.295  1.00  0.00     0.187 HD
HETATM   11  N2  UNL     1       8.639  19.873  17.969  1.00  0.00    -0.131 N
ATOM     12  H2  UNL     1       8.603  20.792  18.409  1.00  0.00     0.205 HD
HETATM   13  C9  UNL     1       9.203  18.867  18.640  1.00  0.00     0.700 A
HETATM   14  N4  UNL     1       9.260  17.654  18.079  1.00  0.00    -0.186 N
ATOM     15  H4  UNL     1       9.690  16.877  18.580  1.00  0.00     0.184 HD
HETATM   16  C16 UNL     1       8.751  17.466  16.858  1.00  0.00     0.097 A
ENDROOT
BRANCH   6  17
HETATM   17  O1  UNL     1       7.129  17.029  13.056  1.00  0.00    -0.354 OA
HETATM   18  C6  UNL     1       7.886  17.010  11.883  1.00  0.00     0.210 C
ENDBRANCH   6  17
BRANCH  13  19
HETATM   19  N3  UNL     1       9.702  19.067  19.842  1.00  0.00    -0.156 N
HETATM   20  C10 UNL     1       8.946  18.831  21.008  1.00  0.00     0.270 C
HETATM   21  O2  UNL     1       8.118  17.891  21.011  1.00  0.00    -0.269 OA
ATOM     22  H3  UNL     1      10.661  19.401  19.932  1.00  0.00     0.187 HD
BRANCH  20  23
HETATM   23  C11 UNL     1       9.118  19.673  22.210  1.00  0.00     0.138 C
HETATM   24  C12 UNL     1       7.929  20.609  22.389  1.00  0.00     0.057 C
BRANCH  23  25
HETATM   25  O3  UNL     1       9.137  18.852  23.345  1.00  0.00    -0.380 OA
ATOM     26  H3  UNL     1       8.870  19.362  24.101  1.00  0.00     0.211 HD
ENDBRANCH  23  25
BRANCH  23  27
HETATM   27  C13 UNL     1      10.419  20.441  22.202  1.00  0.00     0.021 C
HETATM   28  C14 UNL     1      11.318  20.101  23.348  1.00  0.00     0.013 C
HETATM   29  C15 UNL     1      10.057  21.914  22.321  1.00  0.00     0.013 C
ENDBRANCH  23  27
ENDBRANCH  20  23
ENDBRANCH  13  19
TORSDOF 5
ENDMDL