MODEL 4
REMARK VINA RESULT: -6.622060399      2.976      5.271
REMARK  9 active torsions:
REMARK  status: ('A' for Active; 'I' for Inactive)
REMARK    1  A    between atoms: C2_2  and  O1_3
REMARK    2  A    between atoms: C2_2  and  N1_5
REMARK    3  A    between atoms: N1_5  and  N2_6
REMARK    4  A    between atoms: N1_5  and  C10_20
REMARK    5  A    between atoms: N2_6  and  C3_8
REMARK    6  A    between atoms: N3_10  and  C4_12
REMARK    7  A    between atoms: C4_12  and  C5_13
REMARK    8  A    between atoms: C5_13  and  O3_15
REMARK    9  A    between atoms: O3_15  and  C6_16
ROOT
HETATM    1  N2  UNL     1       8.311  15.192  17.686  1.00  0.00    -0.266 N
ATOM      2  H2  UNL     1       7.831  14.773  18.483  1.00  0.00     0.190 HD
ENDROOT
BRANCH   1   3
HETATM    3  N1  UNL     1       9.515  15.776  17.942  1.00  0.00    -0.213 N
BRANCH   3   4
HETATM    4  C2  UNL     1      10.793  15.490  17.466  1.00  0.00     0.135 C
HETATM    5  C1  UNL     1      11.413  14.202  17.184  1.00  0.00     0.099 C
BRANCH   4   6
HETATM    6  O1  UNL     1      11.563  16.526  17.260  1.00  0.00    -0.348 OA
ATOM      7  H1  UNL     1      12.011  16.530  16.422  1.00  0.00     0.219 HD
ENDBRANCH   4   6
ENDBRANCH   3   4
BRANCH   3   8
HETATM    8  C10 UNL     1       9.444  16.979  18.790  1.00  0.00     0.173 A
HETATM    9  N4  UNL     1       9.841  18.205  18.460  1.00  0.00    -0.343 N
HETATM   10  C11 UNL     1       9.724  19.151  19.290  1.00  0.00     0.117 A
ATOM     11  H4  UNL     1      10.241  18.381  17.538  1.00  0.00     0.167 HD
HETATM   12  C12 UNL     1       9.170  18.857  20.534  1.00  0.00     0.070 A
HETATM   13 BR1  UNL     1       8.874  20.038  22.000  1.00  0.00    -0.042 Br
HETATM   14  S2  UNL     1       8.875  17.180  20.362  1.00  0.00    -0.043 SA
ENDBRANCH   3   8
ENDBRANCH   1   3
BRANCH   1  15
HETATM   15  C3  UNL     1       7.648  15.101  16.431  1.00  0.00     0.187 C
HETATM   16  S1  UNL     1       8.030  13.727  15.544  1.00  0.00    -0.040 SA
HETATM   17  N3  UNL     1       6.694  15.923  15.913  1.00  0.00    -0.357 N
ATOM     18  H3  UNL     1       6.409  15.714  14.956  1.00  0.00     0.162 HD
BRANCH  17  19
HETATM   19  C4  UNL     1       6.040  17.025  16.512  1.00  0.00     0.233 C
BRANCH  19  20
HETATM   20  C5  UNL     1       6.710  18.344  16.259  1.00  0.00     0.277 C
HETATM   21  O2  UNL     1       6.909  19.051  17.300  1.00  0.00    -0.263 OA
BRANCH  20  22
HETATM   22  O3  UNL     1       7.086  18.813  15.071  1.00  0.00    -0.310 OA
BRANCH  22  23
HETATM   23  C6  UNL     1       8.200  18.591  14.288  1.00  0.00     0.060 C
HETATM   24  C7  UNL     1       7.912  17.562  13.198  1.00  0.00     0.045 C
HETATM   25  C8  UNL     1       8.693  19.815  13.466  1.00  0.00     0.045 C
HETATM   26  C9  UNL     1       9.355  18.131  15.112  1.00  0.00     0.045 C
ENDBRANCH  22  23
ENDBRANCH  20  22
ENDBRANCH  19  20
ENDBRANCH  17  19
ENDBRANCH   1  15
TORSDOF 9
ENDMDL