MODEL 4
REMARK VINA RESULT: -6.648430060      3.147      7.127
REMARK  4 active torsions:
REMARK  status: ('A' for Active; 'I' for Inactive)
REMARK    1  A    between atoms: O1_2  and  C2_3
REMARK       I    between atoms: N1_6  and  C5_7
REMARK    2  A    between atoms: C5_7  and  C6_9
REMARK    3  A    between atoms: N2_12  and  C9_13
REMARK    4  A    between atoms: C11_19  and  N5_20
ROOT
HETATM    1  C6  UNL     1       9.668  15.544  18.735  1.00  0.00     0.081 C
HETATM    2  C7  UNL     1      10.127  16.758  17.936  1.00  0.00     0.034 C
HETATM    3  C8  UNL     1      10.097  16.374  16.446  1.00  0.00     0.125 C
HETATM    4  N2  UNL     1       8.685  16.260  16.081  1.00  0.00    -0.366 N
HETATM    5  C13 UNL     1       7.848  15.676  17.082  1.00  0.00     0.125 C
HETATM    6  C14 UNL     1       8.753  14.717  17.903  1.00  0.00     0.034 C
ENDROOT
BRANCH   4   7
HETATM    7  C9  UNL     1       8.284  16.688  14.784  1.00  0.00     0.125 A
HETATM    8  N3  UNL     1       8.258  15.754  13.772  1.00  0.00    -0.337 N
HETATM    9  C10 UNL     1       7.915  16.143  12.556  1.00  0.00     0.183 A
ATOM     10  H3  UNL     1       8.501  14.781  13.957  1.00  0.00     0.168 HD
HETATM   11  N4  UNL     1       7.584  17.399  12.227  1.00  0.00    -0.338 N
HETATM   12  C11 UNL     1       7.599  18.323  13.175  1.00  0.00     0.121 A
ATOM     13  H4  UNL     1       7.326  17.637  11.270  1.00  0.00     0.168 HD
HETATM   14  C12 UNL     1       7.954  17.981  14.487  1.00  0.00     0.098 A
HETATM   15 BR1  UNL     1       8.013  19.340  15.831  1.00  0.00    -0.043 Br
BRANCH  12  16
HETATM   16  N5  UNL     1       7.297  19.578  12.982  1.00  0.00    -0.384 N
ATOM     17  H52 UNL     1       7.723  20.239  13.633  1.00  0.00     0.157 HD
ATOM     18  H51 UNL     1       6.682  19.914  12.241  1.00  0.00     0.157 HD
ENDBRANCH  12  16
ENDBRANCH   4   7
BRANCH   1  19
HETATM   19  C5  UNL     1       8.945  16.039  19.935  1.00  0.00     0.224 C
HETATM   20  N1  UNL     1       9.094  17.372  20.334  1.00  0.00    -0.352 N
HETATM   21  C4  UNL     1       8.398  17.858  21.528  1.00  0.00     0.128 C
HETATM   22  C15 UNL     1       9.894  18.324  19.626  1.00  0.00     0.128 C
HETATM   23  C3  UNL     1       9.092  19.103  21.985  1.00  0.00     0.051 C
HETATM   24  C2  UNL     1       9.036  20.192  20.952  1.00  0.00     0.123 C
HETATM   25  C16 UNL     1       9.077  19.603  19.552  1.00  0.00     0.051 C
HETATM   26  O2  UNL     1       8.190  15.255  20.601  1.00  0.00    -0.273 OA
BRANCH  24  27
HETATM   27  O1  UNL     1      10.099  21.085  21.121  1.00  0.00    -0.391 OA
HETATM   28  C1  UNL     1      10.315  21.316  22.464  1.00  0.00     0.202 C
ENDBRANCH  24  27
ENDBRANCH   1  19
TORSDOF 4
ENDMDL