MODEL 3
REMARK VINA RESULT: -1.967226577      0.957      1.044
REMARK  2 active torsions:
REMARK  status: ('A' for Active; 'I' for Inactive)
REMARK    1  A    between atoms: C4_5  and  C5_6
REMARK    2  A    between atoms: N2_14  and  C11_15
ROOT
HETATM    1  C11 UNL     1       7.915  16.736  18.084  1.00  0.00     0.151 C
HETATM    2  N3  UNL     1       6.699  17.063  17.778  1.00  0.00    -0.263 N
ATOM      3  H3  UNL     1       6.134  17.428  18.544  1.00  0.00     0.180 HD
HETATM    4  S1  UNL     1       5.902  16.962  16.242  1.00  0.00     0.265 S
HETATM    5  O2  UNL     1       5.511  15.532  16.030  1.00  0.00    -0.200 OA
HETATM    6  O3  UNL     1       4.677  17.812  16.196  1.00  0.00    -0.200 OA
HETATM    7  C12 UNL     1       7.007  17.460  14.981  1.00  0.00     0.090 A
HETATM    8  C13 UNL     1       6.429  18.244  14.044  1.00  0.00     0.026 A
HETATM    9  C14 UNL     1       7.217  18.741  13.026  1.00  0.00     0.002 A
HETATM   10  C15 UNL     1       8.560  18.454  12.951  1.00  0.00     0.001 A
HETATM   11  C16 UNL     1       9.169  17.643  13.917  1.00  0.00     0.014 A
HETATM   12  C17 UNL     1       8.380  17.154  14.919  1.00  0.00    -0.002 A
HETATM   13  C18 UNL     1       9.134  16.311  15.827  1.00  0.00    -0.010 A
HETATM   14  C19 UNL     1      10.138  15.653  15.166  1.00  0.00     0.013 A
HETATM   15  C20 UNL     1      10.980  14.816  15.890  1.00  0.00     0.001 A
HETATM   16  C21 UNL     1      10.785  14.666  17.267  1.00  0.00     0.001 A
HETATM   17  C22 UNL     1       9.762  15.347  17.891  1.00  0.00     0.016 A
HETATM   18  C23 UNL     1       8.906  16.190  17.189  1.00  0.00     0.022 A
ENDROOT
BRANCH   1  19
HETATM   19  N2  UNL     1       8.353  16.908  19.426  1.00  0.00    -0.202 N
HETATM   20  C1  UNL     1       8.306  15.849  20.255  1.00  0.00     0.268 A
HETATM   21  O1  UNL     1       7.874  14.746  19.803  1.00  0.00    -0.266 OA
HETATM   22  C2  UNL     1       8.711  15.927  21.574  1.00  0.00     0.079 A
HETATM   23  C3  UNL     1       9.174  17.183  21.985  1.00  0.00     0.037 A
HETATM   24  C4  UNL     1       9.220  18.263  21.132  1.00  0.00     0.059 A
HETATM   25  N1  UNL     1       8.797  18.071  19.863  1.00  0.00    -0.289 N
ATOM     26  H1  UNL     1       8.823  18.858  19.216  1.00  0.00     0.188 HD
BRANCH  24  27
HETATM   27  C5  UNL     1       9.705  19.560  21.588  1.00  0.00    -0.008 A
HETATM   28  C6  UNL     1      10.187  20.547  20.762  1.00  0.00     0.014 A
HETATM   29  C7  UNL     1      10.638  21.772  21.264  1.00  0.00     0.001 A
HETATM   30  C8  UNL     1      10.616  22.035  22.615  1.00  0.00     0.000 A
HETATM   31  C9  UNL     1      10.134  21.050  23.449  1.00  0.00     0.001 A
HETATM   32  C10 UNL     1       9.690  19.843  22.951  1.00  0.00     0.014 A
ENDBRANCH  24  27
ENDBRANCH   1  19
TORSDOF 2
ENDMDL