MODEL 4
REMARK VINA RESULT: 2.842057401      0.848      1.210
REMARK  1 active torsions:
REMARK  status: ('A' for Active; 'I' for Inactive)
REMARK       I    between atoms: C2_2  and  N1_4
REMARK    1  A    between atoms: N5_29  and  C20_30
ROOT
HETATM    1  C1  UNL     1       6.032  21.424  20.413  1.00  0.00     0.117 C
HETATM    2  C2  UNL     1       5.696  19.969  20.491  1.00  0.00     0.220 C
HETATM    3  O1  UNL     1       4.496  19.585  20.688  1.00  0.00    -0.274 OA
HETATM    4  N1  UNL     1       6.704  18.980  20.345  1.00  0.00    -0.292 N
ATOM      5  H1  UNL     1       7.136  18.535  21.155  1.00  0.00     0.172 HD
HETATM    6  C3  UNL     1       7.050  18.664  19.125  1.00  0.00     0.238 A
HETATM    7  O2  UNL     1       6.459  19.268  18.034  1.00  0.00    -0.278 OA
HETATM    8  C4  UNL     1       6.905  18.855  16.770  1.00  0.00     0.091 A
HETATM    9  C5  UNL     1       6.342  19.434  15.632  1.00  0.00     0.040 A
HETATM   10  C6  UNL     1       6.767  19.040  14.398  1.00  0.00     0.025 A
HETATM   11  C7  UNL     1       7.746  18.082  14.199  1.00  0.00     0.045 A
HETATM   12  C8  UNL     1       8.159  17.701  12.878  1.00  0.00     0.099 C
HETATM   13  N2  UNL     1       8.484  17.401  11.790  1.00  0.00    -0.191 NA
HETATM   14  C9  UNL     1       8.292  17.520  15.327  1.00  0.00     0.039 A
HETATM   15  C10 UNL     1       7.869  17.910  16.611  1.00  0.00     0.048 A
HETATM   16  C11 UNL     1       8.528  17.238  17.739  1.00  0.00     0.226 A
HETATM   17  N3  UNL     1       8.445  15.788  17.615  1.00  0.00    -0.339 N
ATOM     18  H3  UNL     1       7.603  15.216  17.662  1.00  0.00     0.164 HD
HETATM   19  C12 UNL     1       9.640  15.380  17.435  1.00  0.00     0.070 A
HETATM   20  C13 UNL     1      10.577  16.471  17.424  1.00  0.00     0.070 A
HETATM   21  N4  UNL     1       9.956  17.559  17.598  1.00  0.00    -0.339 N
ATOM     22  H4  UNL     1      10.370  18.490  17.633  1.00  0.00     0.164 HD
HETATM   23  C14 UNL     1      11.703  15.572  17.207  1.00  0.00     0.005 A
HETATM   24  C15 UNL     1      13.035  15.271  17.021  1.00  0.00     0.014 A
HETATM   25  C16 UNL     1      13.489  13.982  16.848  1.00  0.00     0.001 A
HETATM   26  C17 UNL     1      12.576  12.933  16.860  1.00  0.00     0.001 A
HETATM   27  C18 UNL     1      11.250  13.223  17.044  1.00  0.00     0.014 A
HETATM   28  C19 UNL     1      10.811  14.527  17.217  1.00  0.00     0.005 A
HETATM   29  N5  UNL     1       8.053  17.679  19.015  1.00  0.00    -0.263 N
ENDROOT
BRANCH  29  30
HETATM   30  C20 UNL     1       8.613  17.102  20.236  1.00  0.00     0.042 A
HETATM   31  C21 UNL     1       9.342  17.876  21.110  1.00  0.00     0.030 A
HETATM   32  C22 UNL     1       9.870  17.316  22.269  1.00  0.00     0.002 A
HETATM   33  C23 UNL     1       9.670  15.982  22.552  1.00  0.00     0.000 A
HETATM   34  C24 UNL     1       8.940  15.224  21.669  1.00  0.00     0.002 A
HETATM   35  C25 UNL     1       8.427  15.779  20.540  1.00  0.00     0.030 A
ENDBRANCH  29  30
TORSDOF 1
ENDMDL