MODEL 2
REMARK VINA RESULT: -1.693272115      3.300      7.321
REMARK  5 active torsions:
REMARK  status: ('A' for Active; 'I' for Inactive)
REMARK    1  A    between atoms: C5_8  and  C6_9
REMARK    2  A    between atoms: C7_10  and  C8_11
REMARK    3  A    between atoms: N3_20  and  C16_21
REMARK    4  A    between atoms: C16_21  and  C17_22
REMARK    5  A    between atoms: C18_23  and  C19_24
ROOT
HETATM    1  C8  UNL     1       8.569  19.480  19.899  1.00  0.00     0.018 A
HETATM    2  C9  UNL     1       9.822  20.021  19.694  1.00  0.00     0.022 A
HETATM    3  C10 UNL     1      10.534  20.594  20.736  1.00  0.00     0.024 A
HETATM    4  C11 UNL     1      10.015  20.644  22.012  1.00  0.00     0.044 A
HETATM    5  C12 UNL     1      10.780  21.246  23.069  1.00  0.00     0.099 C
HETATM    6  N2  UNL     1      11.384  21.745  23.910  1.00  0.00    -0.191 NA
HETATM    7  C13 UNL     1       8.763  20.103  22.220  1.00  0.00     0.024 A
HETATM    8  C14 UNL     1       8.050  19.531  21.188  1.00  0.00     0.022 A
ENDROOT
BRANCH   1   9
HETATM    9  C7  UNL     1       7.866  18.901  18.820  1.00  0.00    -0.061 C
HETATM   10  C6  UNL     1       7.270  18.400  17.865  1.00  0.00    -0.059 C
BRANCH  10  11
HETATM   11  C5  UNL     1       6.587  17.844  16.678  1.00  0.00     0.053 A
HETATM   12  C4  UNL     1       5.325  17.285  16.896  1.00  0.00     0.073 A
HETATM   13  S1  UNL     1       4.839  16.782  15.366  1.00  0.00    -0.093 SA
HETATM   14  C3  UNL     1       6.203  17.268  14.468  1.00  0.00     0.101 A
HETATM   15  C2  UNL     1       6.489  17.167  13.098  1.00  0.00     0.270 A
HETATM   16  C15 UNL     1       7.040  17.832  15.405  1.00  0.00     0.081 A
HETATM   17  N1  UNL     1       7.647  17.635  12.622  1.00  0.00    -0.269 N
HETATM   18  O1  UNL     1       5.632  16.627  12.353  1.00  0.00    -0.266 OA
HETATM   19  C1  UNL     1       7.946  17.534  11.219  1.00  0.00     0.164 C
HETATM   20  C25 UNL     1       8.457  18.179  13.526  1.00  0.00     0.332 A
HETATM   21  N3  UNL     1       8.221  18.298  14.856  1.00  0.00    -0.285 N
HETATM   22  O2  UNL     1       9.547  18.621  13.080  1.00  0.00    -0.246 OA
BRANCH  21  23
HETATM   23  C16 UNL     1       9.279  18.914  15.623  1.00  0.00     0.228 C
BRANCH  23  24
HETATM   24  C17 UNL     1      10.107  17.840  16.176  1.00  0.00    -0.081 C
HETATM   25  C18 UNL     1      10.792  16.946  16.613  1.00  0.00    -0.065 C
BRANCH  25  26
HETATM   26  C19 UNL     1      11.594  15.867  17.118  1.00  0.00     0.017 A
HETATM   27  C20 UNL     1      12.950  15.969  17.351  1.00  0.00     0.020 A
HETATM   28  C21 UNL     1      13.710  14.934  17.835  1.00  0.00     0.001 A
HETATM   29  C22 UNL     1      13.112  13.731  18.107  1.00  0.00     0.000 A
HETATM   30  C23 UNL     1      11.771  13.580  17.894  1.00  0.00     0.001 A
HETATM   31  C24 UNL     1      11.038  14.631  17.410  1.00  0.00     0.020 A
ENDBRANCH  25  26
ENDBRANCH  23  24
ENDBRANCH  21  23
ENDBRANCH  10  11
ENDBRANCH   1   9
TORSDOF 5
ENDMDL