MODEL 4
REMARK VINA RESULT: 7.089261145      1.796      3.079
REMARK  1 active torsions:
REMARK  status: ('A' for Active; 'I' for Inactive)
REMARK    1  A    between atoms: C13_14  and  C14_15
ROOT
HETATM    1  C1  UNL     1       9.096  15.027  15.379  1.00  0.00     0.151 C
HETATM    2  N1  UNL     1       8.743  16.406  15.357  1.00  0.00    -0.367 N
HETATM    3  C2  UNL     1       8.935  17.363  16.426  1.00  0.00     0.041 A
HETATM    4  C3  UNL     1       9.852  17.479  17.431  1.00  0.00     0.030 A
HETATM    5  C4  UNL     1       9.732  18.550  18.288  1.00  0.00     0.002 A
HETATM    6  C5  UNL     1       8.737  19.495  18.171  1.00  0.00     0.001 A
HETATM    7  C6  UNL     1       7.794  19.374  17.137  1.00  0.00     0.014 A
HETATM    8  C7  UNL     1       7.915  18.302  16.285  1.00  0.00     0.000 A
HETATM    9  C8  UNL     1       7.107  17.900  15.132  1.00  0.00    -0.001 C
HETATM   10  C9  UNL     1       5.859  18.044  14.762  1.00  0.00     0.001 A
HETATM   11  C10 UNL     1       4.973  18.727  15.562  1.00  0.00     0.014 A
HETATM   12  C11 UNL     1       3.654  18.911  15.130  1.00  0.00     0.002 A
HETATM   13  C12 UNL     1       3.285  18.406  13.928  1.00  0.00     0.017 A
HETATM   14  C13 UNL     1       4.130  17.716  13.095  1.00  0.00     0.036 A
HETATM   15  C23 UNL     1       5.430  17.538  13.533  1.00  0.00     0.059 A
HETATM   16  N5  UNL     1       6.208  16.790  12.797  1.00  0.00    -0.323 N
ATOM     17  H5  UNL     1       5.859  16.444  11.903  1.00  0.00     0.169 HD
HETATM   18  C24 UNL     1       7.521  16.446  13.201  1.00  0.00     0.249 C
HETATM   19  O2  UNL     1       8.116  15.526  12.610  1.00  0.00    -0.270 OA
HETATM   20  C25 UNL     1       8.135  17.162  14.283  1.00  0.00     0.212 C
ENDROOT
BRANCH  14  21
HETATM   21  C14 UNL     1       3.693  17.178  11.792  1.00  0.00     0.119 A
HETATM   22  N2  UNL     1       4.554  16.473  11.041  1.00  0.00    -0.351 N
HETATM   23  C15 UNL     1       4.169  15.967   9.832  1.00  0.00     0.106 A
ATOM     24  H2  UNL     1       5.505  16.315  11.376  1.00  0.00     0.166 HD
HETATM   25  C16 UNL     1       2.889  16.175   9.363  1.00  0.00     0.045 A
HETATM   26  C17 UNL     1       2.014  16.899  10.142  1.00  0.00     0.164 A
HETATM   27  C22 UNL     1       2.193  15.821   8.230  1.00  0.00     0.031 A
HETATM   28  N3  UNL     1       2.451  17.376  11.333  1.00  0.00    -0.321 N
HETATM   29  O1  UNL     1       0.880  16.957   9.490  1.00  0.00    -0.275 OA
ATOM     30  H3  UNL     1       1.802  17.913  11.909  1.00  0.00     0.169 HD
HETATM   31  C18 UNL     1       0.920  16.336   8.349  1.00  0.00     0.161 A
HETATM   32  N4  UNL     1       0.036  16.117   7.342  1.00  0.00    -0.346 N
HETATM   33  C19 UNL     1       0.365  15.416   6.244  1.00  0.00     0.090 A
ATOM     34  H4  UNL     1      -0.908  16.495   7.423  1.00  0.00     0.167 HD
HETATM   35  C20 UNL     1       1.624  14.880   6.077  1.00  0.00     0.018 A
HETATM   36  C21 UNL     1       2.529  15.099   7.096  1.00  0.00     0.018 A
ENDBRANCH  14  21
TORSDOF 1
ENDMDL