MODEL 1
REMARK VINA RESULT: 1.955332768      0.000      0.000
REMARK  3 active torsions:
REMARK  status: ('A' for Active; 'I' for Inactive)
REMARK    1  A    between atoms: N2_5  and  C4_6
REMARK    2  A    between atoms: C6_13  and  C7_14
REMARK    3  A    between atoms: C8_15  and  C9_16
ROOT
HETATM    1  C4  UNL     1       8.030  17.430  15.360  1.00  0.00     0.130 A
HETATM    2  N3  UNL     1       8.702  16.822  14.373  1.00  0.00    -0.277 N
ATOM      3  H3  UNL     1       9.692  16.623  14.519  1.00  0.00     0.189 HD
HETATM    4  N4  UNL     1       8.161  16.467  13.225  1.00  0.00    -0.247 N
HETATM    5  C5  UNL     1       8.677  15.854  12.133  1.00  0.00     0.208 A
HETATM    6  N5  UNL     1       7.735  15.705  11.216  1.00  0.00    -0.342 N
ATOM      7  H5  UNL     1       7.860  15.274  10.301  1.00  0.00     0.167 HD
HETATM    8  C6  UNL     1       6.553  16.232  11.703  1.00  0.00     0.118 A
HETATM    9  C18 UNL     1       6.839  16.693  12.937  1.00  0.00     0.104 A
HETATM   10  C19 UNL     1       6.082  17.316  13.905  1.00  0.00     0.010 A
HETATM   11  C20 UNL     1       4.758  17.595  13.713  1.00  0.00     0.015 A
HETATM   12  C21 UNL     1       4.068  18.235  14.739  1.00  0.00     0.001 A
HETATM   13  C22 UNL     1       4.663  18.590  15.914  1.00  0.00     0.001 A
HETATM   14  C23 UNL     1       5.991  18.319  16.127  1.00  0.00     0.016 A
HETATM   15  C24 UNL     1       6.686  17.674  15.095  1.00  0.00     0.022 A
ENDROOT
BRANCH   8  16
HETATM   16  C7  UNL     1       5.339  16.232  10.963  1.00  0.00    -0.041 C
HETATM   17  C8  UNL     1       4.300  16.181  10.310  1.00  0.00    -0.059 C
BRANCH  17  18
HETATM   18  C9  UNL     1       3.082  16.140   9.547  1.00  0.00     0.032 A
HETATM   19  C10 UNL     1       1.930  15.513  10.036  1.00  0.00     0.038 A
HETATM   20  C11 UNL     1       0.771  15.481   9.293  1.00  0.00     0.090 A
HETATM   21  N6  UNL     1       0.709  16.049   8.080  1.00  0.00    -0.365 N
HETATM   22  C12 UNL     1       1.803  16.674   7.553  1.00  0.00     0.043 A
ATOM     23  H6  UNL     1      -0.160  16.013   7.547  1.00  0.00     0.165 HD
HETATM   24  C13 UNL     1       1.717  17.251   6.304  1.00  0.00     0.030 A
HETATM   25  C17 UNL     1       2.969  16.710   8.291  1.00  0.00     0.009 A
HETATM   26  C14 UNL     1       2.855  17.873   5.815  1.00  0.00     0.002 A
HETATM   27  C15 UNL     1       4.025  17.912   6.549  1.00  0.00     0.001 A
HETATM   28  C16 UNL     1       4.099  17.336   7.790  1.00  0.00     0.015 A
ENDBRANCH  17  18
ENDBRANCH   8  16
BRANCH   1  29
HETATM   29  N2  UNL     1       8.696  17.744  16.569  1.00  0.00    -0.362 N
HETATM   30  C3  UNL     1       9.165  19.085  16.851  1.00  0.00     0.154 C
HETATM   31  C2  UNL     1       8.562  19.491  18.186  1.00  0.00     0.291 C
HETATM   32  N1  UNL     1       9.137  18.656  19.201  1.00  0.00     0.087 N
HETATM   33  C1  UNL     1      10.094  19.484  19.934  1.00  0.00     0.310 C
HETATM   34  C26 UNL     1       9.736  17.461  18.699  1.00  0.00     0.291 C
HETATM   35  C25 UNL     1       8.954  16.768  17.610  1.00  0.00     0.154 C
ENDBRANCH   1  29
TORSDOF 3
ENDMDL