MODEL 5
REMARK VINA RESULT: 5.497166643      1.122      2.740
REMARK  3 active torsions:
REMARK  status: ('A' for Active; 'I' for Inactive)
REMARK    1  A    between atoms: C9_14  and  C10_15
REMARK    2  A    between atoms: C11_16  and  C12_17
REMARK    3  A    between atoms: C15_20  and  N4_21
ROOT
HETATM    1  C1  UNL     1       9.092  20.375  18.568  1.00  0.00     0.068 C
HETATM    2  C2  UNL     1       9.151  19.090  17.817  1.00  0.00     0.008 A
HETATM    3  C3  UNL     1      10.079  18.175  18.246  1.00  0.00     0.055 A
HETATM    4  C4  UNL     1      10.163  16.986  17.582  1.00  0.00     0.051 A
HETATM    5  N1  UNL     1      11.056  16.050  17.955  1.00  0.00    -0.351 N
ATOM      6  H1  UNL     1      11.676  16.232  18.744  1.00  0.00     0.166 HD
HETATM    7  C5  UNL     1      11.142  14.887  17.307  1.00  0.00     0.182 A
HETATM    8  N2  UNL     1      10.350  14.638  16.289  1.00  0.00    -0.343 N
ATOM      9  H2  UNL     1      10.430  13.743  15.808  1.00  0.00     0.167 HD
HETATM   10  C6  UNL     1       9.408  15.553  15.850  1.00  0.00     0.130 A
HETATM   11  C7  UNL     1       8.635  15.130  14.738  1.00  0.00     0.118 C
HETATM   12  N3  UNL     1       8.056  14.712  13.838  1.00  0.00    -0.190 NA
HETATM   13  C8  UNL     1       9.304  16.737  16.489  1.00  0.00     0.064 A
HETATM   14  C9  UNL     1       8.393  17.654  16.080  1.00  0.00     0.103 A
HETATM   15  N5  UNL     1       8.347  18.841  16.785  1.00  0.00    -0.352 N
ATOM     16  H5  UNL     1       7.674  19.554  16.504  1.00  0.00     0.166 HD
ENDROOT
BRANCH  14  17
HETATM   17  C10 UNL     1       7.462  17.545  15.002  1.00  0.00    -0.042 C
HETATM   18  C11 UNL     1       6.694  17.368  14.114  1.00  0.00    -0.060 C
BRANCH  18  19
HETATM   19  C12 UNL     1       5.754  17.135  13.056  1.00  0.00     0.018 A
HETATM   20  C13 UNL     1       6.116  16.348  11.983  1.00  0.00     0.023 A
HETATM   21  C14 UNL     1       5.223  16.101  10.950  1.00  0.00     0.031 A
HETATM   22  C15 UNL     1       3.937  16.642  10.963  1.00  0.00     0.046 A
HETATM   23  C24 UNL     1       3.582  17.427  12.034  1.00  0.00     0.031 A
HETATM   24  C25 UNL     1       4.469  17.663  13.051  1.00  0.00     0.023 A
BRANCH  22  25
HETATM   25  N4  UNL     1       3.084  16.342   9.869  1.00  0.00    -0.244 N
HETATM   26  C16 UNL     1       3.342  16.587   8.471  1.00  0.00     0.266 A
HETATM   27  O1  UNL     1       4.377  17.116   8.032  1.00  0.00    -0.267 OA
HETATM   28  C17 UNL     1       2.214  16.121   7.691  1.00  0.00     0.048 A
HETATM   29  C18 UNL     1       1.963  16.118   6.317  1.00  0.00     0.018 A
HETATM   30  C22 UNL     1       1.257  15.594   8.531  1.00  0.00     0.048 A
HETATM   31  C19 UNL     1       0.793  15.604   5.842  1.00  0.00     0.001 A
HETATM   32  C20 UNL     1      -0.166  15.079   6.683  1.00  0.00     0.001 A
HETATM   33  C21 UNL     1       0.082  15.080   8.033  1.00  0.00     0.018 A
HETATM   34  C23 UNL     1       1.802  15.733   9.898  1.00  0.00     0.266 A
HETATM   35  O2  UNL     1       1.199  15.357  10.936  1.00  0.00    -0.267 OA
ENDBRANCH  22  25
ENDBRANCH  18  19
ENDBRANCH  14  17
TORSDOF 3
ENDMDL