MODEL 3
REMARK VINA RESULT: -0.120040992      1.910      2.549
REMARK  3 active torsions:
REMARK  status: ('A' for Active; 'I' for Inactive)
REMARK    1  A    between atoms: C4_7  and  C5_8
REMARK    2  A    between atoms: C6_9  and  C7_10
REMARK    3  A    between atoms: N1_12  and  C9_13
ROOT
HETATM    1  O1  UNL     1       6.263  18.585  20.801  1.00  0.00    -0.217 OA
HETATM    2  S1  UNL     1       7.582  18.162  20.245  1.00  0.00     0.210 S
HETATM    3  O2  UNL     1       7.929  16.842  20.917  1.00  0.00    -0.217 OA
HETATM    4  C1  UNL     1       7.440  17.840  18.524  1.00  0.00     0.072 A
HETATM    5  C2  UNL     1       6.181  17.517  18.129  1.00  0.00     0.026 A
HETATM    6  C3  UNL     1       5.848  17.228  16.808  1.00  0.00     0.022 A
HETATM    7  C4  UNL     1       6.844  17.273  15.863  1.00  0.00     0.018 A
HETATM    8  C15 UNL     1       8.122  17.598  16.248  1.00  0.00     0.031 A
HETATM    9  C16 UNL     1       8.447  17.888  17.584  1.00  0.00    -0.011 A
HETATM   10  C17 UNL     1       9.891  18.203  17.728  1.00  0.00     0.216 C
HETATM   11  O3  UNL     1      10.134  19.423  18.407  1.00  0.00    -0.345 OA
HETATM   12  C18 UNL     1       9.846  19.788  19.712  1.00  0.00     0.091 A
HETATM   13  C19 UNL     1      10.741  20.736  20.161  1.00  0.00     0.038 A
HETATM   14  C20 UNL     1      10.650  21.251  21.443  1.00  0.00     0.003 A
HETATM   15  C21 UNL     1       9.658  20.807  22.261  1.00  0.00     0.002 A
HETATM   16  C22 UNL     1       8.761  19.852  21.803  1.00  0.00     0.027 A
HETATM   17  C23 UNL     1       8.839  19.333  20.534  1.00  0.00     0.097 A
ENDROOT
BRANCH   7  18
HETATM   18  C5  UNL     1       6.503  16.974  14.491  1.00  0.00    -0.060 C
HETATM   19  C6  UNL     1       6.202  16.714  13.353  1.00  0.00    -0.041 C
BRANCH  19  20
HETATM   20  C7  UNL     1       5.822  16.393  12.005  1.00  0.00     0.117 A
HETATM   21  C8  UNL     1       4.565  16.589  11.473  1.00  0.00     0.154 A
HETATM   22  N1  UNL     1       4.602  16.168  10.197  1.00  0.00    -0.248 N
HETATM   23  N2  UNL     1       5.830  15.720   9.915  1.00  0.00    -0.014 NA
HETATM   24  N3  UNL     1       6.558  15.859  11.012  1.00  0.00    -0.275 N
ATOM     25  H3  UNL     1       7.541  15.599  11.094  1.00  0.00     0.185 HD
BRANCH  22  26
HETATM   26  C9  UNL     1       3.501  16.197   9.286  1.00  0.00     0.054 A
HETATM   27  C10 UNL     1       3.595  16.753   8.035  1.00  0.00     0.031 A
HETATM   28  C11 UNL     1       2.542  16.790   7.137  1.00  0.00     0.002 A
HETATM   29  C12 UNL     1       1.346  16.245   7.518  1.00  0.00     0.000 A
HETATM   30  C13 UNL     1       1.210  15.676   8.767  1.00  0.00     0.002 A
HETATM   31  C14 UNL     1       2.276  15.651   9.645  1.00  0.00     0.031 A
ENDBRANCH  22  26
ENDBRANCH  19  20
ENDBRANCH   7  18
TORSDOF 3
ENDMDL