MODEL 5
REMARK VINA RESULT: -4.177711570      2.115      2.564
REMARK  3 active torsions:
REMARK  status: ('A' for Active; 'I' for Inactive)
REMARK    1  A    between atoms: N1_1  and  N2_4
REMARK    2  A    between atoms: N2_4  and  C1_6
REMARK    3  A    between atoms: C1_6  and  C2_8
ROOT
HETATM    1  C2  UNL     1      -3.935  17.179  -9.271  1.00  0.00     0.156 A
HETATM    2  N3  UNL     1      -4.089  18.374  -8.671  1.00  0.00    -0.292 N
ATOM      3  H3  UNL     1      -4.075  19.223  -9.237  1.00  0.00     0.187 HD
HETATM    4  N4  UNL     1      -4.258  18.472  -7.360  1.00  0.00    -0.295 N
ATOM      5  H4  UNL     1      -4.371  19.391  -6.933  1.00  0.00     0.187 HD
HETATM    6  C3  UNL     1      -4.283  17.371  -6.587  1.00  0.00     0.200 A
HETATM    7  N5  UNL     1      -4.136  16.148  -7.126  1.00  0.00    -0.317 N
ATOM      8  H5  UNL     1      -4.157  15.315  -6.538  1.00  0.00     0.170 HD
HETATM    9  C4  UNL     1      -3.962  16.046  -8.457  1.00  0.00     0.277 A
HETATM   10  O1  UNL     1      -3.821  14.927  -9.001  1.00  0.00    -0.265 OA
ENDROOT
BRANCH   1  11
HETATM   11  C1  UNL     1      -3.745  17.021 -10.706  1.00  0.00     0.148 C
HETATM   12  S1  UNL     1      -5.057  17.156 -11.664  1.00  0.00    -0.056 SA
BRANCH  11  13
HETATM   13  N2  UNL     1      -2.444  16.754 -11.252  1.00  0.00    -0.295 N
ATOM     14  H2  UNL     1      -1.865  17.542 -11.541  1.00  0.00     0.187 HD
BRANCH  13  15
HETATM   15  N1  UNL     1      -1.944  15.475 -11.402  1.00  0.00    -0.344 N
ATOM     16  H12 UNL     1      -2.074  15.019 -12.305  1.00  0.00     0.176 HD
ATOM     17  H11 UNL     1      -1.457  14.981 -10.653  1.00  0.00     0.176 HD
ENDBRANCH  13  15
ENDBRANCH  11  13
ENDBRANCH   1  11
TORSDOF 3
ENDMDL