MODEL 2
REMARK VINA RESULT: -4.967175591      2.492      3.969
REMARK  2 active torsions:
REMARK  status: ('A' for Active; 'I' for Inactive)
REMARK    1  A    between atoms: N4_13  and  N5_15
REMARK    2  A    between atoms: N5_15  and  C7_17
ROOT
HETATM    1  N1  UNL     1      -4.436  17.988 -10.872  1.00  0.00    -0.191 NA
HETATM    2  C1  UNL     1      -4.321  16.916 -10.458  1.00  0.00     0.103 C
HETATM    3  C2  UNL     1      -4.185  15.561  -9.970  1.00  0.00     0.090 A
HETATM    4  C3  UNL     1      -4.324  14.530 -10.809  1.00  0.00     0.112 A
HETATM    5  N2  UNL     1      -4.207  13.174 -10.416  1.00  0.00    -0.371 N
ATOM      6  H2  UNL     1      -4.327  12.444 -11.119  1.00  0.00     0.164 HD
HETATM    7  C4  UNL     1      -3.953  12.831  -9.200  1.00  0.00     0.119 A
HETATM    8  C5  UNL     1      -3.782  13.860  -8.204  1.00  0.00     0.071 A
HETATM    9  N3  UNL     1      -3.528  13.592  -6.978  1.00  0.00    -0.396 N
ATOM     10  H31 UNL     1      -3.407  14.320  -6.274  1.00  0.00     0.156 HD
ATOM     11  H32 UNL     1      -3.449  12.607  -6.727  1.00  0.00     0.156 HD
HETATM   12  C6  UNL     1      -3.896  15.295  -8.570  1.00  0.00     0.097 A
HETATM   13  N4  UNL     1      -3.746  16.187  -7.690  1.00  0.00    -0.295 N
ATOM     14  H4  UNL     1      -3.549  15.820  -6.760  1.00  0.00     0.187 HD
ENDROOT
BRANCH  13  15
HETATM   15  N5  UNL     1      -3.796  17.550  -7.746  1.00  0.00    -0.277 N
ATOM     16  H5  UNL     1      -3.517  18.016  -8.610  1.00  0.00     0.189 HD
BRANCH  15  17
HETATM   17  C7  UNL     1      -4.226  18.357  -6.634  1.00  0.00     0.368 C
HETATM   18  O1  UNL     1      -4.630  19.515  -6.887  1.00  0.00    -0.282 OA
ENDBRANCH  15  17
ENDBRANCH  13  15
TORSDOF 2
ENDMDL