MODEL 1
REMARK VINA RESULT: -5.760341973      0.000      0.000
REMARK  0 active torsions:
REMARK  status: ('A' for Active; 'I' for Inactive)
ROOT
HETATM    1  O1  UNL     1      -4.063  18.226  -6.167  1.00  0.00    -0.247 OA
HETATM    2  C1  UNL     1      -4.101  17.535  -7.222  1.00  0.00     0.328 A
HETATM    3  N1  UNL     1      -4.187  18.123  -8.431  1.00  0.00    -0.273 N
ATOM      4  H1  UNL     1      -4.221  19.141  -8.474  1.00  0.00     0.173 HD
HETATM    5  C2  UNL     1      -4.232  17.433  -9.584  1.00  0.00     0.281 A
HETATM    6  O2  UNL     1      -4.313  18.029 -10.694  1.00  0.00    -0.265 OA
HETATM    7  C3  UNL     1      -4.187  16.051  -9.548  1.00  0.00     0.160 A
HETATM    8  N2  UNL     1      -4.211  15.089 -10.491  1.00  0.00    -0.276 N
ATOM      9  H2  UNL     1      -4.273  15.243 -11.498  1.00  0.00     0.184 HD
HETATM   10  N3  UNL     1      -4.141  13.909  -9.890  1.00  0.00    -0.020 NA
HETATM   11  N4  UNL     1      -4.072  14.096  -8.569  1.00  0.00    -0.267 N
ATOM     12  H4  UNL     1      -4.010  13.360  -7.865  1.00  0.00     0.186 HD
HETATM   13  C4  UNL     1      -4.099  15.435  -8.319  1.00  0.00     0.156 A
HETATM   14  N5  UNL     1      -4.058  16.187  -7.202  1.00  0.00    -0.291 N
ATOM     15  H5  UNL     1      -3.992  15.716  -6.299  1.00  0.00     0.172 HD
ENDROOT
TORSDOF 0
ENDMDL