MODEL 4
REMARK VINA RESULT: -5.150836763      1.422      1.521
REMARK  1 active torsions:
REMARK  status: ('A' for Active; 'I' for Inactive)
REMARK    1  A    between atoms: N4_10  and  C4_11
ROOT
HETATM    1  N1  UNL     1      -2.516  17.364 -10.809  1.00  0.00    -0.062 NA
HETATM    2  C1  UNL     1      -2.605  16.002 -10.385  1.00  0.00     0.211 C
HETATM    3  N2  UNL     1      -1.897  15.079 -10.945  1.00  0.00    -0.271 N
ATOM      4  H2  UNL     1      -1.259  15.315 -11.704  1.00  0.00     0.189 HD
HETATM    5  N3  UNL     1      -2.007  13.764 -10.511  1.00  0.00    -0.266 N
ATOM      6  H3  UNL     1      -1.453  13.026 -10.944  1.00  0.00     0.190 HD
HETATM    7  C2  UNL     1      -2.912  13.469  -9.446  1.00  0.00     0.254 C
HETATM    8  O1  UNL     1      -2.681  12.487  -8.721  1.00  0.00    -0.270 OA
HETATM    9  C3  UNL     1      -4.105  14.371  -9.260  1.00  0.00     0.238 C
HETATM   10  N4  UNL     1      -3.496  15.722  -9.322  1.00  0.00    -0.295 N
ENDROOT
BRANCH  10  11
HETATM   11  C4  UNL     1      -3.794  16.682  -8.332  1.00  0.00     0.143 A
HETATM   12  C5  UNL     1      -3.802  16.657  -6.965  1.00  0.00     0.158 A
HETATM   13  N5  UNL     1      -4.155  17.851  -6.454  1.00  0.00    -0.294 N
HETATM   14  N6  UNL     1      -4.370  18.629  -7.490  1.00  0.00    -0.241 N
ATOM     15  H5  UNL     1      -4.239  18.100  -5.468  1.00  0.00     0.187 HD
HETATM   16  N7  UNL     1      -4.165  17.969  -8.618  1.00  0.00    -0.270 N
ATOM     17  H6  UNL     1      -4.654  19.607  -7.434  1.00  0.00     0.208 HD
ATOM     18  H7  UNL     1      -4.267  18.357  -9.556  1.00  0.00     0.190 HD
ENDBRANCH  10  11
TORSDOF 1
ENDMDL