MODEL 1
REMARK VINA RESULT: -4.794379904      0.000      0.000
REMARK  3 active torsions:
REMARK  status: ('A' for Active; 'I' for Inactive)
REMARK    1  A    between atoms: N1_1  and  C1_4
REMARK    2  A    between atoms: C2_7  and  S1_8
REMARK    3  A    between atoms: S1_8  and  N3_9
ROOT
HETATM    1  C1  UNL     1      -4.309  18.177  -7.088  1.00  0.00     0.683 A
HETATM    2  N2  UNL     1      -4.297  18.218  -8.385  1.00  0.00    -0.171 N
ATOM      3  H2  UNL     1      -4.442  19.102  -8.874  1.00  0.00     0.185 HD
HETATM    4  C2  UNL     1      -4.095  17.102  -9.067  1.00  0.00     0.222 A
HETATM    5  S2  UNL     1      -3.914  15.960  -7.809  1.00  0.00     0.034 SA
HETATM    6  N4  UNL     1      -4.112  16.995  -6.497  1.00  0.00    -0.158 N
ATOM      7  H4  UNL     1      -4.088  16.775  -5.501  1.00  0.00     0.193 HD
ENDROOT
BRANCH   4   8
HETATM    8  S1  UNL     1      -4.028  16.864 -10.817  1.00  0.00     0.281 S
HETATM    9  O1  UNL     1      -4.916  17.862 -11.498  1.00  0.00    -0.199 OA
HETATM   10  O2  UNL     1      -4.569  15.473 -11.076  1.00  0.00    -0.199 OA
BRANCH   8  11
HETATM   11  N3  UNL     1      -2.411  16.933 -11.385  1.00  0.00    -0.323 N
ATOM     12  H32 UNL     1      -1.600  17.023 -10.773  1.00  0.00     0.169 HD
ATOM     13  H31 UNL     1      -2.378  16.870 -12.402  1.00  0.00     0.169 HD
ENDBRANCH   8  11
ENDBRANCH   4   8
BRANCH   1  14
HETATM   14  N1  UNL     1      -4.507  19.265  -6.367  1.00  0.00    -0.234 N
ATOM     15  H12 UNL     1      -3.880  20.065  -6.450  1.00  0.00     0.174 HD
ATOM     16  H11 UNL     1      -5.287  19.335  -5.713  1.00  0.00     0.174 HD
ENDBRANCH   1  14
TORSDOF 3
ENDMDL