MODEL 1
REMARK VINA RESULT: -5.742714965      0.000      0.000
REMARK  1 active torsions:
REMARK  status: ('A' for Active; 'I' for Inactive)
REMARK    1  A    between atoms: C5_12  and  C6_13
ROOT
HETATM    1  N1  UNL     1      -3.768  14.556  -7.231  1.00  0.00    -0.233 N
ATOM      2  H11 UNL     1      -3.787  13.863  -7.978  1.00  0.00     0.174 HD
ATOM      3  H12 UNL     1      -3.620  14.280  -6.260  1.00  0.00     0.174 HD
HETATM    4  C1  UNL     1      -3.940  15.787  -7.569  1.00  0.00     0.699 A
HETATM    5  N2  UNL     1      -3.917  16.702  -6.582  1.00  0.00    -0.186 N
ATOM      6  H2  UNL     1      -3.766  16.396  -5.620  1.00  0.00     0.185 HD
HETATM    7  C2  UNL     1      -4.088  18.013  -6.838  1.00  0.00     0.199 A
HETATM    8  N3  UNL     1      -4.286  18.397  -8.121  1.00  0.00    -0.336 N
ATOM      9  H3  UNL     1      -4.417  19.383  -8.346  1.00  0.00     0.168 HD
HETATM   10  C3  UNL     1      -4.308  17.469  -9.103  1.00  0.00     0.148 A
HETATM   11  C4  UNL     1      -4.486  17.545 -10.490  1.00  0.00     0.087 A
HETATM   12  C5  UNL     1      -4.414  16.269 -11.012  1.00  0.00     0.117 A
HETATM   13  N5  UNL     1      -4.201  15.461  -9.973  1.00  0.00    -0.273 N
ATOM     14  H5  UNL     1      -4.100  14.448 -10.033  1.00  0.00     0.188 HD
HETATM   15  N6  UNL     1      -4.138  16.155  -8.865  1.00  0.00    -0.069 N
ENDROOT
BRANCH  12  16
HETATM   16  C6  UNL     1      -4.543  15.877 -12.401  1.00  0.00     0.282 C
HETATM   17  N4  UNL     1      -5.210  16.752 -13.323  1.00  0.00    -0.056 NA
HETATM   18  O1  UNL     1      -4.064  14.776 -12.771  1.00  0.00    -0.269 OA
ENDBRANCH  12  16
TORSDOF 1
ENDMDL