MODEL 1
REMARK VINA RESULT: -4.940390277      0.000      0.000
REMARK  2 active torsions:
REMARK  status: ('A' for Active; 'I' for Inactive)
REMARK    1  A    between atoms: N1_1  and  C1_4
REMARK    2  A    between atoms: C3_10  and  N4_11
ROOT
HETATM    1  C1  UNL     1      -4.317  17.306  -9.512  1.00  0.00     0.691 A
HETATM    2  N2  UNL     1      -4.334  18.132  -8.468  1.00  0.00    -0.187 N
ATOM      3  H2  UNL     1      -4.489  19.128  -8.620  1.00  0.00     0.185 HD
HETATM    4  C2  UNL     1      -4.148  17.672  -7.209  1.00  0.00     0.215 A
HETATM    5  N3  UNL     1      -3.940  16.350  -6.970  1.00  0.00    -0.187 N
ATOM      6  H3  UNL     1      -3.802  16.001  -6.021  1.00  0.00     0.185 HD
HETATM    7  C3  UNL     1      -3.922  15.516  -8.027  1.00  0.00     0.695 A
HETATM    8  N6  UNL     1      -4.110  15.985  -9.282  1.00  0.00    -0.022 N
ATOM      9  H6  UNL     1      -4.095  15.336 -10.067  1.00  0.00     0.203 HD
ENDROOT
BRANCH   7  10
HETATM   10  N4  UNL     1      -3.699  14.135  -7.781  1.00  0.00    -0.214 N
HETATM   11  C4  UNL     1      -4.296  13.151  -8.623  1.00  0.00     0.168 C
HETATM   12  C5  UNL     1      -3.670  11.794  -8.319  1.00  0.00     0.252 C
HETATM   13  N5  UNL     1      -3.751  11.617  -6.870  1.00  0.00    -0.072 N
HETATM   14  C6  UNL     1      -2.663  12.418  -6.331  1.00  0.00     0.252 C
ATOM     15  H52 UNL     1      -4.665  11.844  -6.477  1.00  0.00     0.277 HD
ATOM     16  H51 UNL     1      -3.734  10.642  -6.572  1.00  0.00     0.277 HD
HETATM   17  C7  UNL     1      -2.850  13.852  -6.654  1.00  0.00     0.168 C
ENDBRANCH   7  10
BRANCH   1  18
HETATM   18  N1  UNL     1      -4.472  17.658 -10.733  1.00  0.00    -0.234 N
ATOM     19  H12 UNL     1      -4.976  17.008 -11.336  1.00  0.00     0.174 HD
ATOM     20  H11 UNL     1      -4.123  18.525 -11.144  1.00  0.00     0.174 HD
ENDBRANCH   1  18
TORSDOF 2
ENDMDL