MODEL 2
REMARK VINA RESULT: -5.669211032      0.046      1.008
REMARK  2 active torsions:
REMARK  status: ('A' for Active; 'I' for Inactive)
REMARK       I    between atoms: C1_2  and  N1_3
REMARK    1  A    between atoms: C1_2  and  C3_12
REMARK    2  A    between atoms: N1_3  and  C2_5
ROOT
HETATM    1  O1  UNL     1      -4.913  18.014 -10.927  1.00  0.00    -0.263 OA
HETATM    2  C1  UNL     1      -4.332  17.133 -10.258  1.00  0.00     0.305 C
HETATM    3  N1  UNL     1      -3.775  16.009 -10.907  1.00  0.00    -0.151 N
ATOM      4  H1  UNL     1      -3.985  15.083 -10.535  1.00  0.00     0.188 HD
ENDROOT
BRANCH   2   5
HETATM    5  C3  UNL     1      -4.254  17.308  -8.816  1.00  0.00     0.191 A
HETATM    6  N6  UNL     1      -4.258  18.460  -8.126  1.00  0.00    -0.332 N
HETATM    7  C4  UNL     1      -4.168  18.139  -6.823  1.00  0.00     0.199 A
ATOM      8  H6  UNL     1      -4.319  19.400  -8.516  1.00  0.00     0.168 HD
HETATM    9  N7  UNL     1      -4.107  16.800  -6.683  1.00  0.00    -0.294 N
HETATM   10  N8  UNL     1      -4.159  16.300  -7.907  1.00  0.00    -0.280 N
ATOM     11  H7  UNL     1      -4.035  16.277  -5.809  1.00  0.00     0.187 HD
ATOM     12  H8  UNL     1      -4.133  15.307  -8.136  1.00  0.00     0.188 HD
ENDBRANCH   2   5
BRANCH   3  13
HETATM   13  C2  UNL     1      -3.026  16.091 -11.935  1.00  0.00     0.710 A
HETATM   14  N2  UNL     1      -3.419  15.884 -13.201  1.00  0.00    -0.117 N
HETATM   15  N3  UNL     1      -2.343  16.068 -13.946  1.00  0.00     0.006 NA
ATOM     16  H2  UNL     1      -4.355  15.634 -13.522  1.00  0.00     0.202 HD
HETATM   17  N4  UNL     1      -1.298  16.382 -13.182  1.00  0.00     0.006 NA
HETATM   18  N5  UNL     1      -1.720  16.399 -11.913  1.00  0.00    -0.117 N
ATOM     19  H5  UNL     1      -1.158  16.605 -11.088  1.00  0.00     0.202 HD
ENDBRANCH   3  13
TORSDOF 2
ENDMDL