MODEL 4
REMARK VINA RESULT: -4.910259713      2.181      4.147
REMARK  3 active torsions:
REMARK  status: ('A' for Active; 'I' for Inactive)
REMARK    1  A    between atoms: N1_1  and  C1_4
REMARK    2  A    between atoms: C6_14  and  C7_15
REMARK    3  A    between atoms: C7_15  and  N5_16
ROOT
HETATM    1  C1  UNL     1      -4.238  17.332  -8.947  1.00  0.00     0.124 A
HETATM    2  N2  UNL     1      -4.580  17.500 -10.217  1.00  0.00    -0.260 N
ATOM      3  H2  UNL     1      -4.803  18.430 -10.572  1.00  0.00     0.191 HD
HETATM    4  N3  UNL     1      -4.629  16.451 -11.017  1.00  0.00    -0.149 N
HETATM    5  C2  UNL     1      -4.952  16.398 -12.340  1.00  0.00     0.283 A
HETATM    6  O1  UNL     1      -5.270  17.376 -13.050  1.00  0.00    -0.265 OA
HETATM    7  C3  UNL     1      -4.879  15.103 -12.794  1.00  0.00     0.097 A
HETATM    8  C4  UNL     1      -4.494  14.359 -11.682  1.00  0.00     0.123 A
HETATM    9  N4  UNL     1      -4.358  15.212 -10.648  1.00  0.00    -0.254 N
HETATM   10  C5  UNL     1      -4.008  15.034  -9.351  1.00  0.00     0.130 A
HETATM   11  C6  UNL     1      -3.939  16.082  -8.467  1.00  0.00     0.029 A
ENDROOT
BRANCH  11  12
HETATM   12  C7  UNL     1      -3.552  15.824  -7.067  1.00  0.00     0.273 C
BRANCH  12  13
HETATM   13  N5  UNL     1      -3.170  14.449  -6.893  1.00  0.00    -0.075 N
ATOM     14  H53 UNL     1      -3.933  13.887  -6.517  1.00  0.00     0.274 HD
ATOM     15  H52 UNL     1      -3.056  13.972  -7.787  1.00  0.00     0.274 HD
ATOM     16  H51 UNL     1      -2.330  14.379  -6.318  1.00  0.00     0.274 HD
ENDBRANCH  12  13
ENDBRANCH  11  12
BRANCH   1  17
HETATM   17  N1  UNL     1      -4.171  18.312  -8.109  1.00  0.00    -0.384 N
ATOM     18  H12 UNL     1      -4.967  18.441  -7.486  1.00  0.00     0.157 HD
ATOM     19  H11 UNL     1      -3.366  18.937  -8.059  1.00  0.00     0.157 HD
ENDBRANCH   1  17
TORSDOF 3
ENDMDL