MODEL 3
REMARK VINA RESULT: -5.330191133      0.793      1.206
REMARK  3 active torsions:
REMARK  status: ('A' for Active; 'I' for Inactive)
REMARK    1  A    between atoms: N1_1  and  N2_4
REMARK    2  A    between atoms: N2_4  and  C1_6
REMARK    3  A    between atoms: C2_9  and  N4_10
ROOT
HETATM    1  C1  UNL     1      -4.026  17.126  -9.607  1.00  0.00     0.697 A
HETATM    2  N3  UNL     1      -3.824  15.867  -9.160  1.00  0.00    -0.175 N
ATOM      3  H3  UNL     1      -3.649  15.116  -9.828  1.00  0.00     0.186 HD
HETATM    4  C2  UNL     1      -3.851  15.592  -7.839  1.00  0.00     0.121 A
HETATM    5  C6  UNL     1      -4.090  16.627  -6.963  1.00  0.00     0.066 A
HETATM    6  C7  UNL     1      -4.290  17.883  -7.436  1.00  0.00     0.110 A
HETATM    7  N6  UNL     1      -4.256  18.120  -8.754  1.00  0.00    -0.200 N
ATOM      8  H6  UNL     1      -4.407  19.067  -9.105  1.00  0.00     0.183 HD
ENDROOT
BRANCH   4   9
HETATM    9  N4  UNL     1      -3.636  14.262  -7.389  1.00  0.00    -0.342 N
HETATM   10  C3  UNL     1      -4.495  13.136  -7.662  1.00  0.00     0.153 C
HETATM   11  C4  UNL     1      -3.657  11.926  -7.385  1.00  0.00     0.254 C
HETATM   12  N5  UNL     1      -2.394  12.384  -6.910  1.00  0.00    -0.058 N
HETATM   13  C5  UNL     1      -2.543  13.764  -6.584  1.00  0.00     0.358 C
ATOM     14  H52 UNL     1      -2.032  11.828  -6.136  1.00  0.00     0.279 HD
ATOM     15  H51 UNL     1      -1.632  12.208  -7.564  1.00  0.00     0.279 HD
ENDBRANCH   4   9
BRANCH   1  16
HETATM   16  N2  UNL     1      -4.003  17.408 -10.865  1.00  0.00    -0.138 N
ATOM     17  H2  UNL     1      -3.134  17.347 -11.396  1.00  0.00     0.205 HD
BRANCH  16  18
HETATM   18  N1  UNL     1      -5.179  17.795 -11.481  1.00  0.00    -0.331 N
ATOM     19  H12 UNL     1      -6.049  17.802 -10.950  1.00  0.00     0.177 HD
ATOM     20  H11 UNL     1      -5.151  18.066 -12.465  1.00  0.00     0.177 HD
ENDBRANCH  16  18
ENDBRANCH   1  16
TORSDOF 3
ENDMDL