MODEL 5
REMARK VINA RESULT: -6.541291706      2.623      4.386
REMARK  10 active torsions:
REMARK  status: ('A' for Active; 'I' for Inactive)
REMARK    1  A    between atoms: C2_2  and  C3_3
REMARK    2  A    between atoms: C3_3  and  C4_4
REMARK    3  A    between atoms: C4_4  and  N1_5
REMARK    4  A    between atoms: N1_5  and  C5_7
REMARK    5  A    between atoms: C5_7  and  C7_11
REMARK    6  A    between atoms: N6_15  and  C8_16
REMARK    7  A    between atoms: C9_17  and  C10_18
REMARK    8  A    between atoms: C11_19  and  C12_20
REMARK    9  A    between atoms: C15_24  and  O1_25
REMARK       I    between atoms: N9_30  and  C18_32
REMARK   10  A    between atoms: C18_32  and  C19_34
ROOT
HETATM    1  C12 UNL     1      23.052  16.280  30.672  1.00  0.00     0.017 A
HETATM    2  C13 UNL     1      22.825  17.038  29.569  1.00  0.00     0.107 A
HETATM    3  C14 UNL     1      21.483  17.350  29.111  1.00  0.00     0.104 C
HETATM    4  N7  UNL     1      20.426  17.564  28.732  1.00  0.00    -0.191 NA
HETATM    5  C15 UNL     1      23.822  17.467  28.680  1.00  0.00     0.165 A
HETATM    6  N8  UNL     1      25.090  17.092  28.943  1.00  0.00    -0.320 N
ATOM      7  H8  UNL     1      25.832  17.392  28.310  1.00  0.00     0.169 HD
HETATM    8  C17 UNL     1      25.412  16.341  30.002  1.00  0.00     0.135 A
HETATM    9  N9  UNL     1      26.651  15.985  30.236  1.00  0.00    -0.302 N
ATOM     10  H9  UNL     1      26.841  15.412  31.059  1.00  0.00     0.171 HD
HETATM   11  C18 UNL     1      27.722  16.346  29.423  1.00  0.00     0.323 C
HETATM   12  O2  UNL     1      28.062  17.546  29.328  1.00  0.00    -0.260 OA
HETATM   13  C20 UNL     1      24.421  15.936  30.859  1.00  0.00     0.102 A
HETATM   14  N10 UNL     1      24.734  15.143  31.988  1.00  0.00    -0.097 NA
ENDROOT
BRANCH   1  15
HETATM   15  C11 UNL     1      22.143  15.935  31.710  1.00  0.00     0.015 C
HETATM   16  C10 UNL     1      21.942  16.152  32.953  1.00  0.00     0.002 C
BRANCH  16  17
HETATM   17  C9  UNL     1      22.607  16.897  33.964  1.00  0.00     0.019 C
HETATM   18  C8  UNL     1      22.068  17.012  35.179  1.00  0.00     0.110 C
BRANCH  18  19
HETATM   19  N6  UNL     1      20.853  16.438  35.560  1.00  0.00    -0.260 N
HETATM   20  C7  UNL     1      20.505  15.146  36.128  1.00  0.00     0.281 C
HETATM   21  N3  UNL     1      19.187  14.943  35.568  1.00  0.00    -0.093 NA
HETATM   22  N4  UNL     1      18.908  16.041  34.740  1.00  0.00    -0.015 NA
HETATM   23  N5  UNL     1      19.593  17.071  35.446  1.00  0.00    -0.009 NA
BRANCH  20  24
HETATM   24  C5  UNL     1      21.470  14.102  35.830  1.00  0.00     0.115 C
HETATM   25  N2  UNL     1      22.508  13.893  36.501  1.00  0.00    -0.381 N
HETATM   26  C6  UNL     1      23.084  14.484  37.635  1.00  0.00     0.147 C
ATOM     27  H2  UNL     1      23.060  13.114  36.139  1.00  0.00     0.160 HD
BRANCH  24  28
HETATM   28  N1  UNL     1      21.231  13.247  34.703  1.00  0.00    -0.377 N
ATOM     29  H1  UNL     1      20.263  13.038  34.456  1.00  0.00     0.160 HD
BRANCH  28  30
HETATM   30  C4  UNL     1      22.279  12.665  33.899  1.00  0.00     0.121 C
BRANCH  30  31
HETATM   31  C3  UNL     1      21.824  12.272  32.518  1.00  0.00     0.019 C
BRANCH  31  32
HETATM   32  C2  UNL     1      22.996  12.086  31.572  1.00  0.00    -0.003 C
HETATM   33  C1  UNL     1      22.688  12.650  30.220  1.00  0.00     0.005 C
ENDBRANCH  31  32
ENDBRANCH  30  31
ENDBRANCH  28  30
ENDBRANCH  24  28
ENDBRANCH  20  24
ENDBRANCH  18  19
ENDBRANCH  16  17
ENDBRANCH   1  15
BRANCH   5  34
HETATM   34  O1  UNL     1      23.532  18.250  27.566  1.00  0.00    -0.340 OA
HETATM   35  C16 UNL     1      24.061  19.575  27.583  1.00  0.00     0.211 C
ENDBRANCH   5  34
BRANCH  11  36
HETATM   36  C19 UNL     1      28.457  15.338  28.681  1.00  0.00     0.270 C
HETATM   37  O3  UNL     1      28.109  14.121  28.730  1.00  0.00    -0.640 OA
HETATM   38  O4  UNL     1      29.561  15.638  27.891  1.00  0.00    -0.640 OA
ENDBRANCH  11  36
TORSDOF 10
ENDMDL