MODEL 5
REMARK VINA RESULT: -6.979220916      1.464      1.727
REMARK  10 active torsions:
REMARK  status: ('A' for Active; 'I' for Inactive)
REMARK    1  A    between atoms: C5_14  and  C6_15
REMARK       I    between atoms: C6_15  and  N5_17
REMARK    2  A    between atoms: N5_17  and  N6_19
REMARK    3  A    between atoms: N6_19  and  N7_20
REMARK    4  A    between atoms: N8_23  and  C7_24
REMARK    5  A    between atoms: C7_24  and  C8_25
REMARK    6  A    between atoms: C7_24  and  C19_41
REMARK    7  A    between atoms: C8_25  and  C9_26
REMARK       I    between atoms: C9_26  and  N9_28
REMARK    8  A    between atoms: N9_28  and  C10_30
REMARK    9  A    between atoms: C10_30  and  C11_31
REMARK   10  A    between atoms: C11_31  and  C12_32
REMARK       I    between atoms: C12_32  and  N10_34
ROOT
HETATM    1  N1  UNL     1      20.359  19.443  28.472  1.00  0.00    -0.383 N
ATOM      2  H11 UNL     1      20.958  20.096  27.969  1.00  0.00     0.157 HD
ATOM      3  H12 UNL     1      19.377  19.686  28.608  1.00  0.00     0.157 HD
HETATM    4  C1  UNL     1      20.783  18.329  28.935  1.00  0.00     0.131 A
HETATM    5  N2  UNL     1      20.000  17.477  29.592  1.00  0.00    -0.337 N
ATOM      6  H2  UNL     1      19.017  17.715  29.729  1.00  0.00     0.168 HD
HETATM    7  C2  UNL     1      20.463  16.307  30.083  1.00  0.00     0.183 A
HETATM    8  N3  UNL     1      21.769  16.001  29.893  1.00  0.00    -0.336 N
ATOM      9  H3  UNL     1      22.127  15.119  30.260  1.00  0.00     0.168 HD
HETATM   10  C3  UNL     1      22.607  16.819  29.239  1.00  0.00     0.142 A
HETATM   11  C4  UNL     1      22.138  17.994  28.748  1.00  0.00     0.123 A
HETATM   12  N4  UNL     1      23.137  18.615  28.161  1.00  0.00    -0.332 N
ATOM     13  H4  UNL     1      23.081  19.523  27.701  1.00  0.00     0.168 HD
HETATM   14  C5  UNL     1      24.271  17.843  28.266  1.00  0.00     0.181 A
HETATM   15  N8  UNL     1      23.973  16.750  28.916  1.00  0.00    -0.297 N
ENDROOT
BRANCH  15  16
HETATM   16  C7  UNL     1      24.628  15.562  29.353  1.00  0.00     0.203 C
BRANCH  16  17
HETATM   17  C8  UNL     1      25.623  15.531  30.406  1.00  0.00     0.139 C
BRANCH  17  18
HETATM   18  C9  UNL     1      25.416  14.245  31.217  1.00  0.00     0.220 C
HETATM   19  O2  UNL     1      26.353  13.703  31.814  1.00  0.00    -0.274 OA
HETATM   20  N9  UNL     1      24.128  13.670  31.279  1.00  0.00    -0.361 N
ATOM     21  H9  UNL     1      23.345  14.106  30.791  1.00  0.00     0.162 HD
BRANCH  20  22
HETATM   22  C10 UNL     1      23.934  12.468  32.035  1.00  0.00     0.132 C
BRANCH  22  23
HETATM   23  C11 UNL     1      22.928  12.541  33.127  1.00  0.00     0.122 C
BRANCH  23  24
HETATM   24  C12 UNL     1      21.857  13.522  32.958  1.00  0.00     0.221 C
HETATM   25  O3  UNL     1      21.245  13.590  31.868  1.00  0.00    -0.273 OA
HETATM   26  N10 UNL     1      21.505  14.392  34.006  1.00  0.00    -0.352 N
HETATM   27  C13 UNL     1      22.286  14.250  35.218  1.00  0.00     0.125 C
HETATM   28  C18 UNL     1      20.414  15.290  33.722  1.00  0.00     0.125 C
HETATM   29  C14 UNL     1      22.022  15.320  36.237  1.00  0.00     0.020 C
HETATM   30  C15 UNL     1      22.222  16.704  35.682  1.00  0.00     0.002 C
HETATM   31  C16 UNL     1      20.885  17.198  35.166  1.00  0.00     0.002 C
HETATM   32  C17 UNL     1      20.791  16.738  33.731  1.00  0.00     0.020 C
ENDBRANCH  23  24
ENDBRANCH  22  23
ENDBRANCH  20  22
ENDBRANCH  17  18
ENDBRANCH  16  17
BRANCH  16  33
HETATM   33  C19 UNL     1      25.188  14.937  28.082  1.00  0.00     0.197 C
HETATM   34  O4  UNL     1      24.486  14.275  27.289  1.00  0.00    -0.646 OA
HETATM   35  O5  UNL     1      26.516  15.110  27.790  1.00  0.00    -0.646 OA
ENDBRANCH  16  33
ENDBRANCH  15  16
BRANCH  14  36
HETATM   36  C6  UNL     1      25.528  18.264  27.688  1.00  0.00     0.302 C
HETATM   37  O1  UNL     1      25.709  18.718  26.586  1.00  0.00    -0.263 OA
HETATM   38  N5  UNL     1      26.724  18.138  28.501  1.00  0.00    -0.247 N
ATOM     39  H5  UNL     1      26.655  17.760  29.446  1.00  0.00     0.187 HD
BRANCH  38  40
HETATM   40  N6  UNL     1      27.951  18.527  28.008  1.00  0.00    -0.027 NA
BRANCH  40  41
HETATM   41  N7  UNL     1      28.219  19.812  28.487  1.00  0.00    -0.329 N
ATOM     42  H72 UNL     1      28.056  20.678  27.974  1.00  0.00     0.174 HD
ATOM     43  H71 UNL     1      28.601  19.722  29.428  1.00  0.00     0.174 HD
ENDBRANCH  40  41
ENDBRANCH  38  40
ENDBRANCH  14  36
TORSDOF 10
ENDMDL