MODEL 1
REMARK VINA RESULT: -7.156956660      0.000      0.000
REMARK  11 active torsions:
REMARK  status: ('A' for Active; 'I' for Inactive)
REMARK    1  A    between atoms: O1_2  and  C2_3
REMARK    2  A    between atoms: C3_6  and  N2_7
REMARK    3  A    between atoms: N4_13  and  C5_15
REMARK    4  A    between atoms: C5_15  and  C6_16
REMARK    5  A    between atoms: C5_15  and  C10_24
REMARK    6  A    between atoms: C6_16  and  C7_17
REMARK    7  A    between atoms: C10_24  and  C11_26
REMARK    8  A    between atoms: C12_27  and  S1_28
REMARK    9  A    between atoms: S1_28  and  C13_31
REMARK   10  A    between atoms: C15_35  and  N8_36
REMARK   11  A    between atoms: C17_42  and  O5_43
ROOT
HETATM    1  C5  UNL     1      22.898  14.130  30.999  1.00  0.00     0.163 C
ENDROOT
BRANCH   1   2
HETATM    2  N4  UNL     1      21.872  15.063  30.873  1.00  0.00    -0.361 N
HETATM    3  C4  UNL     1      21.122  15.733  31.576  1.00  0.00     0.155 A
HETATM    4  N3  UNL     1      20.224  16.554  30.950  1.00  0.00    -0.174 N
HETATM    5  C17 UNL     1      21.104  15.730  32.941  1.00  0.00     0.162 A
HETATM    6  C3  UNL     1      19.369  17.319  31.647  1.00  0.00     0.679 A
ATOM      7  H3  UNL     1      20.204  16.586  29.931  1.00  0.00     0.186 HD
HETATM    8  N1  UNL     1      19.348  17.319  32.993  1.00  0.00    -0.168 N
HETATM    9  C2  UNL     1      20.203  16.534  33.658  1.00  0.00     0.194 A
ATOM     10  H1  UNL     1      18.689  17.911  33.499  1.00  0.00     0.186 HD
ATOM     11  H4  UNL     1      21.685  15.246  29.887  1.00  0.00     0.162 HD
BRANCH   6  12
HETATM   12  N2  UNL     1      18.544  18.077  30.965  1.00  0.00    -0.234 N
ATOM     13  H22 UNL     1      17.548  17.863  31.030  1.00  0.00     0.174 HD
ATOM     14  H21 UNL     1      18.895  18.846  30.394  1.00  0.00     0.174 HD
ENDBRANCH   6  12
BRANCH   9  15
HETATM   15  O1  UNL     1      20.238  16.484  35.024  1.00  0.00    -0.338 OA
HETATM   16  C1  UNL     1      19.335  15.790  35.831  1.00  0.00     0.211 C
ENDBRANCH   9  15
BRANCH   5  17
HETATM   17  O5  UNL     1      21.976  14.929  33.645  1.00  0.00    -0.354 OA
ATOM     18  H5  UNL     1      21.749  14.016  33.774  1.00  0.00     0.218 HD
ENDBRANCH   5  17
ENDBRANCH   1   2
BRANCH   1  19
HETATM   19  C6  UNL     1      22.539  12.717  30.615  1.00  0.00     0.091 C
BRANCH  19  20
HETATM   20  C7  UNL     1      22.371  11.831  31.776  1.00  0.00     0.028 A
HETATM   21  C8  UNL     1      22.243  10.461  31.696  1.00  0.00     0.114 A
HETATM   22  N5  UNL     1      22.106   9.964  32.953  1.00  0.00    -0.360 N
HETATM   23  C9  UNL     1      22.148  10.998  33.805  1.00  0.00     0.180 A
ATOM     24  H5  UNL     1      21.992   8.981  33.203  1.00  0.00     0.166 HD
HETATM   25  N6  UNL     1      22.307  12.117  33.084  1.00  0.00    -0.354 N
ATOM     26  H6  UNL     1      22.372  13.056  33.476  1.00  0.00     0.166 HD
ENDBRANCH  19  20
ENDBRANCH   1  19
BRANCH   1  27
HETATM   27  C10 UNL     1      24.100  14.600  30.210  1.00  0.00     0.172 C
HETATM   28  O2  UNL     1      25.051  15.166  30.763  1.00  0.00    -0.291 OA
BRANCH  27  29
HETATM   29  C11 UNL     1      24.095  14.363  28.794  1.00  0.00     0.064 C
HETATM   30  C12 UNL     1      23.930  15.264  27.848  1.00  0.00     0.118 C
BRANCH  30  31
HETATM   31  S1  UNL     1      23.681  16.961  28.085  1.00  0.00     0.199 S
HETATM   32  O3  UNL     1      22.980  17.301  29.368  1.00  0.00    -0.218 OA
HETATM   33  O4  UNL     1      22.902  17.565  26.944  1.00  0.00    -0.218 OA
BRANCH  31  34
HETATM   34  C13 UNL     1      25.266  17.740  28.195  1.00  0.00     0.095 A
HETATM   35  C14 UNL     1      26.412  17.090  27.821  1.00  0.00     0.131 A
HETATM   36  N7  UNL     1      27.576  17.758  27.941  1.00  0.00    -0.201 N
HETATM   37  C15 UNL     1      27.615  19.007  28.407  1.00  0.00     0.675 A
ATOM     38  H7  UNL     1      28.446  17.298  27.670  1.00  0.00     0.183 HD
HETATM   39  N9  UNL     1      26.502  19.651  28.776  1.00  0.00    -0.201 N
HETATM   40  C16 UNL     1      25.322  19.017  28.670  1.00  0.00     0.131 A
ATOM     41  H9  UNL     1      26.549  20.607  29.130  1.00  0.00     0.183 HD
BRANCH  37  42
HETATM   42  N8  UNL     1      28.750  19.635  28.515  1.00  0.00    -0.234 N
ATOM     43  H82 UNL     1      29.273  19.533  29.384  1.00  0.00     0.174 HD
ATOM     44  H81 UNL     1      29.097  20.210  27.747  1.00  0.00     0.174 HD
ENDBRANCH  37  42
ENDBRANCH  31  34
ENDBRANCH  30  31
ENDBRANCH  27  29
ENDBRANCH   1  27
TORSDOF 11
ENDMDL