MODEL 1
REMARK VINA RESULT: -6.456247191      0.000      0.000
REMARK  13 active torsions:
REMARK  status: ('A' for Active; 'I' for Inactive)
REMARK    1  A    between atoms: N1_1  and  C1_4
REMARK    2  A    between atoms: N3_8  and  N4_10
REMARK    3  A    between atoms: N4_10  and  C3_12
REMARK    4  A    between atoms: C3_12  and  N5_14
REMARK    5  A    between atoms: N5_14  and  C4_16
REMARK    6  A    between atoms: C4_16  and  C5_17
REMARK    7  A    between atoms: C5_17  and  O1_18
REMARK    8  A    between atoms: O1_18  and  S2_19
REMARK    9  A    between atoms: S2_19  and  N6_20
REMARK   10  A    between atoms: C7_26  and  N7_27
REMARK   11  A    between atoms: N7_27  and  N8_29
REMARK   12  A    between atoms: C8_31  and  C9_32
REMARK   13  A    between atoms: C9_32  and  C10_33
ROOT
HETATM    1  C1  UNL     1      19.475  17.595  30.777  1.00  0.00     0.679 A
HETATM    2  N2  UNL     1      20.431  16.761  31.224  1.00  0.00    -0.174 N
ATOM      3  H2  UNL     1      20.316  16.331  32.142  1.00  0.00     0.186 HD
HETATM    4  C2  UNL     1      21.529  16.472  30.508  1.00  0.00     0.153 A
HETATM    5  N3  UNL     1      22.456  15.657  30.946  1.00  0.00    -0.282 N
ATOM      6  H3  UNL     1      23.284  15.448  30.387  1.00  0.00     0.188 HD
HETATM    7  C6  UNL     1      21.633  17.078  29.276  1.00  0.00     0.100 A
HETATM    8  C7  UNL     1      22.750  16.816  28.485  1.00  0.00     0.138 A
HETATM    9  N9  UNL     1      22.816  17.422  27.297  1.00  0.00    -0.337 N
ATOM     10  H9  UNL     1      23.624  17.248  26.698  1.00  0.00     0.168 HD
HETATM   11  C12 UNL     1      21.852  18.255  26.863  1.00  0.00     0.183 A
HETATM   12  N10 UNL     1      20.782  18.503  27.626  1.00  0.00    -0.337 N
ATOM     13  H10 UNL     1      20.057  19.136  27.288  1.00  0.00     0.168 HD
HETATM   14  C13 UNL     1      20.652  17.930  28.825  1.00  0.00     0.139 A
HETATM   15  N11 UNL     1      19.563  18.193  29.580  1.00  0.00    -0.176 N
ATOM     16  H11 UNL     1      18.833  18.825  29.251  1.00  0.00     0.186 HD
ENDROOT
BRANCH   5  17
HETATM   17  N4  UNL     1      22.268  15.086  32.202  1.00  0.00    -0.275 N
ATOM     18  H4  UNL     1      22.265  15.660  33.045  1.00  0.00     0.189 HD
BRANCH  17  19
HETATM   19  C3  UNL     1      22.077  13.655  32.274  1.00  0.00     0.186 C
HETATM   20  S1  UNL     1      22.541  12.738  30.992  1.00  0.00    -0.040 SA
BRANCH  19  21
HETATM   21  N5  UNL     1      21.552  13.110  33.449  1.00  0.00    -0.364 N
ATOM     22  H5  UNL     1      20.745  12.490  33.373  1.00  0.00     0.162 HD
BRANCH  21  23
HETATM   23  C4  UNL     1      22.077  13.370  34.747  1.00  0.00     0.149 C
BRANCH  23  24
HETATM   24  C5  UNL     1      21.357  14.359  35.590  1.00  0.00     0.211 C
BRANCH  24  25
HETATM   25  O1  UNL     1      21.464  15.680  35.247  1.00  0.00    -0.258 OA
BRANCH  25  26
HETATM   26  S2  UNL     1      20.030  16.321  34.701  1.00  0.00     0.355 S
HETATM   27  O2  UNL     1      20.200  17.708  34.153  1.00  0.00    -0.176 OA
HETATM   28  O3  UNL     1      19.459  15.464  33.586  1.00  0.00    -0.176 OA
BRANCH  26  29
HETATM   29  N6  UNL     1      18.920  16.413  36.006  1.00  0.00    -0.306 N
ATOM     30  H62 UNL     1      17.915  16.263  35.923  1.00  0.00     0.171 HD
ATOM     31  H61 UNL     1      19.427  16.639  36.862  1.00  0.00     0.171 HD
ENDBRANCH  26  29
ENDBRANCH  25  26
ENDBRANCH  24  25
ENDBRANCH  23  24
ENDBRANCH  21  23
ENDBRANCH  19  21
ENDBRANCH  17  19
ENDBRANCH   5  17
BRANCH   1  32
HETATM   32  N1  UNL     1      18.440  17.830  31.524  1.00  0.00    -0.234 N
ATOM     33  H12 UNL     1      17.518  17.537  31.200  1.00  0.00     0.174 HD
ATOM     34  H11 UNL     1      18.570  18.304  32.418  1.00  0.00     0.174 HD
ENDBRANCH   1  32
BRANCH   8  35
HETATM   35  N7  UNL     1      23.627  16.030  28.939  1.00  0.00    -0.285 N
ATOM     36  H7  UNL     1      23.261  15.194  29.393  1.00  0.00     0.188 HD
BRANCH  35  37
HETATM   37  N8  UNL     1      24.990  16.124  28.917  1.00  0.00    -0.314 N
HETATM   38  C8  UNL     1      25.814  15.642  28.083  1.00  0.00     0.085 C
ATOM     39  H8  UNL     1      25.404  16.658  29.681  1.00  0.00     0.185 HD
BRANCH  38  40
HETATM   40  C9  UNL     1      27.264  15.914  28.320  1.00  0.00     0.092 C
BRANCH  40  41
HETATM   41  C10 UNL     1      27.633  17.327  28.040  1.00  0.00    -0.006 A
HETATM   42  C11 UNL     1      27.258  18.563  27.815  1.00  0.00     0.065 A
HETATM   43  S3  UNL     1      29.042  18.438  27.787  1.00  0.00    -0.105 SA
ENDBRANCH  40  41
ENDBRANCH  38  40
ENDBRANCH  35  37
ENDBRANCH   8  35
TORSDOF 13
ENDMDL