MODEL 2
REMARK VINA RESULT: -7.611606613      2.346      4.642
REMARK  12 active torsions:
REMARK  status: ('A' for Active; 'I' for Inactive)
REMARK    1  A    between atoms: C2_2  and  O1_3
REMARK    2  A    between atoms: C2_2  and  C3_5
REMARK    3  A    between atoms: C3_5  and  N1_6
REMARK    4  A    between atoms: N1_6  and  C4_8
REMARK    5  A    between atoms: N5_19  and  C8_20
REMARK    6  A    between atoms: C8_20  and  C9_21
REMARK    7  A    between atoms: N7_25  and  C12_26
REMARK    8  A    between atoms: C12_26  and  C13_27
REMARK    9  A    between atoms: C13_27  and  C14_28
REMARK   10  A    between atoms: C14_28  and  S1_29
REMARK   11  A    between atoms: S1_29  and  C15_32
REMARK   12  A    between atoms: C15_32  and  O4_35
ROOT
HETATM    1  C4  UNL     1      23.208  17.958  28.197  1.00  0.00     0.681 A
HETATM    2  N2  UNL     1      22.193  18.819  28.251  1.00  0.00    -0.175 N
ATOM      3  H2  UNL     1      22.316  19.744  27.838  1.00  0.00     0.186 HD
HETATM    4  C5  UNL     1      21.007  18.522  28.828  1.00  0.00     0.145 A
HETATM    5  N3  UNL     1      20.086  19.403  28.838  1.00  0.00    -0.383 N
ATOM      6  H31 UNL     1      19.192  19.179  29.273  1.00  0.00     0.157 HD
ATOM      7  H32 UNL     1      20.210  20.327  28.425  1.00  0.00     0.157 HD
HETATM    8  C6  UNL     1      20.839  17.272  29.386  1.00  0.00     0.123 A
HETATM    9  N4  UNL     1      19.825  16.654  30.023  1.00  0.00    -0.346 N
ATOM     10  H4  UNL     1      18.907  17.053  30.222  1.00  0.00     0.167 HD
HETATM   11  C7  UNL     1      20.245  15.404  30.354  1.00  0.00     0.185 A
HETATM   12  N5  UNL     1      21.502  15.209  29.943  1.00  0.00    -0.323 N
HETATM   13  C19 UNL     1      21.877  16.357  29.345  1.00  0.00     0.155 A
HETATM   14  N8  UNL     1      23.016  16.736  28.753  1.00  0.00    -0.174 N
ATOM     15  H8  UNL     1      23.785  16.066  28.717  1.00  0.00     0.186 HD
ENDROOT
BRANCH  12  16
HETATM   16  C8  UNL     1      22.342  14.032  30.081  1.00  0.00     0.171 C
BRANCH  16  17
HETATM   17  C9  UNL     1      22.393  13.546  31.486  1.00  0.00    -0.021 A
HETATM   18  C10 UNL     1      21.870  12.377  31.988  1.00  0.00     0.055 A
HETATM   19  C11 UNL     1      22.169  12.369  33.338  1.00  0.00     0.118 A
HETATM   20  N6  UNL     1      21.835  11.362  34.294  1.00  0.00    -0.083 NA
HETATM   21  N7  UNL     1      22.850  13.482  33.664  1.00  0.00    -0.345 N
HETATM   22  C18 UNL     1      22.989  14.202  32.542  1.00  0.00     0.101 A
BRANCH  21  23
HETATM   23  C12 UNL     1      23.337  13.831  34.983  1.00  0.00     0.130 C
BRANCH  23  24
HETATM   24  C13 UNL     1      23.357  15.348  35.102  1.00  0.00     0.035 C
BRANCH  24  25
HETATM   25  C14 UNL     1      22.228  15.817  36.004  1.00  0.00     0.145 C
BRANCH  25  26
HETATM   26  S1  UNL     1      20.985  16.525  34.915  1.00  0.00     0.176 S
HETATM   27  O2  UNL     1      21.428  16.516  33.497  1.00  0.00    -0.225 OA
HETATM   28  O3  UNL     1      20.729  17.929  35.367  1.00  0.00    -0.225 OA
BRANCH  26  29
HETATM   29  C15 UNL     1      19.509  15.532  35.156  1.00  0.00     0.153 C
HETATM   30  C16 UNL     1      19.845  14.562  36.293  1.00  0.00     0.063 C
HETATM   31  C17 UNL     1      19.290  14.762  33.880  1.00  0.00     0.063 C
BRANCH  29  32
HETATM   32  O4  UNL     1      18.456  16.361  35.472  1.00  0.00    -0.375 OA
ATOM     33  H4  UNL     1      18.037  16.043  36.263  1.00  0.00     0.211 HD
ENDBRANCH  29  32
ENDBRANCH  26  29
ENDBRANCH  25  26
ENDBRANCH  24  25
ENDBRANCH  23  24
ENDBRANCH  21  23
ENDBRANCH  16  17
ENDBRANCH  12  16
BRANCH   1  34
HETATM   34  N1  UNL     1      24.359  18.154  27.673  1.00  0.00    -0.224 N
ATOM     35  H1  UNL     1      24.444  18.797  26.886  1.00  0.00     0.177 HD
BRANCH  34  36
HETATM   36  C3  UNL     1      25.539  17.489  28.166  1.00  0.00     0.169 C
BRANCH  36  37
HETATM   37  C2  UNL     1      26.723  17.999  27.358  1.00  0.00     0.132 C
HETATM   38  C1  UNL     1      27.556  18.838  28.307  1.00  0.00     0.041 C
BRANCH  37  39
HETATM   39  O1  UNL     1      27.430  16.921  26.866  1.00  0.00    -0.394 OA
ATOM     40  H1  UNL     1      27.794  17.097  26.006  1.00  0.00     0.210 HD
ENDBRANCH  37  39
ENDBRANCH  36  37
ENDBRANCH  34  36
ENDBRANCH   1  34
TORSDOF 12
ENDMDL