MODEL 4
REMARK VINA RESULT: -6.365775818      3.361      8.233
REMARK  11 active torsions:
REMARK  status: ('A' for Active; 'I' for Inactive)
REMARK    1  A    between atoms: N1_2  and  N2_5
REMARK    2  A    between atoms: N2_5  and  N4_10
REMARK    3  A    between atoms: N3_6  and  O2_8
REMARK    4  A    between atoms: C3_11  and  C4_12
REMARK    5  A    between atoms: C5_16  and  N6_17
REMARK       I    between atoms: N6_17  and  C6_19
REMARK    6  A    between atoms: C6_19  and  C7_21
REMARK    7  A    between atoms: C7_21  and  N7_22
REMARK    8  A    between atoms: C7_21  and  C8_26
REMARK    9  A    between atoms: C8_26  and  C9_27
REMARK   10  A    between atoms: C9_27  and  C10_28
REMARK   11  A    between atoms: C10_28  and  N8_29
REMARK       I    between atoms: N8_29  and  C11_31
ROOT
HETATM    1  N4  UNL     1      25.372  17.457  28.240  1.00  0.00    -0.114 N
HETATM    2  C3  UNL     1      24.685  16.314  28.734  1.00  0.00     0.128 C
HETATM    3  N5  UNL     1      23.470  16.234  29.207  1.00  0.00    -0.352 N
ATOM      4  H5  UNL     1      23.206  15.293  29.499  1.00  0.00     0.163 HD
HETATM    5  C5  UNL     1      22.443  17.196  29.394  1.00  0.00     0.209 C
HETATM    6  C12 UNL     1      22.115  17.896  28.123  1.00  0.00     0.033 C
HETATM    7  C13 UNL     1      22.904  18.577  27.317  1.00  0.00     0.133 C
HETATM    8  S2  UNL     1      24.613  18.866  27.505  1.00  0.00     0.276 S
HETATM    9  O4  UNL     1      25.263  19.187  26.184  1.00  0.00    -0.199 OA
HETATM   10  O5  UNL     1      24.761  19.987  28.491  1.00  0.00    -0.199 OA
ENDROOT
BRANCH   5  11
HETATM   11  N6  UNL     1      21.258  16.554  29.927  1.00  0.00    -0.335 N
HETATM   12  C6  UNL     1      21.257  15.937  31.208  1.00  0.00     0.250 C
HETATM   13  O3  UNL     1      22.315  15.947  31.904  1.00  0.00    -0.271 OA
ATOM     14  H6  UNL     1      20.404  16.543  29.369  1.00  0.00     0.164 HD
BRANCH  12  15
HETATM   15  C7  UNL     1      20.068  15.275  31.779  1.00  0.00     0.274 C
BRANCH  15  16
HETATM   16  N7  UNL     1      18.916  15.421  30.910  1.00  0.00    -0.067 N
ATOM     17  H73 UNL     1      18.301  16.170  31.227  1.00  0.00     0.275 HD
ATOM     18  H72 UNL     1      19.178  15.808  30.002  1.00  0.00     0.275 HD
ATOM     19  H71 UNL     1      18.414  14.540  30.810  1.00  0.00     0.275 HD
ENDBRANCH  15  16
BRANCH  15  20
HETATM   20  C8  UNL     1      19.703  15.781  33.136  1.00  0.00     0.044 C
BRANCH  20  21
HETATM   21  C9  UNL     1      19.262  14.723  34.096  1.00  0.00     0.022 C
BRANCH  21  22
HETATM   22  C10 UNL     1      19.272  15.371  35.487  1.00  0.00     0.122 C
BRANCH  22  23
HETATM   23  N8  UNL     1      19.469  14.412  36.533  1.00  0.00    -0.365 N
HETATM   24  C11 UNL     1      20.750  13.817  36.740  1.00  0.00     0.181 C
HETATM   25  N9  UNL     1      21.748  14.493  37.189  1.00  0.00    -0.374 N
HETATM   26  N10 UNL     1      20.910  12.450  36.439  1.00  0.00    -0.064 NA
ATOM     27  H92 UNL     1      21.631  15.483  37.406  1.00  0.00     0.158 HD
ATOM     28  H91 UNL     1      22.663  14.068  37.336  1.00  0.00     0.158 HD
ATOM     29  H8  UNL     1      18.687  14.153  37.136  1.00  0.00     0.162 HD
ENDBRANCH  22  23
ENDBRANCH  21  22
ENDBRANCH  20  21
ENDBRANCH  15  20
ENDBRANCH  12  15
ENDBRANCH   5  11
BRANCH   2  30
HETATM   30  C4  UNL     1      25.425  15.033  28.739  1.00  0.00     0.165 C
HETATM   31  S1  UNL     1      25.394  14.153  30.298  1.00  0.00    -0.090 SA
ENDBRANCH   2  30
BRANCH   1  32
HETATM   32  N2  UNL     1      26.762  17.525  28.292  1.00  0.00     0.045 N
HETATM   33  N3  UNL     1      27.378  17.351  27.210  1.00  0.00    -0.160 N
ATOM     34  H3  UNL     1      26.791  17.153  26.400  1.00  0.00     0.220 HD
BRANCH  32  35
HETATM   35  N1  UNL     1      27.485  17.799  29.452  1.00  0.00     0.136 N
HETATM   36  C1  UNL     1      26.670  18.113  30.605  1.00  0.00     0.393 C
HETATM   37  C2  UNL     1      28.299  16.642  29.864  1.00  0.00     0.393 C
HETATM   38  O1  UNL     1      28.357  18.833  29.251  1.00  0.00    -0.040 OA
ENDBRANCH  32  35
BRANCH  33  39
HETATM   39  O2  UNL     1      28.698  17.388  26.968  1.00  0.00    -0.271 OA
ATOM     40  H2  UNL     1      29.187  17.022  26.241  1.00  0.00     0.246 HD
ENDBRANCH  33  39
ENDBRANCH   1  32
TORSDOF 11
ENDMDL