MODEL 4
REMARK VINA RESULT: -6.180935642      1.623      1.964
REMARK  17 active torsions:
REMARK  status: ('A' for Active; 'I' for Inactive)
REMARK    1  A    between atoms: N1_2  and  C2_3
REMARK       I    between atoms: N1_2  and  C4_9
REMARK    2  A    between atoms: C2_3  and  C3_4
REMARK    3  A    between atoms: C3_4  and  N2_5
REMARK       I    between atoms: C4_9  and  N3_11
REMARK    4  A    between atoms: N3_11  and  C5_13
REMARK    5  A    between atoms: C8_21  and  N6_22
REMARK    6  A    between atoms: N8_28  and  C10_29
REMARK    7  A    between atoms: C10_29  and  O3_30
REMARK    8  A    between atoms: C10_29  and  C13_39
REMARK    9  A    between atoms: O3_30  and  C11_31
REMARK   10  A    between atoms: C11_31  and  N10_35
REMARK   11  A    between atoms: C13_39  and  N12_40
REMARK   12  A    between atoms: C13_39  and  C14_44
REMARK   13  A    between atoms: C14_44  and  C15_45
REMARK   14  A    between atoms: C15_45  and  C16_46
REMARK   15  A    between atoms: C16_46  and  N13_47
REMARK   16  A    between atoms: N13_47  and  N14_49
REMARK   17  A    between atoms: N14_49  and  N15_50
ROOT
HETATM    1  N10 UNL     1      22.086  11.816  32.574  1.00  0.00    -0.259 N
ATOM      2  H10 UNL     1      22.219  10.842  32.300  1.00  0.00     0.181 HD
HETATM    3  C12 UNL     1      21.715  12.144  33.903  1.00  0.00     0.185 C
HETATM    4  N11 UNL     1      21.414  12.419  34.984  1.00  0.00    -0.172 NA
ENDROOT
BRANCH   1   5
HETATM    5  C11 UNL     1      22.268  12.859  31.635  1.00  0.00     0.228 C
HETATM    6  N9  UNL     1      22.598  12.584  30.387  1.00  0.00    -0.365 N
ATOM      7  H92 UNL     1      22.729  13.336  29.710  1.00  0.00     0.159 HD
ATOM      8  H91 UNL     1      22.693  11.582  30.225  1.00  0.00     0.159 HD
BRANCH   5   9
HETATM    9  O3  UNL     1      22.142  14.198  31.851  1.00  0.00    -0.292 OA
BRANCH   9  10
HETATM   10  C10 UNL     1      23.122  15.191  31.838  1.00  0.00     0.287 C
BRANCH  10  11
HETATM   11  N8  UNL     1      22.838  15.947  30.589  1.00  0.00    -0.135 N
HETATM   12  C5  UNL     1      23.723  16.012  29.587  1.00  0.00     0.693 A
HETATM   13  N4  UNL     1      23.174  16.761  28.608  1.00  0.00    -0.182 N
HETATM   14  C6  UNL     1      21.958  17.159  29.001  1.00  0.00     0.163 A
ATOM     15  H4  UNL     1      23.613  16.988  27.716  1.00  0.00     0.184 HD
HETATM   16  C7  UNL     1      20.964  17.923  28.437  1.00  0.00     0.290 A
HETATM   17  C9  UNL     1      21.753  16.638  30.263  1.00  0.00     0.174 A
HETATM   18  O2  UNL     1      21.115  18.414  27.291  1.00  0.00    -0.265 OA
HETATM   19  N5  UNL     1      19.816  18.160  29.088  1.00  0.00    -0.154 N
HETATM   20  C8  UNL     1      19.657  17.628  30.327  1.00  0.00     0.680 A
ATOM     21  H5  UNL     1      19.082  18.727  28.663  1.00  0.00     0.187 HD
HETATM   22  N7  UNL     1      20.609  16.872  30.917  1.00  0.00    -0.173 N
ATOM     23  H7  UNL     1      20.457  16.486  31.849  1.00  0.00     0.186 HD
BRANCH  12  24
HETATM   24  N3  UNL     1      24.891  15.488  29.500  1.00  0.00    -0.141 N
HETATM   25  C4  UNL     1      26.085  16.231  29.727  1.00  0.00     0.336 C
HETATM   26  N1  UNL     1      26.964  15.749  30.733  1.00  0.00    -0.336 N
HETATM   27  O1  UNL     1      26.363  17.267  29.078  1.00  0.00    -0.246 OA
HETATM   28  C1  UNL     1      26.673  14.542  31.492  1.00  0.00     0.154 C
ATOM     29  H3  UNL     1      24.968  14.500  29.258  1.00  0.00     0.189 HD
BRANCH  26  30
HETATM   30  C2  UNL     1      28.172  16.497  31.004  1.00  0.00     0.154 C
BRANCH  30  31
HETATM   31  C3  UNL     1      28.070  17.405  32.188  1.00  0.00     0.249 C
BRANCH  31  32
HETATM   32  N2  UNL     1      27.350  18.589  31.848  1.00  0.00    -0.078 N
ATOM     33  H23 UNL     1      27.959  19.405  31.807  1.00  0.00     0.274 HD
ATOM     34  H22 UNL     1      27.043  18.579  30.875  1.00  0.00     0.274 HD
ATOM     35  H21 UNL     1      26.570  18.728  32.491  1.00  0.00     0.274 HD
ENDBRANCH  31  32
ENDBRANCH  30  31
ENDBRANCH  26  30
ENDBRANCH  12  24
BRANCH  20  36
HETATM   36  N6  UNL     1      18.536  17.879  30.925  1.00  0.00    -0.234 N
ATOM     37  H62 UNL     1      18.203  17.291  31.689  1.00  0.00     0.174 HD
ATOM     38  H61 UNL     1      18.013  18.689  30.591  1.00  0.00     0.174 HD
ENDBRANCH  20  36
ENDBRANCH  10  11
BRANCH  10  39
HETATM   39  C13 UNL     1      23.016  16.236  32.899  1.00  0.00     0.233 C
BRANCH  39  40
HETATM   40  N12 UNL     1      24.390  16.570  33.391  1.00  0.00    -0.071 N
ATOM     41 3H12 UNL     1      25.034  15.783  33.307  1.00  0.00     0.274 HD
ATOM     42 2H12 UNL     1      24.877  17.219  32.773  1.00  0.00     0.274 HD
ATOM     43 1H12 UNL     1      24.323  16.919  34.347  1.00  0.00     0.274 HD
ENDBRANCH  39  40
BRANCH  39  44
HETATM   44  C14 UNL     1      22.261  15.938  34.130  1.00  0.00     0.039 C
BRANCH  44  45
HETATM   45  C15 UNL     1      21.468  17.022  34.752  1.00  0.00     0.024 C
BRANCH  45  46
HETATM   46  C16 UNL     1      19.996  16.763  34.389  1.00  0.00     0.155 C
BRANCH  46  47
HETATM   47  N13 UNL     1      19.187  16.601  35.579  1.00  0.00    -0.253 N
ATOM     48  H13 UNL     1      18.701  17.389  36.007  1.00  0.00     0.196 HD
BRANCH  47  49
HETATM   49  N14 UNL     1      19.115  15.461  36.051  1.00  0.00    -0.249 NA
BRANCH  49  50
HETATM   50  N15 UNL     1      19.355  14.370  36.539  1.00  0.00    -0.261 N
ATOM     51 2H15 UNL     1      20.034  14.753  37.196  1.00  0.00     0.193 HD
ATOM     52 1H15 UNL     1      19.378  13.377  36.771  1.00  0.00     0.193 HD
ENDBRANCH  49  50
ENDBRANCH  47  49
ENDBRANCH  46  47
ENDBRANCH  45  46
ENDBRANCH  44  45
ENDBRANCH  39  44
ENDBRANCH  10  39
ENDBRANCH   9  10
ENDBRANCH   5   9
ENDBRANCH   1   5
TORSDOF 17
ENDMDL