MODEL 4
REMARK VINA RESULT: -6.639588239      2.706      6.999
REMARK  13 active torsions:
REMARK  status: ('A' for Active; 'I' for Inactive)
REMARK    1  A    between atoms: C2_2  and  C3_3
REMARK    2  A    between atoms: C3_3  and  N1_4
REMARK    3  A    between atoms: C5_9  and  N3_10
REMARK    4  A    between atoms: C8_13  and  N4_14
REMARK    5  A    between atoms: N4_14  and  C9_16
REMARK    6  A    between atoms: C9_16  and  C10_17
REMARK    7  A    between atoms: C10_17  and  N5_18
REMARK    8  A    between atoms: C13_23  and  N7_24
REMARK    9  A    between atoms: N7_24  and  C14_26
REMARK   10  A    between atoms: C18_30  and  C19_31
REMARK   11  A    between atoms: C19_31  and  O1_32
REMARK   12  A    between atoms: C21_40  and  N11_41
REMARK   13  A    between atoms: N11_41  and  N12_43
ROOT
HETATM    1  N3  UNL     1      25.891  17.930  33.708  1.00  0.00    -0.072 N
HETATM    2  C6  UNL     1      26.570  18.500  34.719  1.00  0.00     0.174 A
HETATM    3  C7  UNL     1      25.501  18.349  35.580  1.00  0.00     0.139 A
HETATM    4  C8  UNL     1      24.838  18.457  36.774  1.00  0.00     0.152 A
HETATM    5  N6  UNL     1      23.565  17.979  36.821  1.00  0.00    -0.173 N
ATOM      6  H6  UNL     1      23.064  18.054  37.705  1.00  0.00     0.186 HD
HETATM    7  C13 UNL     1      22.927  17.420  35.790  1.00  0.00     0.700 A
HETATM    8  N8  UNL     1      23.606  17.331  34.640  1.00  0.00    -0.109 N
ATOM      9  H8  UNL     1      23.156  16.910  33.827  1.00  0.00     0.208 HD
HETATM   10  N9  UNL     1      24.868  17.785  34.532  1.00  0.00    -0.156 N
ENDROOT
BRANCH   1  11
HETATM   11  C5  UNL     1      26.173  17.618  32.329  1.00  0.00     0.734 A
HETATM   12  N2  UNL     1      25.602  16.551  31.754  1.00  0.00    -0.019 N
HETATM   13  C4  UNL     1      25.868  16.264  30.445  1.00  0.00     0.707 A
ATOM     14  H2  UNL     1      24.972  15.955  32.291  1.00  0.00     0.203 HD
HETATM   15  N1  UNL     1      25.333  15.251  29.886  1.00  0.00    -0.222 N
HETATM   16  N13 UNL     1      26.699  17.048  29.741  1.00  0.00    -0.020 N
ATOM     17  H1  UNL     1      24.712  14.690  30.470  1.00  0.00     0.178 HD
HETATM   18  C21 UNL     1      27.283  18.133  30.318  1.00  0.00     0.725 A
ATOM     19  H13 UNL     1      26.895  16.829  28.765  1.00  0.00     0.203 HD
HETATM   20  N10 UNL     1      27.006  18.395  31.604  1.00  0.00    -0.018 N
ATOM     21  H10 UNL     1      27.438  19.206  32.048  1.00  0.00     0.203 HD
BRANCH  15  22
HETATM   22  C3  UNL     1      25.500  14.810  28.539  1.00  0.00     0.164 C
BRANCH  22  23
HETATM   23  C2  UNL     1      24.302  15.038  27.686  1.00  0.00    -0.017 C
HETATM   24  C1  UNL     1      23.621  16.177  27.701  1.00  0.00     0.008 C
ENDBRANCH  22  23
ENDBRANCH  15  22
BRANCH  18  25
HETATM   25  N11 UNL     1      28.088  18.884  29.621  1.00  0.00    -0.138 N
ATOM     26  H11 UNL     1      29.071  18.924  29.893  1.00  0.00     0.205 HD
BRANCH  25  27
HETATM   27  N12 UNL     1      27.679  19.626  28.536  1.00  0.00    -0.331 N
ATOM     28 2H12 UNL     1      28.256  19.584  27.696  1.00  0.00     0.177 HD
ATOM     29 1H12 UNL     1      26.839  20.204  28.539  1.00  0.00     0.177 HD
ENDBRANCH  25  27
ENDBRANCH  18  25
ENDBRANCH   1  11
BRANCH   4  30
HETATM   30  N4  UNL     1      25.390  18.976  37.783  1.00  0.00    -0.352 N
ATOM     31  H4  UNL     1      24.906  19.762  38.218  1.00  0.00     0.166 HD
BRANCH  30  32
HETATM   32  C9  UNL     1      26.601  18.579  38.367  1.00  0.00     0.092 C
BRANCH  32  33
HETATM   33  C10 UNL     1      27.576  19.740  38.397  1.00  0.00     0.315 C
BRANCH  33  34
HETATM   34  N5  UNL     1      28.816  19.445  37.758  1.00  0.00     0.084 N
HETATM   35  C11 UNL     1      29.023  18.061  37.462  1.00  0.00     0.309 C
HETATM   36  C12 UNL     1      29.981  20.032  38.334  1.00  0.00     0.309 C
ENDBRANCH  33  34
ENDBRANCH  32  33
ENDBRANCH  30  32
ENDBRANCH   4  30
BRANCH   7  37
HETATM   37  N7  UNL     1      21.727  16.981  35.866  1.00  0.00    -0.190 N
ATOM     38  H7  UNL     1      21.249  17.045  36.765  1.00  0.00     0.184 HD
BRANCH  37  39
HETATM   39  C14 UNL     1      21.020  16.411  34.776  1.00  0.00     0.049 A
HETATM   40  C15 UNL     1      20.851  15.044  34.658  1.00  0.00     0.030 A
HETATM   41  C16 UNL     1      20.158  14.481  33.597  1.00  0.00     0.003 A
HETATM   42  C17 UNL     1      19.617  15.262  32.627  1.00  0.00     0.009 A
HETATM   43  C18 UNL     1      19.771  16.643  32.719  1.00  0.00    -0.033 A
HETATM   44  C20 UNL     1      20.467  17.194  33.785  1.00  0.00     0.039 A
BRANCH  43  45
HETATM   45  C19 UNL     1      19.166  17.473  31.637  1.00  0.00     0.203 C
BRANCH  45  46
HETATM   46  O1  UNL     1      18.443  18.478  32.261  1.00  0.00    -0.396 OA
ATOM     47  H1  UNL     1      17.535  18.202  32.262  1.00  0.00     0.209 HD
ENDBRANCH  45  46
ENDBRANCH  43  45
ENDBRANCH  37  39
ENDBRANCH   7  37
TORSDOF 13
ENDMDL