MODEL 4
REMARK VINA RESULT: -7.166417765      1.826      2.029
REMARK  16 active torsions:
REMARK  status: ('A' for Active; 'I' for Inactive)
REMARK    1  A    between atoms: C2_2  and  C3_3
REMARK    2  A    between atoms: C4_4  and  C5_5
REMARK    3  A    between atoms: C7_10  and  N3_11
REMARK    4  A    between atoms: N3_11  and  C8_13
REMARK    5  A    between atoms: C8_13  and  C9_14
REMARK    6  A    between atoms: C12_17  and  O1_18
REMARK    7  A    between atoms: C15_24  and  N5_25
REMARK    8  A    between atoms: N5_25  and  C16_27
REMARK    9  A    between atoms: C16_27  and  C17_28
REMARK   10  A    between atoms: C17_28  and  N6_29
REMARK   11  A    between atoms: N6_29  and  C18_31
REMARK   12  A    between atoms: C19_34  and  N8_35
REMARK   13  A    between atoms: N8_35  and  C20_37
REMARK   14  A    between atoms: C20_37  and  C21_38
REMARK   15  A    between atoms: C21_38  and  N9_39
REMARK   16  A    between atoms: N11_45  and  O2_46
ROOT
HETATM    1  C5  UNL     1      19.939  16.455  31.404  1.00  0.00     0.103 A
HETATM    2  C6  UNL     1      19.324  17.653  31.110  1.00  0.00     0.154 A
HETATM    3  N1  UNL     1      18.408  18.164  32.069  1.00  0.00    -0.080 NA
HETATM    4  N2  UNL     1      19.576  18.334  29.947  1.00  0.00    -0.177 N
ATOM      5  H2  UNL     1      19.109  19.220  29.750  1.00  0.00     0.185 HD
HETATM    6  C7  UNL     1      20.447  17.811  29.075  1.00  0.00     0.681 A
HETATM    7  N4  UNL     1      21.070  16.619  29.350  1.00  0.00    -0.175 N
ATOM      8  H4  UNL     1      21.731  16.235  28.674  1.00  0.00     0.186 HD
HETATM    9  C15 UNL     1      20.829  15.947  30.483  1.00  0.00     0.139 A
ENDROOT
BRANCH   9  10
HETATM   10  N5  UNL     1      21.393  14.826  30.775  1.00  0.00    -0.373 N
ATOM     11  H5  UNL     1      21.011  14.234  31.513  1.00  0.00     0.161 HD
BRANCH  10  12
HETATM   12  C16 UNL     1      22.588  14.409  30.036  1.00  0.00     0.141 C
BRANCH  12  13
HETATM   13  C17 UNL     1      23.782  14.312  30.972  1.00  0.00     0.158 C
BRANCH  13  14
HETATM   14  N6  UNL     1      24.510  15.565  30.952  1.00  0.00    -0.221 N
ATOM     15  H6  UNL     1      24.911  15.900  30.076  1.00  0.00     0.177 HD
BRANCH  14  16
HETATM   16  C18 UNL     1      24.659  16.272  32.041  1.00  0.00     0.735 A
HETATM   17  N7  UNL     1      23.863  16.199  33.123  1.00  0.00    -0.018 N
HETATM   18  C19 UNL     1      24.319  17.063  34.040  1.00  0.00     0.709 A
ATOM     19  H7  UNL     1      23.051  15.591  33.227  1.00  0.00     0.203 HD
HETATM   20  N10 UNL     1      25.406  17.674  33.516  1.00  0.00    -0.090 N
HETATM   21  N11 UNL     1      25.603  17.187  32.306  1.00  0.00     0.031 N
ATOM     22  H10 UNL     1      25.974  18.386  33.976  1.00  0.00     0.209 HD
BRANCH  18  23
HETATM   23  N8  UNL     1      23.791  17.259  35.215  1.00  0.00    -0.223 N
ATOM     24  H8  UNL     1      22.813  17.033  35.396  1.00  0.00     0.177 HD
BRANCH  23  25
HETATM   25  C20 UNL     1      24.634  17.808  36.255  1.00  0.00     0.165 C
BRANCH  25  26
HETATM   26  C21 UNL     1      23.879  17.677  37.563  1.00  0.00     0.249 C
BRANCH  26  27
HETATM   27  N9  UNL     1      24.110  18.872  38.360  1.00  0.00    -0.078 N
ATOM     28  H93 UNL     1      24.328  18.655  39.332  1.00  0.00     0.274 HD
ATOM     29  H92 UNL     1      24.984  19.338  38.119  1.00  0.00     0.274 HD
ATOM     30  H91 UNL     1      23.302  19.488  38.270  1.00  0.00     0.274 HD
ENDBRANCH  26  27
ENDBRANCH  25  26
ENDBRANCH  23  25
ENDBRANCH  18  23
BRANCH  21  31
HETATM   31  O2  UNL     1      26.617  17.558  31.446  1.00  0.00    -0.254 OA
ATOM     32  H2  UNL     1      27.450  17.932  31.708  1.00  0.00     0.247 HD
ENDBRANCH  21  31
ENDBRANCH  14  16
ENDBRANCH  13  14
ENDBRANCH  12  13
ENDBRANCH  10  12
ENDBRANCH   9  10
BRANCH   1  33
HETATM   33  C4  UNL     1      19.669  15.747  32.633  1.00  0.00    -0.055 C
HETATM   34  C3  UNL     1      19.461  15.157  33.674  1.00  0.00    -0.074 C
BRANCH  34  35
HETATM   35  C2  UNL     1      19.243  14.454  34.906  1.00  0.00     0.054 C
HETATM   36  C1  UNL     1      19.565  14.973  36.080  1.00  0.00     0.020 C
ENDBRANCH  34  35
ENDBRANCH   1  33
BRANCH   6  37
HETATM   37  N3  UNL     1      20.707  18.417  27.988  1.00  0.00    -0.222 N
ATOM     38  H3  UNL     1      20.141  19.244  27.796  1.00  0.00     0.178 HD
BRANCH  37  39
HETATM   39  C8  UNL     1      21.682  18.097  27.006  1.00  0.00     0.176 C
BRANCH  39  40
HETATM   40  C9  UNL     1      23.034  18.461  27.528  1.00  0.00    -0.040 A
HETATM   41  C10 UNL     1      23.918  17.465  27.826  1.00  0.00     0.011 A
HETATM   42  C11 UNL     1      25.163  17.814  28.307  1.00  0.00     0.037 A
HETATM   43  C12 UNL     1      25.468  19.151  28.470  1.00  0.00     0.065 A
HETATM   44  C13 UNL     1      24.538  20.148  28.154  1.00  0.00     0.037 A
HETATM   45  C14 UNL     1      23.311  19.799  27.680  1.00  0.00     0.011 A
BRANCH  43  46
HETATM   46  O1  UNL     1      26.718  19.497  28.952  1.00  0.00    -0.361 OA
ATOM     47  H1  UNL     1      26.817  20.318  29.421  1.00  0.00     0.217 HD
ENDBRANCH  43  46
ENDBRANCH  39  40
ENDBRANCH  37  39
ENDBRANCH   6  37
TORSDOF 16
ENDMDL