MODEL 1
REMARK VINA RESULT: -7.423250178      0.000      0.000
REMARK  13 active torsions:
REMARK  status: ('A' for Active; 'I' for Inactive)
REMARK    1  A    between atoms: N1_2  and  S1_4
REMARK    2  A    between atoms: S1_4  and  C2_7
REMARK    3  A    between atoms: C5_18  and  N6_19
REMARK    4  A    between atoms: N6_19  and  C6_21
REMARK    5  A    between atoms: C6_21  and  C7_22
REMARK    6  A    between atoms: C7_22  and  N7_23
REMARK    7  A    between atoms: N7_23  and  C8_25
REMARK    8  A    between atoms: C8_25  and  C9_30
REMARK    9  A    between atoms: N8_26  and  O3_28
REMARK   10  A    between atoms: C12_35  and  C13_36
REMARK   11  A    between atoms: C13_36  and  O4_37
REMARK   12  A    between atoms: C13_36  and  C14_39
REMARK   13  A    between atoms: C14_39  and  O5_41
ROOT
HETATM    1  C6  UNL     1      22.086  13.047  31.596  1.00  0.00     0.141 C
ENDROOT
BRANCH   1   2
HETATM    2  N6  UNL     1      21.169  14.001  32.176  1.00  0.00    -0.374 N
ATOM      3  H6  UNL     1      20.391  14.375  31.632  1.00  0.00     0.161 HD
BRANCH   2   4
HETATM    4  C5  UNL     1      21.357  14.372  33.410  1.00  0.00     0.119 A
HETATM    5  N5  UNL     1      22.035  13.594  34.273  1.00  0.00    -0.338 N
HETATM    6  C4  UNL     1      22.182  14.034  35.533  1.00  0.00     0.183 A
ATOM      7  H5  UNL     1      22.426  12.700  33.979  1.00  0.00     0.168 HD
HETATM    8  N4  UNL     1      21.670  15.214  35.935  1.00  0.00    -0.337 N
HETATM    9  C3  UNL     1      20.992  16.005  35.098  1.00  0.00     0.138 A
ATOM     10  H4  UNL     1      21.804  15.511  36.901  1.00  0.00     0.168 HD
HETATM   11  N3  UNL     1      20.376  17.192  35.183  1.00  0.00    -0.283 N
HETATM   12  C17 UNL     1      20.814  15.591  33.775  1.00  0.00     0.095 A
HETATM   13  N2  UNL     1      19.851  17.523  34.045  1.00  0.00    -0.286 N
ATOM     14  H3  UNL     1      20.327  17.758  36.029  1.00  0.00     0.188 HD
HETATM   15  C2  UNL     1      20.088  16.559  33.106  1.00  0.00     0.181 A
ATOM     16  H2  UNL     1      19.332  18.385  33.874  1.00  0.00     0.188 HD
BRANCH  15  17
HETATM   17  S1  UNL     1      19.577  16.546  31.449  1.00  0.00     0.276 S
HETATM   18  O1  UNL     1      20.887  16.637  30.629  1.00  0.00    -0.199 OA
HETATM   19  O2  UNL     1      18.960  15.300  30.972  1.00  0.00    -0.199 OA
BRANCH  17  20
HETATM   20  N1  UNL     1      18.745  17.992  30.998  1.00  0.00    -0.319 N
HETATM   21  C1  UNL     1      19.482  18.578  29.895  1.00  0.00     0.159 C
ATOM     22  H1  UNL     1      17.897  18.362  31.427  1.00  0.00     0.171 HD
ENDBRANCH  17  20
ENDBRANCH  15  17
ENDBRANCH   2   4
ENDBRANCH   1   2
BRANCH   1  23
HETATM   23  C7  UNL     1      22.385  13.345  30.148  1.00  0.00     0.141 C
BRANCH  23  24
HETATM   24  N7  UNL     1      22.862  14.689  29.992  1.00  0.00    -0.373 N
ATOM     25  H7  UNL     1      22.656  15.386  30.707  1.00  0.00     0.161 HD
BRANCH  24  26
HETATM   26  C8  UNL     1      23.628  15.060  28.835  1.00  0.00     0.132 C
HETATM   27  N8  UNL     1      24.042  14.147  28.029  1.00  0.00    -0.253 N
ATOM     28  H8  UNL     1      23.818  13.172  28.225  1.00  0.00     0.196 HD
BRANCH  27  29
HETATM   29  O3  UNL     1      24.773  14.447  26.919  1.00  0.00    -0.288 OA
ATOM     30  H3  UNL     1      25.617  14.880  26.975  1.00  0.00     0.244 HD
ENDBRANCH  27  29
BRANCH  26  31
HETATM   31  C9  UNL     1      23.913  16.462  28.586  1.00  0.00     0.025 A
HETATM   32  C10 UNL     1      23.004  17.191  27.817  1.00  0.00     0.102 A
HETATM   33  N9  UNL     1      23.279  18.479  27.581  1.00  0.00    -0.374 N
HETATM   34  C11 UNL     1      24.370  19.098  28.039  1.00  0.00     0.097 A
ATOM     35  H9  UNL     1      22.618  19.019  27.021  1.00  0.00     0.164 HD
HETATM   36  C12 UNL     1      25.314  18.412  28.814  1.00  0.00    -0.011 A
HETATM   37  C16 UNL     1      25.062  17.096  29.073  1.00  0.00     0.027 A
BRANCH  36  38
HETATM   38  C13 UNL     1      26.470  19.152  29.291  1.00  0.00     0.180 C
BRANCH  38  39
HETATM   39  O4  UNL     1      26.665  18.739  30.641  1.00  0.00    -0.388 OA
ATOM     40  H4  UNL     1      27.569  18.946  30.846  1.00  0.00     0.210 HD
ENDBRANCH  38  39
BRANCH  38  41
HETATM   41  C14 UNL     1      27.770  18.911  28.605  1.00  0.00     0.147 C
HETATM   42  C15 UNL     1      28.394  17.674  29.267  1.00  0.00     0.042 C
BRANCH  41  43
HETATM   43  O5  UNL     1      28.709  19.924  28.757  1.00  0.00    -0.393 OA
ATOM     44  H5  UNL     1      29.398  19.932  28.103  1.00  0.00     0.210 HD
ENDBRANCH  41  43
ENDBRANCH  38  41
ENDBRANCH  36  38
ENDBRANCH  26  31
ENDBRANCH  24  26
ENDBRANCH  23  24
ENDBRANCH   1  23
TORSDOF 13
ENDMDL