MODEL 2
REMARK VINA RESULT: -3.783462354      1.475      3.337
REMARK  2 active torsions:
REMARK  status: ('A' for Active; 'I' for Inactive)
REMARK    1  A    between atoms: N1_2  and  C2_4
REMARK    2  A    between atoms: C2_4  and  C4_6
ROOT
HETATM    1  C4  UNL     1      47.603 -67.741  40.202  1.00  0.00     0.059 C
HETATM    2  C5  UNL     1      47.578 -68.870  39.230  1.00  0.00     0.240 C
HETATM    3  N2  UNL     1      48.329 -67.990  38.301  1.00  0.00    -0.074 N
ATOM      4  H21 UNL     1      48.314 -68.126  37.291  1.00  0.00     0.277 HD
ATOM      5  H22 UNL     1      49.347 -68.005  38.239  1.00  0.00     0.277 HD
HETATM    6  C6  UNL     1      47.606 -66.910  38.952  1.00  0.00     0.240 C
ENDROOT
BRANCH   1   7
HETATM    7  C2  UNL     1      48.824 -67.494  41.022  1.00  0.00     0.079 C
HETATM    8  C3  UNL     1      48.642 -66.164  41.721  1.00  0.00     0.032 C
BRANCH   7   9
HETATM    9  N1  UNL     1      49.161 -68.484  41.981  1.00  0.00    -0.421 N
HETATM   10  C1  UNL     1      50.426 -69.101  41.961  1.00  0.00     0.140 C
ATOM     11  H1  UNL     1      48.480 -68.751  42.691  1.00  0.00     0.153 HD
ENDBRANCH   7   9
ENDBRANCH   1   7
TORSDOF 2
ENDMDL