MODEL 1
REMARK VINA RESULT: -4.820388645      0.000      0.000
REMARK  4 active torsions:
REMARK  status: ('A' for Active; 'I' for Inactive)
REMARK    1  A    between atoms: N1_2  and  N2_4
REMARK    2  A    between atoms: C2_6  and  N3_7
REMARK    3  A    between atoms: N3_7  and  C3_9
REMARK    4  A    between atoms: C3_9  and  C4_10
ROOT
HETATM    1  N2  UNL     1      47.466 -68.916  37.925  1.00  0.00    -0.301 N
ATOM      2  H2  UNL     1      47.880 -69.494  37.193  1.00  0.00     0.187 HD
HETATM    3  C2  UNL     1      47.884 -67.719  38.020  1.00  0.00     0.192 C
ENDROOT
BRANCH   3   4
HETATM    4  N3  UNL     1      47.454 -66.750  38.951  1.00  0.00    -0.385 N
ATOM      5  H3  UNL     1      46.564 -66.268  38.833  1.00  0.00     0.160 HD
BRANCH   4   6
HETATM    6  C3  UNL     1      48.310 -66.462  40.072  1.00  0.00     0.125 C
BRANCH   6   7
HETATM    7  C4  UNL     1      48.305 -67.506  41.139  1.00  0.00     0.003 A
HETATM    8  C5  UNL     1      49.507 -67.587  42.015  1.00  0.00     0.007 A
HETATM    9  C6  UNL     1      49.290 -68.629  40.984  1.00  0.00     0.007 A
ENDBRANCH   6   7
ENDBRANCH   4   6
ENDBRANCH   3   4
BRANCH   1  10
HETATM   10  N1  UNL     1      46.507 -69.509  38.718  1.00  0.00    -0.340 N
HETATM   11  C1  UNL     1      45.770 -70.667  38.263  1.00  0.00     0.167 C
ATOM     12  H1  UNL     1      46.313 -69.123  39.642  1.00  0.00     0.179 HD
ENDBRANCH   1  10
TORSDOF 4
ENDMDL