MODEL 3
REMARK VINA RESULT: -4.169367924      1.118      1.971
REMARK  2 active torsions:
REMARK  status: ('A' for Active; 'I' for Inactive)
REMARK    1  A    between atoms: N1_2  and  C2_5
REMARK    2  A    between atoms: C2_5  and  C3_6
ROOT
HETATM    1  C3  UNL     1      48.008 -68.301  40.458  1.00  0.00    -0.030 A
HETATM    2  C4  UNL     1      49.186 -68.690  41.062  1.00  0.00     0.026 A
HETATM    3  C5  UNL     1      49.936 -67.798  41.786  1.00  0.00     0.088 A
HETATM    4  N2  UNL     1      49.530 -66.533  41.914  1.00  0.00    -0.375 N
ATOM      5  H2  UNL     1      50.094 -65.875  42.454  1.00  0.00     0.164 HD
HETATM    6  C6  UNL     1      48.385 -66.111  41.339  1.00  0.00     0.088 A
HETATM    7  C7  UNL     1      47.620 -66.986  40.612  1.00  0.00     0.026 A
ENDROOT
BRANCH   1   8
HETATM    8  C2  UNL     1      47.259 -69.310  39.700  1.00  0.00     0.270 C
BRANCH   8   9
HETATM    9  N1  UNL     1      46.823 -68.871  38.411  1.00  0.00    -0.075 N
HETATM   10  C1  UNL     1      48.007 -68.507  37.653  1.00  0.00     0.267 C
ATOM     11  H12 UNL     1      46.133 -68.121  38.457  1.00  0.00     0.277 HD
ATOM     12  H11 UNL     1      46.239 -69.559  37.933  1.00  0.00     0.277 HD
ENDBRANCH   8   9
ENDBRANCH   1   8
TORSDOF 2
ENDMDL