MODEL 3
REMARK VINA RESULT: -3.986091181      1.356      2.192
REMARK  2 active torsions:
REMARK  status: ('A' for Active; 'I' for Inactive)
REMARK    1  A    between atoms: C2_2  and  C3_3
REMARK    2  A    between atoms: C3_3  and  N1_4
ROOT
HETATM    1  N1  UNL     1      48.134 -68.022  40.511  1.00  0.00    -0.189 N
HETATM    2  C4  UNL     1      47.784 -66.795  40.099  1.00  0.00     0.127 A
HETATM    3  C5  UNL     1      48.616 -65.873  40.686  1.00  0.00     0.124 A
HETATM    4  N2  UNL     1      49.469 -66.568  41.457  1.00  0.00    -0.201 N
ATOM      5  H2  UNL     1      50.216 -66.172  42.028  1.00  0.00     0.183 HD
HETATM    6  C6  UNL     1      49.172 -67.869  41.346  1.00  0.00     0.677 A
HETATM    7  N3  UNL     1      49.781 -68.848  41.946  1.00  0.00    -0.234 N
ATOM      8  H31 UNL     1      50.570 -68.732  42.581  1.00  0.00     0.174 HD
ATOM      9  H32 UNL     1      49.555 -69.838  41.862  1.00  0.00     0.174 HD
ENDROOT
BRANCH   1  10
HETATM   10  C3  UNL     1      47.498 -69.297  40.122  1.00  0.00     0.173 C
BRANCH  10  11
HETATM   11  C2  UNL     1      47.027 -69.239  38.727  1.00  0.00    -0.016 C
HETATM   12  C1  UNL     1      46.236 -70.186  38.263  1.00  0.00     0.008 C
ENDBRANCH  10  11
ENDBRANCH   1  10
TORSDOF 2
ENDMDL