MODEL 5
REMARK VINA RESULT: -3.658944731      1.594      4.312
REMARK  4 active torsions:
REMARK  status: ('A' for Active; 'I' for Inactive)
REMARK    1  A    between atoms: C2_2  and  C3_3
REMARK    2  A    between atoms: C3_3  and  N1_4
REMARK    3  A    between atoms: N1_4  and  C4_6
REMARK    4  A    between atoms: C7_9  and  N2_10
ROOT
HETATM    1  C4  UNL     1      47.832 -68.315  39.753  1.00  0.00     0.107 C
HETATM    2  C5  UNL     1      47.924 -67.227  38.743  1.00  0.00     0.029 C
HETATM    3  C6  UNL     1      47.887 -68.256  37.629  1.00  0.00     0.037 C
HETATM    4  C7  UNL     1      47.571 -69.335  38.626  1.00  0.00     0.205 C
ENDROOT
BRANCH   1   5
HETATM    5  N1  UNL     1      48.989 -68.720  40.461  1.00  0.00    -0.412 N
ATOM      6  H1  UNL     1      49.661 -69.374  40.061  1.00  0.00     0.153 HD
BRANCH   5   7
HETATM    7  C3  UNL     1      49.162 -68.167  41.758  1.00  0.00     0.141 C
BRANCH   7   8
HETATM    8  C2  UNL     1      49.315 -66.667  41.720  1.00  0.00    -0.018 C
HETATM    9  C1  UNL     1      48.363 -65.880  42.184  1.00  0.00     0.008 C
ENDBRANCH   7   8
ENDBRANCH   5   7
ENDBRANCH   1   5
BRANCH   4  10
HETATM   10  N2  UNL     1      46.222 -69.838  38.601  1.00  0.00    -0.073 N
ATOM     11  H23 UNL     1      45.919 -70.105  39.537  1.00  0.00     0.274 HD
ATOM     12  H22 UNL     1      45.561 -69.083  38.417  1.00  0.00     0.274 HD
ATOM     13  H21 UNL     1      46.082 -70.607  37.945  1.00  0.00     0.274 HD
ENDBRANCH   4  10
TORSDOF 4
ENDMDL