MODEL 4
REMARK VINA RESULT: -4.073982467      2.045      3.222
REMARK  3 active torsions:
REMARK  status: ('A' for Active; 'I' for Inactive)
REMARK    1  A    between atoms: C2_2  and  C3_3
REMARK    2  A    between atoms: C5_9  and  C6_10
REMARK    3  A    between atoms: C6_10  and  N3_11
ROOT
HETATM    1  C3  UNL     1      48.115 -67.757  40.216  1.00  0.00     0.006 A
HETATM    2  C4  UNL     1      48.022 -66.489  39.684  1.00  0.00     0.120 A
HETATM    3  N1  UNL     1      48.742 -65.692  40.476  1.00  0.00    -0.311 N
ATOM      4  H1  UNL     1      48.853 -64.690  40.323  1.00  0.00     0.186 HD
HETATM    5  N2  UNL     1      49.292 -66.348  41.477  1.00  0.00    -0.303 N
ATOM      6  H2  UNL     1      49.884 -65.959  42.212  1.00  0.00     0.186 HD
HETATM    7  C5  UNL     1      48.919 -67.629  41.339  1.00  0.00     0.062 A
ENDROOT
BRANCH   7   8
HETATM    8  C6  UNL     1      49.321 -68.720  42.263  1.00  0.00     0.288 C
BRANCH   8   9
HETATM    9  N3  UNL     1      50.615 -69.229  41.923  1.00  0.00    -0.074 N
ATOM     10  H33 UNL     1      51.156 -68.551  41.387  1.00  0.00     0.274 HD
ATOM     11  H32 UNL     1      51.220 -69.297  42.742  1.00  0.00     0.274 HD
ATOM     12  H31 UNL     1      50.540 -70.121  41.435  1.00  0.00     0.274 HD
ENDBRANCH   8   9
ENDBRANCH   7   8
BRANCH   1  13
HETATM   13  C2  UNL     1      47.522 -68.985  39.740  1.00  0.00     0.004 C
HETATM   14  C1  UNL     1      47.177 -69.129  38.469  1.00  0.00     0.012 C
ENDBRANCH   1  13
TORSDOF 3
ENDMDL