MODEL 3
REMARK VINA RESULT: -3.927138791      0.778      1.294
REMARK  3 active torsions:
REMARK  status: ('A' for Active; 'I' for Inactive)
REMARK    1  A    between atoms: C2_2  and  N1_3
REMARK    2  A    between atoms: C2_2  and  C3_7
REMARK    3  A    between atoms: C3_7  and  C4_8
ROOT
HETATM    1  C4  UNL     1      48.308 -68.571  39.960  1.00  0.00     0.029 A
HETATM    2  C5  UNL     1      48.511 -67.971  38.737  1.00  0.00     0.045 A
HETATM    3  C6  UNL     1      47.459 -68.410  37.925  1.00  0.00     0.109 A
HETATM    4  N2  UNL     1      46.684 -69.223  38.639  1.00  0.00    -0.312 N
ATOM      5  H2  UNL     1      45.843 -69.690  38.302  1.00  0.00     0.186 HD
HETATM    6  N3  UNL     1      47.180 -69.324  39.847  1.00  0.00    -0.305 N
ATOM      7  H3  UNL     1      46.777 -69.886  40.597  1.00  0.00     0.186 HD
ENDROOT
BRANCH   1   8
HETATM    8  C3  UNL     1      49.164 -68.418  41.168  1.00  0.00     0.090 C
BRANCH   8   9
HETATM    9  C2  UNL     1      48.706 -67.150  41.865  1.00  0.00     0.185 C
HETATM   10  C1  UNL     1      47.238 -66.953  41.681  1.00  0.00     0.040 C
BRANCH   9  11
HETATM   11  N1  UNL     1      49.410 -65.986  41.365  1.00  0.00    -0.075 N
ATOM     12  H13 UNL     1      49.265 -65.164  41.952  1.00  0.00     0.274 HD
ATOM     13  H12 UNL     1      50.420 -66.066  41.476  1.00  0.00     0.274 HD
ATOM     14  H11 UNL     1      49.139 -65.820  40.395  1.00  0.00     0.274 HD
ENDBRANCH   9  11
ENDBRANCH   8   9
ENDBRANCH   1   8
TORSDOF 3
ENDMDL