MODEL 2
REMARK VINA RESULT: -4.574780908      1.419      3.890
REMARK  3 active torsions:
REMARK  status: ('A' for Active; 'I' for Inactive)
REMARK    1  A    between atoms: C2_2  and  C3_3
REMARK    2  A    between atoms: C3_3  and  N1_4
REMARK    3  A    between atoms: N1_4  and  C4_6
ROOT
HETATM    1  C4  UNL     1      48.061 -67.590  39.799  1.00  0.00     0.171 C
HETATM    2  N2  UNL     1      48.633 -68.434  40.572  1.00  0.00    -0.361 N
ATOM      3  H2  UNL     1      48.542 -69.448  40.512  1.00  0.00     0.162 HD
HETATM    4  C5  UNL     1      49.423 -67.726  41.536  1.00  0.00     0.142 C
HETATM    5  C6  UNL     1      48.726 -66.391  41.598  1.00  0.00     0.142 C
HETATM    6  N3  UNL     1      48.396 -66.247  40.169  1.00  0.00    -0.361 N
ATOM      7  H3  UNL     1      48.404 -65.406  39.591  1.00  0.00     0.162 HD
ENDROOT
BRANCH   1   8
HETATM    8  N1  UNL     1      47.193 -67.929  38.712  1.00  0.00    -0.359 N
ATOM      9  H1  UNL     1      46.507 -67.263  38.358  1.00  0.00     0.162 HD
BRANCH   8  10
HETATM   10  C3  UNL     1      47.323 -69.256  38.130  1.00  0.00     0.149 C
BRANCH  10  11
HETATM   11  C2  UNL     1      46.322 -70.176  38.736  1.00  0.00    -0.018 C
HETATM   12  C1  UNL     1      45.317 -70.658  38.042  1.00  0.00     0.008 C
ENDBRANCH  10  11
ENDBRANCH   8  10
ENDBRANCH   1   8
TORSDOF 3
ENDMDL