MODEL 3
REMARK VINA RESULT: -4.819676538      2.744      3.644
REMARK  3 active torsions:
REMARK  status: ('A' for Active; 'I' for Inactive)
REMARK    1  A    between atoms: C2_2  and  N1_3
REMARK    2  A    between atoms: C2_2  and  C3_7
REMARK    3  A    between atoms: N1_3  and  N2_4
ROOT
HETATM    1  C1  UNL     1      48.130 -68.086  38.046  1.00  0.00     0.030 C
HETATM    2  C2  UNL     1      48.031 -68.313  39.532  1.00  0.00     0.098 C
ENDROOT
BRANCH   2   3
HETATM    3  N1  UNL     1      47.072 -69.362  39.794  1.00  0.00    -0.143 NA
BRANCH   3   4
HETATM    4  N2  UNL     1      46.405 -69.709  38.634  1.00  0.00    -0.348 N
ATOM      5  H22 UNL     1      46.870 -69.919  37.751  1.00  0.00     0.172 HD
ATOM      6  H21 UNL     1      45.397 -69.723  38.791  1.00  0.00     0.172 HD
ENDBRANCH   3   4
ENDBRANCH   2   3
BRANCH   2   7
HETATM    7  C3  UNL     1      47.672 -67.019  40.187  1.00  0.00     0.006 C
HETATM    8  C4  UNL     1      47.336 -67.076  41.645  1.00  0.00     0.006 C
HETATM    9  C5  UNL     1      48.629 -66.333  41.944  1.00  0.00     0.001 C
HETATM   10  C6  UNL     1      48.780 -66.053  40.447  1.00  0.00     0.006 C
ENDBRANCH   2   7
TORSDOF 3
ENDMDL