MODEL 4
REMARK VINA RESULT: -6.776390446      2.672      6.616
REMARK  6 active torsions:
REMARK  status: ('A' for Active; 'I' for Inactive)
REMARK    1  A    between atoms: C2_2  and  O2_4
REMARK    2  A    between atoms: O2_4  and  C3_5
REMARK    3  A    between atoms: C7_9  and  O3_10
REMARK    4  A    between atoms: C12_19  and  C13_20
REMARK    5  A    between atoms: C13_20  and  C14_21
REMARK    6  A    between atoms: C22_29  and  O5_30
ROOT
HETATM    1  C3  UNL     1      -3.503   5.000   9.284  1.00  0.00     0.143 C
HETATM    2  C4  UNL     1      -4.166   4.577  10.609  1.00  0.00     0.039 C
HETATM    3  C5  UNL     1      -3.707   3.213  10.887  1.00  0.00     0.005 C
HETATM    4  C6  UNL     1      -2.234   3.206  11.245  1.00  0.00     0.024 C
HETATM    5  C7  UNL     1      -1.689   1.893  10.783  1.00  0.00     0.123 C
HETATM    6  C8  UNL     1      -2.406   0.860  11.675  1.00  0.00     0.038 C
HETATM    7  C9  UNL     1      -3.864   0.959  11.616  1.00  0.00     0.007 C
HETATM    8  C10 UNL     1      -4.502  -0.084  12.497  1.00  0.00     0.108 C
HETATM    9  C11 UNL     1      -4.265   0.357  13.902  1.00  0.00     0.218 C
HETATM   10  O4  UNL     1      -4.460  -0.441  14.831  1.00  0.00    -0.274 OA
HETATM   11  N1  UNL     1      -3.827   1.668  14.091  1.00  0.00    -0.356 N
ATOM     12  H1  UNL     1      -3.105   1.867  14.782  1.00  0.00     0.162 HD
HETATM   13  C12 UNL     1      -4.413   2.780  13.286  1.00  0.00     0.093 C
HETATM   14  C17 UNL     1      -4.474   2.357  11.851  1.00  0.00    -0.015 C
HETATM   15  C18 UNL     1      -5.875   2.208  11.298  1.00  0.00     0.018 C
HETATM   16  C19 UNL     1      -1.609   4.425  10.815  1.00  0.00     0.006 C
HETATM   17  C20 UNL     1      -0.135   4.529  10.667  1.00  0.00     0.009 C
HETATM   18  C21 UNL     1      -0.001   5.958  10.114  1.00  0.00     0.033 C
HETATM   19  C22 UNL     1      -1.391   6.363   9.624  1.00  0.00     0.129 C
HETATM   20  C23 UNL     1      -2.039   4.976   9.459  1.00  0.00     0.013 C
HETATM   21  C24 UNL     1      -1.321   4.351   8.303  1.00  0.00     0.021 C
ENDROOT
BRANCH   1  22
HETATM   22  O2  UNL     1      -4.038   6.183   8.784  1.00  0.00    -0.315 OA
BRANCH  22  23
HETATM   23  C2  UNL     1      -4.593   6.280   7.492  1.00  0.00     0.255 C
HETATM   24  C1  UNL     1      -3.786   6.593   6.301  1.00  0.00     0.126 C
HETATM   25  O1  UNL     1      -5.836   6.081   7.429  1.00  0.00    -0.266 OA
ENDBRANCH  22  23
ENDBRANCH   1  22
BRANCH  19  26
HETATM   26  O5  UNL     1      -1.992   7.077  10.650  1.00  0.00    -0.395 OA
ATOM     27  H5  UNL     1      -2.883   7.259  10.377  1.00  0.00     0.210 HD
ENDBRANCH  19  26
BRANCH   5  28
HETATM   28  O3  UNL     1      -0.336   1.752  10.985  1.00  0.00    -0.395 OA
ATOM     29  H3  UNL     1       0.070   1.108  10.418  1.00  0.00     0.210 HD
ENDBRANCH   5  28
BRANCH  13  30
HETATM   30  C13 UNL     1      -5.696   3.057  13.989  1.00  0.00     0.029 C
BRANCH  30  31
HETATM   31  C14 UNL     1      -5.651   3.661  15.347  1.00  0.00    -0.021 C
HETATM   32  C15 UNL     1      -6.258   5.087  15.159  1.00  0.00     0.009 C
HETATM   33  C16 UNL     1      -6.661   2.919  16.264  1.00  0.00     0.009 C
ENDBRANCH  30  31
ENDBRANCH  13  30
TORSDOF 6
ENDMDL