MODEL 5
REMARK VINA RESULT: -7.894575862      1.578      2.206
REMARK  3 active torsions:
REMARK  status: ('A' for Active; 'I' for Inactive)
REMARK    1  A    between atoms: C5_7  and  C6_8
REMARK    2  A    between atoms: C6_8  and  C7_9
REMARK    3  A    between atoms: C7_9  and  C8_10
ROOT
HETATM    1  C8  UNL     1      -4.178   4.904  13.867  1.00  0.00     0.009 C
HETATM    2  C9  UNL     1      -2.974   4.087  13.457  1.00  0.00     0.007 C
HETATM    3  C10 UNL     1      -3.276   3.073  12.404  1.00  0.00     0.002 C
HETATM    4  C11 UNL     1      -3.375   3.596  11.023  1.00  0.00     0.020 C
HETATM    5  C12 UNL     1      -2.313   4.552  10.606  1.00  0.00     0.122 C
HETATM    6  N2  UNL     1      -1.075   3.886  10.253  1.00  0.00    -0.361 N
ATOM      7  H2  UNL     1      -1.025   2.870  10.330  1.00  0.00     0.162 HD
HETATM    8  C13 UNL     1       0.053   4.583   9.811  1.00  0.00     0.219 C
HETATM    9  O1  UNL     1       0.849   4.014   8.997  1.00  0.00    -0.274 OA
HETATM   10  C14 UNL     1       0.402   5.965  10.227  1.00  0.00     0.122 C
HETATM   11  C15 UNL     1       1.878   6.136  10.159  1.00  0.00     0.132 C
HETATM   12  N3  UNL     1       2.296   7.505   9.937  1.00  0.00    -0.361 N
ATOM     13  H3  UNL     1       2.522   7.779   8.981  1.00  0.00     0.162 HD
HETATM   14  C16 UNL     1       2.412   8.483  10.934  1.00  0.00     0.217 C
HETATM   15  O2  UNL     1       2.474   9.694  10.558  1.00  0.00    -0.274 OA
HETATM   16  C17 UNL     1       2.466   8.214  12.394  1.00  0.00     0.103 C
HETATM   17  C18 UNL     1       1.991   9.413  13.172  1.00  0.00     0.013 C
HETATM   18  C19 UNL     1       0.676   9.168  13.877  1.00  0.00     0.027 C
HETATM   19  C20 UNL     1      -0.355   8.723  12.906  1.00  0.00    -0.029 C
HETATM   20  C21 UNL     1      -1.446   8.029  13.204  1.00  0.00    -0.005 C
HETATM   21  C22 UNL     1      -1.829   7.572  14.566  1.00  0.00     0.194 C
HETATM   22  O3  UNL     1      -2.409   6.316  14.455  1.00  0.00    -0.387 OA
HETATM   23  C23 UNL     1      -3.707   6.346  14.011  1.00  0.00     0.172 C
ENDROOT
BRANCH   1  24
HETATM   24  C7  UNL     1      -4.727   4.490  15.209  1.00  0.00     0.011 C
BRANCH  24  25
HETATM   25  C6  UNL     1      -6.168   4.040  15.129  1.00  0.00     0.054 C
BRANCH  25  26
HETATM   26  C5  UNL     1      -6.173   2.531  15.319  1.00  0.00     0.216 C
HETATM   27  N1  UNL     1      -4.882   2.136  15.760  1.00  0.00    -0.397 N
HETATM   28  C4  UNL     1      -4.786   0.853  16.352  1.00  0.00     0.119 C
ATOM     29  H1  UNL     1      -4.069   2.743  15.656  1.00  0.00     0.155 HD
HETATM   30  C3  UNL     1      -5.958   0.438  17.182  1.00  0.00     0.051 C
HETATM   31  C2  UNL     1      -6.890   1.603  17.318  1.00  0.00     0.121 C
HETATM   32  C1  UNL     1      -6.411   2.623  18.335  1.00  0.00     0.040 C
HETATM   33  O4  UNL     1      -7.216   2.203  16.132  1.00  0.00    -0.362 OA
ENDBRANCH  25  26
ENDBRANCH  24  25
ENDBRANCH   1  24
TORSDOF 3
ENDMDL