MODEL 5
REMARK VINA RESULT: -7.817891025      2.625      6.135
REMARK  4 active torsions:
REMARK  status: ('A' for Active; 'I' for Inactive)
REMARK    1  A    between atoms: C2_2  and  N1_4
REMARK       I    between atoms: N1_4  and  C4_6
REMARK       I    between atoms: C4_6  and  N2_8
REMARK    2  A    between atoms: N2_8  and  C5_10
REMARK    3  A    between atoms: C6_11  and  C7_12
REMARK    4  A    between atoms: C7_12  and  C9_14
ROOT
HETATM    1  C5  UNL     1      -2.158   5.248  10.882  1.00  0.00     0.127 C
HETATM    2  C6  UNL     1      -3.249   4.950   9.913  1.00  0.00     0.162 C
HETATM    3  O4  UNL     1      -4.103   3.900  10.265  1.00  0.00    -0.350 OA
HETATM    4  C10 UNL     1      -4.231   3.844  11.576  1.00  0.00     0.299 C
HETATM    5  O5  UNL     1      -5.248   3.135  12.162  1.00  0.00    -0.323 OA
HETATM    6  C11 UNL     1      -4.838   3.041  13.497  1.00  0.00     0.165 C
HETATM    7  C12 UNL     1      -5.815   3.673  14.463  1.00  0.00     0.079 C
HETATM    8  C13 UNL     1      -4.727   1.531  13.755  1.00  0.00     0.069 C
HETATM    9  C14 UNL     1      -4.011   1.022  12.489  1.00  0.00     0.013 C
HETATM   10  C15 UNL     1      -2.774   1.894  12.385  1.00  0.00     0.030 C
HETATM   11  C16 UNL     1      -1.873   1.271  11.379  1.00  0.00    -0.012 C
HETATM   12  C17 UNL     1      -2.628   0.580  10.241  1.00  0.00     0.010 C
HETATM   13  C18 UNL     1      -0.798   2.138  10.833  1.00  0.00     0.005 C
HETATM   14  C19 UNL     1      -0.625   3.437  11.498  1.00  0.00     0.015 C
HETATM   15  C20 UNL     1      -1.871   4.176  11.916  1.00  0.00     0.016 C
HETATM   16  C21 UNL     1      -1.432   4.910  13.206  1.00  0.00     0.020 C
HETATM   17  C22 UNL     1      -3.021   3.347  12.305  1.00  0.00     0.127 C
HETATM   18  O6  UNL     1      -3.571   3.657  13.592  1.00  0.00    -0.338 OA
ENDROOT
BRANCH   1  19
HETATM   19  N2  UNL     1      -2.304   6.495  11.605  1.00  0.00    -0.335 N
HETATM   20  C4  UNL     1      -1.984   7.779  11.167  1.00  0.00     0.316 C
HETATM   21  N1  UNL     1      -2.146   8.950  11.987  1.00  0.00    -0.339 N
HETATM   22  O1  UNL     1      -1.531   8.007  10.019  1.00  0.00    -0.247 OA
ATOM     23  H1  UNL     1      -2.455   8.816  12.950  1.00  0.00     0.164 HD
ATOM     24  H2  UNL     1      -2.687   6.425  12.548  1.00  0.00     0.164 HD
BRANCH  21  25
HETATM   25  C2  UNL     1      -1.904  10.283  11.546  1.00  0.00     0.078 C
HETATM   26  C1  UNL     1      -1.326  11.199  12.602  1.00  0.00     0.032 C
HETATM   27  C3  UNL     1      -3.187  10.844  11.037  1.00  0.00     0.032 C
ENDBRANCH  21  25
ENDBRANCH   1  19
BRANCH   2  28
HETATM   28  C7  UNL     1      -2.836   4.618   8.513  1.00  0.00     0.114 C
HETATM   29  C8  UNL     1      -1.457   4.939   8.096  1.00  0.00     0.024 C
BRANCH  28  30
HETATM   30  C9  UNL     1      -3.807   5.358   7.622  1.00  0.00     0.179 C
HETATM   31  O2  UNL     1      -3.934   6.607   7.669  1.00  0.00    -0.648 OA
HETATM   32  O3  UNL     1      -4.616   4.677   6.689  1.00  0.00    -0.648 OA
ENDBRANCH  28  30
ENDBRANCH   2  28
TORSDOF 4
ENDMDL