MODEL 3
REMARK VINA RESULT: -7.172506901      3.281      4.548
REMARK  6 active torsions:
REMARK  status: ('A' for Active; 'I' for Inactive)
REMARK    1  A    between atoms: N1_2  and  C2_3
REMARK       I    between atoms: N1_2  and  C4_7
REMARK    2  A    between atoms: C2_3  and  C3_4
REMARK    3  A    between atoms: C3_4  and  O1_5
REMARK    4  A    between atoms: C4_7  and  C5_9
REMARK    5  A    between atoms: C5_9  and  O3_10
REMARK    6  A    between atoms: C17_24  and  O4_25
ROOT
HETATM    1  C5  UNL     1      -3.936   3.669  13.129  1.00  0.00     0.146 C
HETATM    2  C6  UNL     1      -3.701   3.313  14.619  1.00  0.00     0.049 C
HETATM    3  C7  UNL     1      -2.600   4.292  14.970  1.00  0.00     0.009 C
HETATM    4  C8  UNL     1      -3.057   5.526  14.303  1.00  0.00     0.002 C
HETATM    5  C9  UNL     1      -2.059   6.632  14.153  1.00  0.00    -0.002 C
HETATM    6  C10 UNL     1      -0.674   6.255  13.874  1.00  0.00     0.033 C
HETATM    7  C11 UNL     1      -0.030   6.698  12.654  1.00  0.00    -0.007 C
HETATM    8  C12 UNL     1      -0.027   7.851  12.065  1.00  0.00     0.027 C
HETATM    9  C13 UNL     1       0.726   7.969  10.846  1.00  0.00     0.095 C
HETATM   10  N2  UNL     1       1.345   8.060   9.854  1.00  0.00    -0.192 NA
HETATM   11  C14 UNL     1      -0.697   9.072  12.465  1.00  0.00    -0.001 C
HETATM   12  C15 UNL     1      -0.883   9.927  11.197  1.00  0.00     0.021 C
HETATM   13  C16 UNL     1       0.255   9.859  13.335  1.00  0.00     0.046 C
HETATM   14  C17 UNL     1      -0.223   9.750  14.762  1.00  0.00     0.119 C
HETATM   15  C18 UNL     1      -1.713   9.607  14.597  1.00  0.00     0.038 C
HETATM   16  C19 UNL     1      -1.926   9.002  13.232  1.00  0.00     0.006 C
HETATM   17  C20 UNL     1      -2.669   7.700  13.321  1.00  0.00    -0.005 C
HETATM   18  C21 UNL     1      -3.182   7.257  11.995  1.00  0.00     0.006 C
HETATM   19  C22 UNL     1      -3.396   5.784  11.836  1.00  0.00     0.013 C
HETATM   20  C23 UNL     1      -3.871   5.161  13.101  1.00  0.00     0.000 C
HETATM   21  C24 UNL     1      -5.338   5.629  13.253  1.00  0.00     0.019 C
ENDROOT
BRANCH  14  22
HETATM   22  O4  UNL     1       0.118  10.975  15.370  1.00  0.00    -0.396 OA
ATOM     23  H4  UNL     1      -0.486  11.075  16.097  1.00  0.00     0.210 HD
ENDBRANCH  14  22
BRANCH   1  24
HETATM   24  C4  UNL     1      -3.062   2.927  12.255  1.00  0.00     0.255 C
HETATM   25  N1  UNL     1      -3.090   1.603  11.876  1.00  0.00    -0.352 N
HETATM   26  C1  UNL     1      -1.943   1.103  11.016  1.00  0.00     0.152 C
HETATM   27  O2  UNL     1      -2.093   3.608  11.747  1.00  0.00    -0.270 OA
BRANCH  25  28
HETATM   28  C2  UNL     1      -4.060   0.567  12.073  1.00  0.00     0.151 C
BRANCH  28  29
HETATM   29  C3  UNL     1      -5.043   0.390  10.954  1.00  0.00     0.183 C
BRANCH  29  30
HETATM   30  O1  UNL     1      -5.876   1.458  10.840  1.00  0.00    -0.399 OA
ATOM     31  H1  UNL     1      -5.398   2.262  10.673  1.00  0.00     0.209 HD
ENDBRANCH  29  30
ENDBRANCH  28  29
ENDBRANCH  25  28
ENDBRANCH   1  24
BRANCH   1  32
HETATM   32  O3  UNL     1      -5.258   3.198  12.943  1.00  0.00    -0.379 OA
ATOM     33  H3  UNL     1      -5.785   3.486  13.679  1.00  0.00     0.211 HD
ENDBRANCH   1  32
TORSDOF 6
ENDMDL