MODEL 3
REMARK VINA RESULT: -9.355003486      2.613      3.635
REMARK  4 active torsions:
REMARK  status: ('A' for Active; 'I' for Inactive)
REMARK    1  A    between atoms: C2_2  and  C3_3
REMARK    2  A    between atoms: C4_6  and  C5_7
REMARK    3  A    between atoms: C5_7  and  O1_8
REMARK    4  A    between atoms: C5_7  and  C6_10
ROOT
HETATM    1  C6  UNL     1      -4.146   4.085  14.182  1.00  0.00     0.028 C
HETATM    2  C7  UNL     1      -5.234   3.207  13.533  1.00  0.00     0.086 C
HETATM    3  C8  UNL     1      -4.796   3.053  12.088  1.00  0.00     0.136 C
HETATM    4  O2  UNL     1      -5.129   2.140  11.372  1.00  0.00    -0.297 OA
HETATM    5  C9  UNL     1      -3.955   4.213  11.873  1.00  0.00     0.025 C
HETATM    6  C10 UNL     1      -4.743   5.495  11.874  1.00  0.00     0.024 C
HETATM    7  C11 UNL     1      -3.108   4.105  13.169  1.00  0.00     0.009 C
HETATM    8  C12 UNL     1      -2.192   5.232  13.014  1.00  0.00     0.011 C
HETATM    9  C13 UNL     1      -2.028   5.348  11.511  1.00  0.00    -0.004 C
HETATM   10  C14 UNL     1      -2.842   4.167  10.934  1.00  0.00     0.006 C
HETATM   11  C15 UNL     1      -3.072   4.474   9.514  1.00  0.00     0.007 C
HETATM   12  C16 UNL     1      -1.690   4.443   8.842  1.00  0.00     0.011 C
HETATM   13  C17 UNL     1      -0.706   5.343   9.501  1.00  0.00    -0.022 C
HETATM   14  C18 UNL     1      -0.861   6.763   9.026  1.00  0.00     0.012 C
HETATM   15  C19 UNL     1       0.177   6.440   7.944  1.00  0.00     0.018 C
HETATM   16  C20 UNL     1       0.622   5.287   8.847  1.00  0.00     0.025 C
HETATM   17  C21 UNL     1       0.903   4.009   8.060  1.00  0.00     0.024 C
HETATM   18  C22 UNL     1       1.749   5.607   9.726  1.00  0.00     0.136 C
HETATM   19  O3  UNL     1       2.882   5.228   9.405  1.00  0.00    -0.297 OA
HETATM   20  C23 UNL     1       1.574   6.360  10.970  1.00  0.00     0.079 C
HETATM   21  C24 UNL     1       0.241   6.211  11.615  1.00  0.00     0.013 C
HETATM   22  C25 UNL     1      -0.645   5.177  11.013  1.00  0.00    -0.000 C
ENDROOT
BRANCH   1  23
HETATM   23  C5  UNL     1      -3.792   3.394  15.478  1.00  0.00     0.145 C
BRANCH  23  24
HETATM   24  C4  UNL     1      -4.452   2.050  15.625  1.00  0.00     0.145 C
HETATM   25  C3  UNL     1      -5.193   1.972  16.962  1.00  0.00     0.118 C
HETATM   26  N1  UNL     1      -4.782   0.598  16.925  1.00  0.00    -0.141 NA
HETATM   27  N2  UNL     1      -3.651   1.012  16.192  1.00  0.00    -0.139 NA
BRANCH  25  28
HETATM   28  C2  UNL     1      -6.671   2.235  16.854  1.00  0.00     0.020 C
HETATM   29  C1  UNL     1      -7.510   1.004  16.892  1.00  0.00     0.007 C
ENDBRANCH  25  28
ENDBRANCH  23  24
BRANCH  23  30
HETATM   30  O1  UNL     1      -2.405   3.254  15.498  1.00  0.00    -0.393 OA
ATOM     31  H1  UNL     1      -2.107   3.062  16.379  1.00  0.00     0.210 HD
ENDBRANCH  23  30
ENDBRANCH   1  23
TORSDOF 4
ENDMDL