MODEL 5
REMARK VINA RESULT: -7.764786191      3.937      6.388
REMARK  4 active torsions:
REMARK  status: ('A' for Active; 'I' for Inactive)
REMARK    1  A    between atoms: O1_2  and  C2_3
REMARK    2  A    between atoms: C20_24  and  C21_25
REMARK    3  A    between atoms: C21_25  and  O3_26
REMARK    4  A    between atoms: C24_31  and  O5_32
ROOT
HETATM    1  C2  UNL     1      -0.756   5.889  11.832  1.00  0.00     0.160 C
HETATM    2  C3  UNL     1      -1.284   4.488  11.730  1.00  0.00     0.024 C
HETATM    3  C4  UNL     1      -1.439   4.022  10.293  1.00  0.00     0.008 C
HETATM    4  C5  UNL     1      -1.793   2.577  10.189  1.00  0.00     0.008 C
HETATM    5  C6  UNL     1      -2.168   2.008  11.495  1.00  0.00     0.026 C
HETATM    6  C7  UNL     1      -2.783   0.680  11.540  1.00  0.00     0.080 C
HETATM    7  C8  UNL     1      -3.284   0.091  10.284  1.00  0.00     0.020 C
HETATM    8  C9  UNL     1      -3.840   0.816  12.603  1.00  0.00     0.222 C
HETATM    9  O2  UNL     1      -4.661  -0.105  12.918  1.00  0.00    -0.273 OA
HETATM   10  N1  UNL     1      -3.731   2.118  13.146  1.00  0.00    -0.351 N
ATOM     11  H1  UNL     1      -3.986   2.409  14.089  1.00  0.00     0.163 HD
HETATM   12  C10 UNL     1      -3.191   2.947  12.110  1.00  0.00     0.037 C
HETATM   13  C11 UNL     1      -4.285   3.333  11.190  1.00  0.00     0.039 C
HETATM   14  C12 UNL     1      -2.383   4.114  12.645  1.00  0.00     0.020 C
HETATM   15  C13 UNL     1      -3.358   5.181  13.009  1.00  0.00     0.008 C
HETATM   16  C14 UNL     1      -2.711   6.310  13.804  1.00  0.00     0.011 C
HETATM   17  C15 UNL     1      -2.510   7.413  12.820  1.00  0.00     0.058 C
HETATM   18  C16 UNL     1      -1.574   8.520  13.162  1.00  0.00     0.074 C
HETATM   19  C17 UNL     1      -2.252   9.837  13.410  1.00  0.00     0.072 C
HETATM   20  C18 UNL     1      -1.316  10.900  13.865  1.00  0.00    -0.074 C
HETATM   21  C19 UNL     1      -1.804  12.312  13.884  1.00  0.00     0.044 C
HETATM   22  C20 UNL     1      -0.098  10.560  14.232  1.00  0.00    -0.031 C
HETATM   23  C22 UNL     1       0.372   9.122  14.200  1.00  0.00     0.205 C
HETATM   24  O4  UNL     1      -0.659   8.227  14.188  1.00  0.00    -0.375 OA
HETATM   25  C23 UNL     1      -1.013   8.342  11.755  1.00  0.00     0.080 C
HETATM   26  C24 UNL     1      -1.687   6.991  11.617  1.00  0.00     0.093 C
ENDROOT
BRANCH  26  27
HETATM   27  O5  UNL     1      -2.547   6.911  10.509  1.00  0.00    -0.387 OA
ATOM     28  H5  UNL     1      -2.942   6.068  10.319  1.00  0.00     0.210 HD
ENDBRANCH  26  27
BRANCH   1  29
HETATM   29  O1  UNL     1       0.429   5.918  11.135  1.00  0.00    -0.387 OA
HETATM   30  C1  UNL     1       1.579   5.732  11.838  1.00  0.00     0.202 C
ENDBRANCH   1  29
BRANCH  22  31
HETATM   31  C21 UNL     1       0.892  11.555  14.697  1.00  0.00     0.200 C
BRANCH  31  32
HETATM   32  O3  UNL     1       0.994  11.733  16.037  1.00  0.00    -0.397 OA
ATOM     33  H3  UNL     1       1.807  11.458  16.443  1.00  0.00     0.209 HD
ENDBRANCH  31  32
ENDBRANCH  22  31
TORSDOF 4
ENDMDL