MODEL 5
REMARK VINA RESULT: -7.672602515      2.037      2.527
REMARK  6 active torsions:
REMARK  status: ('A' for Active; 'I' for Inactive)
REMARK    1  A    between atoms: C2_2  and  O2_4
REMARK    2  A    between atoms: O2_4  and  C3_5
REMARK    3  A    between atoms: C4_6  and  O3_7
REMARK    4  A    between atoms: C14_21  and  C15_22
REMARK    5  A    between atoms: C14_21  and  C16_24
REMARK    6  A    between atoms: C19_27  and  O5_28
ROOT
HETATM    1  C3  UNL     1      -4.481   1.847  13.956  1.00  0.00     0.169 C
HETATM    2  C4  UNL     1      -4.650   1.357  12.547  1.00  0.00     0.148 C
HETATM    3  C5  UNL     1      -3.871   2.465  11.814  1.00  0.00     0.040 C
HETATM    4  C6  UNL     1      -4.540   3.678  12.468  1.00  0.00     0.005 C
HETATM    5  C7  UNL     1      -3.803   4.928  12.210  1.00  0.00     0.021 C
HETATM    6  C8  UNL     1      -4.650   6.146  12.438  1.00  0.00     0.238 C
HETATM    7  N1  UNL     1      -3.954   7.199  11.682  1.00  0.00    -0.069 N
ATOM      8  H11 UNL     1      -4.544   8.021  11.550  1.00  0.00     0.277 HD
ATOM      9  H12 UNL     1      -3.828   6.939  10.703  1.00  0.00     0.277 HD
HETATM   10  C9  UNL     1      -2.702   7.539  12.306  1.00  0.00     0.210 C
HETATM   11  C10 UNL     1      -2.039   6.496  13.099  1.00  0.00    -0.010 C
HETATM   12  C11 UNL     1      -2.007   6.979  14.562  1.00  0.00     0.018 C
HETATM   13  C12 UNL     1      -0.558   6.573  12.687  1.00  0.00     0.013 C
HETATM   14  C13 UNL     1      -0.382   7.789  11.869  1.00  0.00     0.020 C
HETATM   15  C14 UNL     1      -1.742   8.043  11.249  1.00  0.00     0.046 C
HETATM   16  C21 UNL     1      -2.524   5.090  12.983  1.00  0.00     0.002 C
HETATM   17  C22 UNL     1      -2.532   4.338  14.297  1.00  0.00     0.007 C
HETATM   18  C23 UNL     1      -3.902   4.060  14.838  1.00  0.00     0.012 C
HETATM   19  C24 UNL     1      -4.793   3.325  13.879  1.00  0.00    -0.011 C
HETATM   20  C25 UNL     1      -6.231   3.611  14.262  1.00  0.00     0.018 C
ENDROOT
BRANCH  15  21
HETATM   21  C15 UNL     1      -1.859   7.316   9.978  1.00  0.00     0.243 C
HETATM   22  O4  UNL     1      -2.729   7.596   9.187  1.00  0.00    -0.306 OA
ENDBRANCH  15  21
BRANCH  15  23
HETATM   23  C16 UNL     1      -1.821   9.498  10.973  1.00  0.00     0.005 C
HETATM   24  C17 UNL     1      -0.640  10.142  10.353  1.00  0.00     0.008 C
HETATM   25  C18 UNL     1      -0.837  11.634  10.645  1.00  0.00     0.032 C
HETATM   26  C19 UNL     1      -1.965  11.741  11.618  1.00  0.00     0.118 C
HETATM   27  C20 UNL     1      -2.168  10.339  12.172  1.00  0.00     0.037 C
BRANCH  26  28
HETATM   28  O5  UNL     1      -3.131  12.126  10.921  1.00  0.00    -0.396 OA
ATOM     29  H5  UNL     1      -3.842  11.546  11.170  1.00  0.00     0.210 HD
ENDBRANCH  26  28
ENDBRANCH  15  23
BRANCH   2  30
HETATM   30  O3  UNL     1      -4.108   0.117  12.315  1.00  0.00    -0.393 OA
ATOM     31  H3  UNL     1      -3.234   0.139  11.942  1.00  0.00     0.210 HD
ENDBRANCH   2  30
BRANCH   1  32
HETATM   32  O2  UNL     1      -5.170   1.161  14.929  1.00  0.00    -0.313 OA
BRANCH  32  33
HETATM   33  C2  UNL     1      -4.775   0.889  16.214  1.00  0.00     0.255 C
HETATM   34  C1  UNL     1      -5.790   0.687  17.279  1.00  0.00     0.126 C
HETATM   35  O1  UNL     1      -3.548   0.830  16.402  1.00  0.00    -0.266 OA
ENDBRANCH  32  33
ENDBRANCH   1  32
TORSDOF 6
ENDMDL