MODEL 1
REMARK VINA RESULT: -7.593873646      0.000      0.000
REMARK  6 active torsions:
REMARK  status: ('A' for Active; 'I' for Inactive)
REMARK    1  A    between atoms: C3_3  and  O1_4
REMARK    2  A    between atoms: C9_11  and  C10_12
REMARK    3  A    between atoms: C13_16  and  O3_17
REMARK    4  A    between atoms: O3_17  and  S1_18
REMARK    5  A    between atoms: S1_18  and  N1_19
REMARK    6  A    between atoms: S1_18  and  N2_22
ROOT
HETATM    1  C1  UNL     1      -5.179   1.585  11.557  1.00  0.00     0.015 C
HETATM    2  C2  UNL     1      -4.809   2.168  12.542  1.00  0.00    -0.078 C
HETATM    3  C3  UNL     1      -4.385   2.881  13.721  1.00  0.00     0.128 C
HETATM    4  C4  UNL     1      -5.621   3.512  14.363  1.00  0.00     0.052 C
HETATM    5  C5  UNL     1      -5.491   5.006  14.174  1.00  0.00     0.010 C
HETATM    6  C6  UNL     1      -4.535   5.105  13.003  1.00  0.00     0.006 C
HETATM    7  C7  UNL     1      -3.955   6.428  12.759  1.00  0.00     0.023 C
HETATM    8  C8  UNL     1      -4.554   7.140  11.541  1.00  0.00    -0.074 C
HETATM    9  C9  UNL     1      -5.755   6.935  11.097  1.00  0.00     0.010 C
HETATM   10  C16 UNL     1      -3.491   8.019  11.073  1.00  0.00     0.035 C
HETATM   11  C17 UNL     1      -2.177   7.548  11.602  1.00  0.00     0.009 C
HETATM   12  C18 UNL     1      -2.498   6.343  12.448  1.00  0.00    -0.006 C
HETATM   13  C19 UNL     1      -2.147   5.118  11.632  1.00  0.00     0.006 C
HETATM   14  C20 UNL     1      -2.543   3.848  12.323  1.00  0.00     0.014 C
HETATM   15  C21 UNL     1      -3.508   4.089  13.416  1.00  0.00     0.003 C
HETATM   16  C22 UNL     1      -2.783   4.410  14.689  1.00  0.00     0.020 C
ENDROOT
BRANCH   3  17
HETATM   17  O1  UNL     1      -3.804   2.056  14.673  1.00  0.00    -0.377 OA
ATOM     18  H1  UNL     1      -4.035   2.296  15.563  1.00  0.00     0.211 HD
ENDBRANCH   3  17
BRANCH   9  19
HETATM   19  C10 UNL     1      -6.541   7.457  10.009  1.00  0.00    -0.059 C
HETATM   20  C11 UNL     1      -6.515   8.806   9.919  1.00  0.00     0.006 C
HETATM   21  C12 UNL     1      -7.155   9.748   8.985  1.00  0.00     0.199 C
HETATM   22  O2  UNL     1      -8.057   9.199   8.124  1.00  0.00    -0.356 OA
HETATM   23  C13 UNL     1      -7.359   8.269   7.350  1.00  0.00     0.279 C
HETATM   24  C14 UNL     1      -7.725   6.921   7.832  1.00  0.00     0.066 C
HETATM   25  C15 UNL     1      -7.232   6.495   9.162  1.00  0.00     0.043 C
BRANCH  23  26
HETATM   26  O3  UNL     1      -6.019   8.532   7.233  1.00  0.00    -0.243 OA
BRANCH  26  27
HETATM   27  S1  UNL     1      -5.311   8.737   5.720  1.00  0.00     0.229 S
HETATM   28  O4  UNL     1      -4.509  10.331   6.841  1.00  0.00    -0.199 OA
BRANCH  27  29
HETATM   29  N1  UNL     1      -4.412   7.381   5.595  1.00  0.00    -0.323 N
ATOM     30  H12 UNL     1      -4.444   6.541   6.172  1.00  0.00     0.169 HD
ATOM     31  H11 UNL     1      -3.821   7.602   4.793  1.00  0.00     0.169 HD
ENDBRANCH  27  29
BRANCH  27  32
HETATM   32  N2  UNL     1      -6.887   9.359   4.971  1.00  0.00    -0.323 N
ATOM     33  H22 UNL     1      -7.096  10.100   4.302  1.00  0.00     0.169 HD
ATOM     34  H21 UNL     1      -7.453   8.681   5.482  1.00  0.00     0.169 HD
ENDBRANCH  27  32
ENDBRANCH  26  27
ENDBRANCH  23  26
ENDBRANCH   9  19
TORSDOF 6
ENDMDL