MODEL 1
REMARK VINA RESULT: -8.253853597      0.000      0.000
REMARK  6 active torsions:
REMARK  status: ('A' for Active; 'I' for Inactive)
REMARK    1  A    between atoms: N1_2  and  C2_5
REMARK    2  A    between atoms: C7_11  and  O2_12
REMARK    3  A    between atoms: C12_18  and  C13_19
REMARK    4  A    between atoms: C13_19  and  O4_21
REMARK    5  A    between atoms: O4_21  and  C14_22
REMARK    6  A    between atoms: C24_32  and  O5_33
ROOT
HETATM    1  C2  UNL     1      -3.795   0.967  11.958  1.00  0.00     0.211 C
HETATM    2  C3  UNL     1      -5.080   1.622  12.163  1.00  0.00     0.202 C
HETATM    3  O1  UNL     1      -5.186   2.955  12.167  1.00  0.00    -0.373 OA
HETATM    4  C4  UNL     1      -4.174   3.725  12.654  1.00  0.00     0.122 A
HETATM    5  C5  UNL     1      -3.764   3.741  14.062  1.00  0.00     0.062 A
HETATM    6  C6  UNL     1      -4.279   2.754  15.071  1.00  0.00     0.017 C
HETATM    7  C7  UNL     1      -4.648   4.835  13.583  1.00  0.00     0.115 A
HETATM    8  C8  UNL     1      -4.072   6.146  13.374  1.00  0.00     0.010 C
HETATM    9  C9  UNL     1      -3.027   6.376  12.626  1.00  0.00    -0.022 C
HETATM   10  C10 UNL     1      -2.347   5.265  11.924  1.00  0.00     0.028 C
HETATM   11  C11 UNL     1      -1.648   5.873  10.751  1.00  0.00     0.015 C
HETATM   12  C12 UNL     1      -3.332   4.184  11.521  1.00  0.00     0.115 C
HETATM   13  C24 UNL     1      -2.598   2.971  10.998  1.00  0.00     0.142 C
HETATM   14  C25 UNL     1      -2.552   1.806  11.922  1.00  0.00     0.068 C
ENDROOT
BRANCH  12  15
HETATM   15  C13 UNL     1      -4.201   4.661  10.405  1.00  0.00     0.274 C
HETATM   16  O3  UNL     1      -4.101   4.201   9.217  1.00  0.00    -0.264 OA
BRANCH  15  17
HETATM   17  O4  UNL     1      -5.188   5.625  10.518  1.00  0.00    -0.314 OA
BRANCH  17  18
HETATM   18  C14 UNL     1      -5.713   6.353   9.449  1.00  0.00     0.140 C
HETATM   19  C15 UNL     1      -4.811   7.574   9.294  1.00  0.00     0.016 C
HETATM   20  C16 UNL     1      -5.126   8.328   8.024  1.00  0.00     0.012 C
HETATM   21  C20 UNL     1      -5.009   8.431  10.506  1.00  0.00     0.012 C
HETATM   22  C17 UNL     1      -6.552   8.790   8.097  1.00  0.00    -0.013 C
HETATM   23  C18 UNL     1      -6.690   9.733   9.272  1.00  0.00     0.009 C
HETATM   24  C23 UNL     1      -7.434   7.598   8.285  1.00  0.00     0.012 C
HETATM   25  C19 UNL     1      -6.429   8.971  10.534  1.00  0.00    -0.013 C
HETATM   26  C21 UNL     1      -7.344   7.788  10.709  1.00  0.00     0.012 C
HETATM   27  C22 UNL     1      -7.106   6.835   9.576  1.00  0.00     0.016 C
ENDBRANCH  17  18
ENDBRANCH  15  17
ENDBRANCH  12  15
BRANCH  13  28
HETATM   28  O5  UNL     1      -1.287   3.267  10.634  1.00  0.00    -0.394 OA
ATOM     29  H5  UNL     1      -0.854   2.529  10.222  1.00  0.00     0.210 HD
ENDBRANCH  13  28
BRANCH   7  30
HETATM   30  O2  UNL     1      -5.957   4.741  14.076  1.00  0.00    -0.382 OA
ATOM     31  H2  UNL     1      -6.230   5.395  14.709  1.00  0.00     0.211 HD
ENDBRANCH   7  30
BRANCH   1  32
HETATM   32  N1  UNL     1      -3.833   0.207  10.694  1.00  0.00    -0.073 N
HETATM   33  C1  UNL     1      -3.296  -1.106  10.830  1.00  0.00     0.267 C
ATOM     34  H12 UNL     1      -3.368   0.719   9.945  1.00  0.00     0.277 HD
ATOM     35  H11 UNL     1      -4.779   0.179  10.311  1.00  0.00     0.277 HD
ENDBRANCH   1  32
TORSDOF 6
ENDMDL