MODEL 1
REMARK VINA RESULT: -7.559005475      0.000      0.000
REMARK  6 active torsions:
REMARK  status: ('A' for Active; 'I' for Inactive)
REMARK    1  A    between atoms: C4_4  and  N1_5
REMARK    2  A    between atoms: N2_10  and  C6_11
REMARK    3  A    between atoms: C6_11  and  C7_12
REMARK    4  A    between atoms: N3_15  and  C10_16
REMARK    5  A    between atoms: C21_27  and  O1_28
REMARK    6  A    between atoms: C22_30  and  O2_31
ROOT
HETATM    1  C7  UNL     1      -7.305   8.569   7.966  1.00  0.00     0.017 C
HETATM    2  C8  UNL     1      -6.543   7.289   7.470  1.00  0.00     0.036 C
HETATM    3  C9  UNL     1      -5.518   6.912   8.460  1.00  0.00     0.273 C
HETATM    4  N3  UNL     1      -5.699   7.373   9.786  1.00  0.00     0.095 N
HETATM    5  C23 UNL     1      -6.977   7.777  10.207  1.00  0.00     0.273 C
HETATM    6  C24 UNL     1      -8.036   7.945   9.136  1.00  0.00     0.036 C
ENDROOT
BRANCH   4   7
HETATM    7  C10 UNL     1      -5.149   6.494  10.797  1.00  0.00     0.254 C
HETATM    8  C11 UNL     1      -4.283   7.339  11.691  1.00  0.00     0.039 C
HETATM    9  C12 UNL     1      -3.946   6.692  13.003  1.00  0.00     0.007 C
HETATM   10  C13 UNL     1      -3.582   5.285  13.011  1.00  0.00    -0.003 C
HETATM   11  C14 UNL     1      -2.746   5.003  14.270  1.00  0.00     0.006 C
HETATM   12  C19 UNL     1      -2.707   4.737  11.955  1.00  0.00    -0.005 C
HETATM   13  C15 UNL     1      -1.320   4.978  13.831  1.00  0.00     0.010 C
HETATM   14  C16 UNL     1      -1.275   4.959  12.326  1.00  0.00    -0.038 C
HETATM   15  C17 UNL     1      -0.342   3.889  11.827  1.00  0.00     0.015 C
HETATM   16  C18 UNL     1      -0.698   6.261  11.865  1.00  0.00     0.015 C
HETATM   17  C20 UNL     1      -2.912   3.210  12.042  1.00  0.00     0.019 C
HETATM   18  C21 UNL     1      -3.013   5.169  10.567  1.00  0.00     0.158 C
HETATM   19  C22 UNL     1      -4.474   5.283  10.258  1.00  0.00     0.181 C
BRANCH  18  20
HETATM   20  O1  UNL     1      -2.497   4.178   9.697  1.00  0.00    -0.392 OA
ATOM     21  H1  UNL     1      -3.009   4.212   8.898  1.00  0.00     0.210 HD
ENDBRANCH  18  20
BRANCH  19  22
HETATM   22  O2  UNL     1      -5.180   4.123  10.646  1.00  0.00    -0.391 OA
ATOM     23  H2  UNL     1      -4.627   3.357  10.549  1.00  0.00     0.210 HD
ENDBRANCH  19  22
ENDBRANCH   4   7
BRANCH   1  24
HETATM   24  C6  UNL     1      -8.227   9.029   6.923  1.00  0.00     0.277 C
BRANCH  24  25
HETATM   25  N2  UNL     1      -8.468  10.364   6.639  1.00  0.00     0.091 N
HETATM   26  C5  UNL     1      -9.321  11.192   7.375  1.00  0.00     0.305 C
HETATM   27  C4  UNL     1     -10.778  10.771   7.339  1.00  0.00     0.212 C
HETATM   28  C3  UNL     1     -11.155  10.239   5.977  1.00  0.00     0.040 C
HETATM   29  C2  UNL     1     -10.197  10.640   4.907  1.00  0.00     0.012 C
HETATM   30  C1  UNL     1     -10.567  12.033   4.432  1.00  0.00     0.012 C
HETATM   31  C25 UNL     1      -8.755  10.483   5.200  1.00  0.00     0.276 C
BRANCH  27  32
HETATM   32  N1  UNL     1     -11.565  11.934   7.699  1.00  0.00    -0.073 N
ATOM     33  H13 UNL     1     -11.202  12.779   7.258  1.00  0.00     0.274 HD
ATOM     34  H12 UNL     1     -12.486  11.909   7.261  1.00  0.00     0.274 HD
ATOM     35  H11 UNL     1     -11.637  12.044   8.710  1.00  0.00     0.274 HD
ENDBRANCH  27  32
ENDBRANCH  24  25
ENDBRANCH   1  24
TORSDOF 6
ENDMDL