MODEL 4
REMARK VINA RESULT: -7.200157095      1.473      3.312
REMARK  5 active torsions:
REMARK  status: ('A' for Active; 'I' for Inactive)
REMARK    1  A    between atoms: C3_3  and  O1_4
REMARK    2  A    between atoms: C16_19  and  C17_20
REMARK    3  A    between atoms: C19_22  and  O3_23
REMARK    4  A    between atoms: C23_28  and  O4_29
REMARK    5  A    between atoms: C23_28  and  C24_31
ROOT
HETATM    1  C1  UNL     1      -7.296   6.853   7.377  1.00  0.00     0.016 C
HETATM    2  C2  UNL     1      -6.579   8.165   7.202  1.00  0.00     0.051 C
HETATM    3  C3  UNL     1      -5.134   8.157   7.566  1.00  0.00     0.069 C
HETATM    4  C4  UNL     1      -4.524   6.789   7.726  1.00  0.00     0.044 C
HETATM    5  C5  UNL     1      -4.838   6.097   9.005  1.00  0.00    -0.002 A
HETATM    6  C6  UNL     1      -5.140   6.875  10.167  1.00  0.00    -0.001 A
HETATM    7  C7  UNL     1      -5.247   8.338  10.074  1.00  0.00    -0.001 C
HETATM    8  C8  UNL     1      -6.705   8.787  10.214  1.00  0.00     0.014 C
HETATM    9  C9  UNL     1      -6.957   9.740   9.145  1.00  0.00     0.031 C
HETATM   10  C10 UNL     1      -5.540  10.283   8.861  1.00  0.00    -0.009 C
HETATM   11  C11 UNL     1      -5.026  11.128   9.960  1.00  0.00     0.018 C
HETATM   12  C12 UNL     1      -5.818  10.967   7.580  1.00  0.00     0.178 C
HETATM   13  O2  UNL     1      -6.989  10.447   7.028  1.00  0.00    -0.379 OA
HETATM   14  C13 UNL     1      -7.330   9.305   7.799  1.00  0.00     0.068 C
HETATM   15  C14 UNL     1      -8.817   9.128   7.664  1.00  0.00     0.047 C
HETATM   16  C15 UNL     1      -4.802   8.972   8.783  1.00  0.00     0.036 C
HETATM   17  C16 UNL     1      -3.817   6.201  10.164  1.00  0.00    -0.000 A
ENDROOT
BRANCH  17  18
HETATM   18  C17 UNL     1      -3.570   4.910  10.849  1.00  0.00     0.005 C
HETATM   19  C18 UNL     1      -2.137   4.430  10.822  1.00  0.00     0.074 C
HETATM   20  C19 UNL     1      -1.970   3.583  12.088  1.00  0.00     0.165 C
HETATM   21  C20 UNL     1      -3.128   2.579  12.063  1.00  0.00     0.069 C
HETATM   22  O5  UNL     1      -2.006   4.345  13.245  1.00  0.00    -0.319 OA
HETATM   23  C21 UNL     1      -4.349   3.352  12.498  1.00  0.00     0.015 C
HETATM   24  C22 UNL     1      -4.080   4.851  12.301  1.00  0.00     0.053 C
HETATM   25  C23 UNL     1      -3.009   5.323  13.203  1.00  0.00     0.172 C
BRANCH  20  26
HETATM   26  O3  UNL     1      -0.762   2.940  12.001  1.00  0.00    -0.365 OA
ATOM     27  H3  UNL     1      -0.935   2.029  11.792  1.00  0.00     0.213 HD
ENDBRANCH  20  26
BRANCH  25  28
HETATM   28  O4  UNL     1      -2.344   6.432  12.605  1.00  0.00    -0.364 OA
ATOM     29  H4  UNL     1      -1.605   6.684  13.147  1.00  0.00     0.213 HD
ENDBRANCH  25  28
BRANCH  25  30
HETATM   30  C24 UNL     1      -3.332   5.746  14.567  1.00  0.00     0.040 C
HETATM   31  C25 UNL     1      -2.884   7.116  14.979  1.00  0.00     0.015 C
HETATM   32  C26 UNL     1      -4.797   5.607  14.921  1.00  0.00     0.015 C
ENDBRANCH  25  30
ENDBRANCH  17  18
BRANCH   3  33
HETATM   33  O1  UNL     1      -4.358   8.734   6.520  1.00  0.00    -0.389 OA
ATOM     34  H1  UNL     1      -4.881   9.352   6.024  1.00  0.00     0.210 HD
ENDBRANCH   3  33
TORSDOF 5
ENDMDL