MODEL 4
REMARK VINA RESULT: -6.704644304      2.438      5.905
REMARK  5 active torsions:
REMARK  status: ('A' for Active; 'I' for Inactive)
REMARK    1  A    between atoms: C17_19  and  C18_20
REMARK    2  A    between atoms: C18_20  and  O3_21
REMARK    3  A    between atoms: C18_20  and  C19_23
REMARK    4  A    between atoms: C19_23  and  O4_24
REMARK    5  A    between atoms: N1_30  and  O5_31
ROOT
HETATM    1  C1  UNL     1      -0.749   8.262  12.525  1.00  0.00     0.019 C
HETATM    2  C2  UNL     1      -1.884   7.629  12.688  1.00  0.00    -0.060 C
HETATM    3  C3  UNL     1      -2.603   7.926  14.022  1.00  0.00     0.038 C
HETATM    4  C4  UNL     1      -2.816   6.564  14.736  1.00  0.00     0.006 C
HETATM    5  C5  UNL     1      -4.027   5.817  14.480  1.00  0.00     0.016 C
HETATM    6  C6  UNL     1      -4.137   4.725  13.436  1.00  0.00     0.003 C
HETATM    7  C7  UNL     1      -5.229   3.818  14.091  1.00  0.00     0.022 C
HETATM    8  C8  UNL     1      -2.963   3.786  13.289  1.00  0.00    -0.019 C
HETATM    9  C9  UNL     1      -2.158   3.612  12.115  1.00  0.00    -0.026 C
HETATM   10  C10 UNL     1      -1.717   4.599  11.082  1.00  0.00     0.072 C
HETATM   11  C11 UNL     1      -2.692   5.750  10.872  1.00  0.00     0.117 C
HETATM   12  O1  UNL     1      -3.758   4.834  11.048  1.00  0.00    -0.363 OA
HETATM   13  C12 UNL     1      -4.624   5.110  12.131  1.00  0.00     0.171 C
HETATM   14  C13 UNL     1      -5.044   6.443  11.629  1.00  0.00     0.111 C
HETATM   15  C14 UNL     1      -6.263   7.150  11.999  1.00  0.00     0.046 C
HETATM   16  C15 UNL     1      -6.681   7.744  10.612  1.00  0.00     0.040 C
HETATM   17  C16 UNL     1      -6.320   6.697   9.705  1.00  0.00     0.155 C
HETATM   18  O2  UNL     1      -5.568   5.945  10.444  1.00  0.00    -0.366 OA
HETATM   19  C17 UNL     1      -5.463   6.726   8.485  1.00  0.00    -0.013 C
HETATM   20  C20 UNL     1      -4.030   6.304   8.710  1.00  0.00    -0.032 C
HETATM   21  C21 UNL     1      -3.648   5.536   7.721  1.00  0.00     0.021 C
HETATM   22  C22 UNL     1      -2.923   6.510   9.708  1.00  0.00     0.098 C
HETATM   23  C23 UNL     1      -1.604   6.789   8.970  1.00  0.00     0.044 C
HETATM   24  N1  UNL     1      -3.404   7.779  10.308  1.00  0.00    -0.171 NA
HETATM   25  C24 UNL     1      -3.856   7.316  11.637  1.00  0.00     0.157 C
HETATM   26  C25 UNL     1      -2.627   6.681  11.971  1.00  0.00    -0.015 C
ENDROOT
BRANCH  19  27
HETATM   27  C18 UNL     1      -5.635   7.881   7.579  1.00  0.00     0.173 C
BRANCH  27  28
HETATM   28  O3  UNL     1      -4.440   8.569   7.362  1.00  0.00    -0.389 OA
ATOM     29  H3  UNL     1      -4.581   9.430   6.986  1.00  0.00     0.210 HD
ENDBRANCH  27  28
BRANCH  27  30
HETATM   30  C19 UNL     1      -6.008   7.315   6.201  1.00  0.00     0.200 C
BRANCH  30  31
HETATM   31  O4  UNL     1      -6.735   6.156   6.297  1.00  0.00    -0.398 OA
ATOM     32  H4  UNL     1      -6.331   5.438   5.824  1.00  0.00     0.209 HD
ENDBRANCH  30  31
ENDBRANCH  27  30
ENDBRANCH  19  27
BRANCH  24  33
HETATM   33  O5  UNL     1      -2.559   8.767  10.265  1.00  0.00    -0.311 OA
ATOM     34  H5  UNL     1      -1.669   8.530  10.031  1.00  0.00     0.237 HD
ENDBRANCH  24  33
TORSDOF 5
ENDMDL