MODEL 1
REMARK VINA RESULT: -7.797661849      0.000      0.000
REMARK  5 active torsions:
REMARK  status: ('A' for Active; 'I' for Inactive)
REMARK    1  A    between atoms: C3_3  and  C4_4
REMARK    2  A    between atoms: C5_5  and  C6_6
REMARK    3  A    between atoms: C10_10  and  O1_11
REMARK    4  A    between atoms: C13_16  and  N1_17
REMARK    5  A    between atoms: C26_32  and  O3_33
ROOT
HETATM    1  C6  UNL     1      -3.665   4.689  14.383  1.00  0.00     0.066 C
HETATM    2  C7  UNL     1      -3.515   5.962  14.738  1.00  0.00     0.022 C
HETATM    3  C8  UNL     1      -2.736   6.888  13.895  1.00  0.00     0.009 C
HETATM    4  C9  UNL     1      -2.315   8.127  14.654  1.00  0.00     0.023 C
HETATM    5  C10 UNL     1      -1.478   6.040  13.562  1.00  0.00     0.161 C
HETATM    6  C11 UNL     1      -2.154   5.216  12.462  1.00  0.00     0.172 C
HETATM    7  O2  UNL     1      -3.042   4.380  13.191  1.00  0.00    -0.343 OA
HETATM    8  C12 UNL     1      -2.690   6.160  11.542  1.00  0.00     0.041 C
HETATM    9  C13 UNL     1      -1.869   6.408  10.374  1.00  0.00     0.187 C
HETATM   10  N2  UNL     1      -2.167   5.137   9.568  1.00  0.00    -0.394 N
ATOM     11  H2  UNL     1      -1.456   4.429   9.385  1.00  0.00     0.155 HD
HETATM   12  C19 UNL     1      -3.466   5.015   9.107  1.00  0.00     0.108 C
HETATM   13  C20 UNL     1      -3.761   6.056   8.073  1.00  0.00     0.027 C
HETATM   14  C21 UNL     1      -4.598   7.165   8.633  1.00  0.00     0.003 C
HETATM   15  C22 UNL     1      -4.319   7.497  10.061  1.00  0.00     0.013 C
HETATM   16  C23 UNL     1      -4.085   6.276  10.974  1.00  0.00     0.002 C
HETATM   17  C24 UNL     1      -4.589   6.679  12.281  1.00  0.00     0.020 C
HETATM   18  C25 UNL     1      -3.206   7.170  12.517  1.00  0.00     0.017 C
HETATM   19  C26 UNL     1      -4.543   5.134  10.205  1.00  0.00     0.150 C
ENDROOT
BRANCH   9  20
HETATM   20  N1  UNL     1      -0.488   6.438  10.288  1.00  0.00    -0.387 N
HETATM   21  C14 UNL     1       0.334   5.419   9.786  1.00  0.00     0.124 C
HETATM   22  C15 UNL     1       1.504   6.276   9.275  1.00  0.00     0.007 C
HETATM   23  C16 UNL     1       1.635   7.277  10.408  1.00  0.00     0.031 C
HETATM   24  C18 UNL     1       0.764   7.375   8.549  1.00  0.00     0.031 C
HETATM   25  C17 UNL     1       0.200   7.627   9.966  1.00  0.00     0.082 C
ENDBRANCH   9  20
BRANCH   5  26
HETATM   26  O1  UNL     1      -0.406   6.754  13.363  1.00  0.00    -0.392 OA
ATOM     27  H1  UNL     1       0.336   6.248  13.056  1.00  0.00     0.210 HD
ENDBRANCH   5  26
BRANCH  19  28
HETATM   28  O3  UNL     1      -4.772   3.953  10.829  1.00  0.00    -0.393 OA
ATOM     29  H3  UNL     1      -5.694   3.726  10.842  1.00  0.00     0.210 HD
ENDBRANCH  19  28
BRANCH   1  30
HETATM   30  C5  UNL     1      -4.419   3.747  15.194  1.00  0.00     0.036 C
HETATM   31  C4  UNL     1      -5.674   4.033  15.470  1.00  0.00     0.002 C
BRANCH  31  32
HETATM   32  C3  UNL     1      -6.523   3.162  16.271  1.00  0.00    -0.004 C
HETATM   33  C2  UNL     1      -6.351   1.869  16.351  1.00  0.00    -0.031 C
HETATM   34  C1  UNL     1      -7.285   1.079  17.205  1.00  0.00     0.036 C
ENDBRANCH  31  32
ENDBRANCH   1  30
TORSDOF 5
ENDMDL