MODEL 5
REMARK VINA RESULT: -7.617864179      4.276      5.119
REMARK  5 active torsions:
REMARK  status: ('A' for Active; 'I' for Inactive)
REMARK       I    between atoms: C1_2  and  N1_3
REMARK    1  A    between atoms: C1_2  and  C18_25
REMARK    2  A    between atoms: N1_3  and  N2_5
REMARK       I    between atoms: N2_5  and  C2_7
REMARK    3  A    between atoms: C2_7  and  C3_9
REMARK    4  A    between atoms: C21_28  and  C22_29
REMARK    5  A    between atoms: C22_29  and  O3_30
ROOT
HETATM    1  C3  UNL     1       0.463   4.572  10.717  1.00  0.00     0.084 C
HETATM    2  C4  UNL     1       0.919   5.997  10.905  1.00  0.00     0.015 C
HETATM    3  C5  UNL     1       1.010   6.616   9.507  1.00  0.00     0.006 C
HETATM    4  C6  UNL     1       0.777   5.470   8.613  1.00  0.00    -0.005 C
HETATM    5  C7  UNL     1      -0.266   4.666   9.389  1.00  0.00     0.003 C
HETATM    6  C8  UNL     1      -1.537   5.423   9.523  1.00  0.00     0.007 C
HETATM    7  C9  UNL     1      -1.954   6.282   8.410  1.00  0.00     0.011 C
HETATM    8  C10 UNL     1      -1.081   6.438   7.233  1.00  0.00    -0.028 C
HETATM    9  C11 UNL     1      -0.755   7.917   6.965  1.00  0.00     0.083 C
HETATM   10  S1  UNL     1      -1.003   8.351   5.229  1.00  0.00    -0.168 SA
HETATM   11  C12 UNL     1      -0.308   6.962   4.252  1.00  0.00     0.078 C
HETATM   12  C13 UNL     1      -0.935   5.710   4.821  1.00  0.00    -0.004 C
HETATM   13  C14 UNL     1       0.080   4.629   5.071  1.00  0.00     0.006 C
HETATM   14  C15 UNL     1       0.107   4.390   6.564  1.00  0.00     0.006 C
HETATM   15  C16 UNL     1       0.229   5.727   7.274  1.00  0.00    -0.001 C
HETATM   16  C17 UNL     1      -1.828   5.969   5.993  1.00  0.00     0.016 C
ENDROOT
BRANCH   1  17
HETATM   17  C2  UNL     1      -0.356   4.070  11.816  1.00  0.00     0.240 C
HETATM   18  N2  UNL     1      -0.691   4.928  12.891  1.00  0.00    -0.267 N
ATOM     19  H2  UNL     1      -0.346   5.887  12.872  1.00  0.00     0.190 HD
HETATM   20  O2  UNL     1      -0.765   2.883  11.810  1.00  0.00    -0.271 OA
BRANCH  18  21
HETATM   21  N1  UNL     1      -1.481   4.518  13.988  1.00  0.00    -0.265 N
HETATM   22  C1  UNL     1      -2.880   4.637  13.955  1.00  0.00     0.265 C
HETATM   23  O1  UNL     1      -3.470   5.103  12.962  1.00  0.00    -0.269 OA
ATOM     24  H1  UNL     1      -1.028   4.132  14.817  1.00  0.00     0.190 HD
BRANCH  22  25
HETATM   25  C18 UNL     1      -3.702   4.204  15.117  1.00  0.00     0.215 C
HETATM   26  C19 UNL     1      -5.157   4.539  14.919  1.00  0.00     0.044 C
HETATM   27  C20 UNL     1      -5.884   3.434  15.652  1.00  0.00     0.037 C
HETATM   28  C21 UNL     1      -4.731   2.608  16.163  1.00  0.00     0.146 C
HETATM   29  O4  UNL     1      -3.703   2.823  15.254  1.00  0.00    -0.369 OA
BRANCH  28  30
HETATM   30  C22 UNL     1      -5.096   1.142  16.259  1.00  0.00     0.196 C
BRANCH  30  31
HETATM   31  O3  UNL     1      -3.927   0.394  16.329  1.00  0.00    -0.398 OA
ATOM     32  H3  UNL     1      -3.607   0.242  15.447  1.00  0.00     0.209 HD
ENDBRANCH  30  31
ENDBRANCH  28  30
ENDBRANCH  22  25
ENDBRANCH  18  21
ENDBRANCH   1  17
TORSDOF 5
ENDMDL