MODEL 4
REMARK VINA RESULT: -6.175038272      1.802      2.929
REMARK  5 active torsions:
REMARK  status: ('A' for Active; 'I' for Inactive)
REMARK    1  A    between atoms: C2_2  and  C4_4
REMARK    2  A    between atoms: C7_7  and  O1_8
REMARK    3  A    between atoms: C8_10  and  O2_11
REMARK    4  A    between atoms: C14_18  and  N1_19
REMARK    5  A    between atoms: C24_30  and  O4_32
ROOT
HETATM    1  C4  UNL     1      -4.112   3.950  12.730  1.00  0.00     0.045 C
HETATM    2  C5  UNL     1      -4.111   4.869  11.504  1.00  0.00     0.027 C
HETATM    3  C6  UNL     1      -3.266   6.048  11.657  1.00  0.00     0.027 C
HETATM    4  C7  UNL     1      -2.970   5.812  13.129  1.00  0.00     0.159 C
HETATM    5  C8  UNL     1      -2.852   4.270  13.309  1.00  0.00     0.155 C
HETATM    6  C9  UNL     1      -3.952   7.417  11.448  1.00  0.00     0.018 C
HETATM    7  C10 UNL     1      -4.882   7.628  10.329  1.00  0.00    -0.036 C
HETATM    8  C11 UNL     1      -6.227   8.030  11.027  1.00  0.00     0.016 C
HETATM    9  C12 UNL     1      -5.308   6.567   9.385  1.00  0.00     0.012 C
HETATM   10  C13 UNL     1      -5.433   6.932   7.900  1.00  0.00     0.040 C
HETATM   11  C14 UNL     1      -4.227   7.627   7.382  1.00  0.00     0.256 C
HETATM   12  C17 UNL     1      -3.551   8.444   8.507  1.00  0.00     0.089 C
HETATM   13  C18 UNL     1      -2.985   9.626   7.717  1.00  0.00     0.048 C
HETATM   14  C19 UNL     1      -4.711   8.796   9.396  1.00  0.00     0.049 C
HETATM   15  O3  UNL     1      -2.672   7.673   9.135  1.00  0.00    -0.369 OA
HETATM   16  C20 UNL     1      -2.116   7.725  10.307  1.00  0.00     0.165 C
HETATM   17  C21 UNL     1      -2.745   8.397  11.476  1.00  0.00    -0.013 C
HETATM   18  C22 UNL     1      -3.145   9.816  11.454  1.00  0.00     0.018 C
HETATM   19  C23 UNL     1      -1.942   8.415  12.718  1.00  0.00     0.018 C
HETATM   20  C24 UNL     1      -2.058   6.258  10.837  1.00  0.00     0.091 C
HETATM   21  C25 UNL     1      -1.713   5.320   9.729  1.00  0.00     0.049 C
ENDROOT
BRANCH   4  22
HETATM   22  O1  UNL     1      -4.143   6.061  13.887  1.00  0.00    -0.392 OA
ATOM     23  H1  UNL     1      -4.906   5.918  13.338  1.00  0.00     0.210 HD
ENDBRANCH   4  22
BRANCH  20  24
HETATM   24  O4  UNL     1      -0.840   6.069  11.559  1.00  0.00    -0.387 OA
ATOM     25  H4  UNL     1      -0.812   5.254  12.047  1.00  0.00     0.210 HD
ENDBRANCH  20  24
BRANCH   1  26
HETATM   26  C2  UNL     1      -4.471   2.567  12.389  1.00  0.00    -0.086 C
HETATM   27  C1  UNL     1      -4.767   2.087  11.195  1.00  0.00     0.014 C
HETATM   28  C3  UNL     1      -4.508   1.589  13.521  1.00  0.00     0.043 C
ENDBRANCH   1  26
BRANCH   5  29
HETATM   29  O2  UNL     1      -1.690   3.736  12.970  1.00  0.00    -0.392 OA
ATOM     30  H2  UNL     1      -1.060   4.117  12.370  1.00  0.00     0.210 HD
ENDBRANCH   5  29
BRANCH  11  31
HETATM   31  N1  UNL     1      -3.363   6.779   6.664  1.00  0.00     0.087 N
HETATM   32  C15 UNL     1      -3.955   5.473   6.576  1.00  0.00     0.310 C
HETATM   33  C16 UNL     1      -2.937   7.172   5.377  1.00  0.00     0.310 C
ENDBRANCH  11  31
TORSDOF 5
ENDMDL