MODEL 4
REMARK VINA RESULT: -6.281630736      2.245      3.479
REMARK  6 active torsions:
REMARK  status: ('A' for Active; 'I' for Inactive)
REMARK    1  A    between atoms: C4_4  and  O1_5
REMARK    2  A    between atoms: C14_16  and  C15_17
REMARK    3  A    between atoms: C15_17  and  N1_18
REMARK    4  A    between atoms: C22_29  and  O3_30
REMARK    5  A    between atoms: C24_33  and  C25_34
REMARK    6  A    between atoms: C25_34  and  O4_35
ROOT
HETATM    1  C1  UNL     1      -2.698   6.928   5.347  1.00  0.00     0.018 C
HETATM    2  C2  UNL     1      -3.812   7.822   5.896  1.00  0.00    -0.017 C
HETATM    3  C3  UNL     1      -3.733   9.100   5.068  1.00  0.00     0.018 C
HETATM    4  C4  UNL     1      -5.102   7.094   5.704  1.00  0.00     0.127 C
HETATM    5  C5  UNL     1      -5.731   6.872   7.052  1.00  0.00     0.042 C
HETATM    6  C6  UNL     1      -4.939   7.721   8.044  1.00  0.00    -0.033 C
HETATM    7  C7  UNL     1      -5.750   9.037   8.014  1.00  0.00     0.016 C
HETATM    8  C8  UNL     1      -3.641   8.078   7.380  1.00  0.00     0.004 C
HETATM    9  C9  UNL     1      -2.411   7.469   7.931  1.00  0.00     0.007 C
HETATM   10  C10 UNL     1      -2.465   7.250   9.431  1.00  0.00     0.011 C
HETATM   11  C11 UNL     1      -3.655   6.429   9.840  1.00  0.00    -0.030 C
HETATM   12  C12 UNL     1      -3.605   5.166   9.032  1.00  0.00     0.016 C
HETATM   13  C13 UNL     1      -4.900   7.200   9.417  1.00  0.00     0.009 C
HETATM   14  C14 UNL     1      -5.071   8.151  10.533  1.00  0.00     0.017 C
HETATM   15  C16 UNL     1      -4.450   7.467  11.753  1.00  0.00     0.018 C
HETATM   16  C17 UNL     1      -3.714   6.267  11.295  1.00  0.00    -0.015 C
HETATM   17  C18 UNL     1      -2.363   6.159  11.991  1.00  0.00     0.009 C
HETATM   18  C19 UNL     1      -1.918   4.724  11.647  1.00  0.00     0.084 C
HETATM   19  C20 UNL     1      -3.167   4.003  11.520  1.00  0.00     0.134 C
HETATM   20  O2  UNL     1      -3.312   2.813  11.258  1.00  0.00    -0.297 OA
HETATM   21  C21 UNL     1      -4.289   4.956  11.765  1.00  0.00     0.093 C
HETATM   22  C22 UNL     1      -4.568   4.886  13.229  1.00  0.00     0.130 C
HETATM   23  C23 UNL     1      -3.709   5.714  14.098  1.00  0.00     0.039 C
HETATM   24  C24 UNL     1      -2.430   6.199  13.481  1.00  0.00     0.017 C
ENDROOT
BRANCH  14  25
HETATM   25  C15 UNL     1      -6.421   8.600  10.924  1.00  0.00     0.234 C
BRANCH  25  26
HETATM   26  N1  UNL     1      -7.209   7.618  11.645  1.00  0.00    -0.079 N
ATOM     27  H13 UNL     1      -6.650   7.195  12.387  1.00  0.00     0.274 HD
ATOM     28  H12 UNL     1      -7.926   8.081  12.204  1.00  0.00     0.274 HD
ATOM     29  H11 UNL     1      -7.629   6.892  11.064  1.00  0.00     0.274 HD
ENDBRANCH  25  26
ENDBRANCH  14  25
BRANCH  24  30
HETATM   30  C25 UNL     1      -1.862   7.431  14.141  1.00  0.00     0.169 C
BRANCH  30  31
HETATM   31  O4  UNL     1      -2.732   7.858  15.150  1.00  0.00    -0.400 OA
ATOM     32  H4  UNL     1      -2.942   8.775  15.015  1.00  0.00     0.209 HD
ENDBRANCH  30  31
ENDBRANCH  24  30
BRANCH  22  33
HETATM   33  O3  UNL     1      -5.921   5.124  13.458  1.00  0.00    -0.395 OA
ATOM     34  H3  UNL     1      -6.424   4.355  13.215  1.00  0.00     0.210 HD
ENDBRANCH  22  33
BRANCH   4  35
HETATM   35  O1  UNL     1      -5.925   7.768   4.809  1.00  0.00    -0.395 OA
ATOM     36  H1  UNL     1      -6.506   7.164   4.361  1.00  0.00     0.210 HD
ENDBRANCH   4  35
TORSDOF 6
ENDMDL