MODEL 2
REMARK VINA RESULT: -7.999337449      5.064      7.117
REMARK  4 active torsions:
REMARK  status: ('A' for Active; 'I' for Inactive)
REMARK    1  A    between atoms: O1_2  and  C2_3
REMARK    2  A    between atoms: C2_3  and  C3_5
REMARK    3  A    between atoms: C13_15  and  C14_16
REMARK       I    between atoms: C14_16  and  N1_18
REMARK    4  A    between atoms: N1_18  and  C15_20
ROOT
HETATM    1  C15 UNL     1      -3.908   2.798  13.304  1.00  0.00     0.179 C
HETATM    2  C16 UNL     1      -3.867   1.461  12.495  1.00  0.00     0.095 C
HETATM    3  N2  UNL     1      -3.824   0.496  11.871  1.00  0.00    -0.194 NA
HETATM    4  C17 UNL     1      -4.006   2.221  14.738  1.00  0.00     0.231 C
HETATM    5  C18 UNL     1      -3.931   3.193  15.791  1.00  0.00     0.041 C
HETATM    6  C19 UNL     1      -5.016   4.148  16.072  1.00  0.00    -0.012 C
HETATM    7  C20 UNL     1      -6.397   3.599  15.751  1.00  0.00     0.011 C
HETATM    8  C21 UNL     1      -6.006   4.005  14.300  1.00  0.00     0.021 C
HETATM    9  C22 UNL     1      -5.402   5.137  15.035  1.00  0.00     0.011 C
HETATM   10  C23 UNL     1      -5.308   3.060  13.526  1.00  0.00     0.235 C
HETATM   11  N3  UNL     1      -5.200   1.722  14.214  1.00  0.00    -0.059 N
ATOM     12  H31 UNL     1      -5.944   1.357  14.810  1.00  0.00     0.278 HD
ATOM     13  H32 UNL     1      -5.242   0.842  13.699  1.00  0.00     0.278 HD
ENDROOT
BRANCH   1  14
HETATM   14  N1  UNL     1      -2.829   3.516  12.951  1.00  0.00    -0.334 N
HETATM   15  C14 UNL     1      -1.573   3.647  12.402  1.00  0.00     0.241 C
HETATM   16  O3  UNL     1      -0.822   2.792  11.958  1.00  0.00    -0.271 OA
ATOM     17  H1  UNL     1      -3.064   4.464  13.246  1.00  0.00     0.164 HD
BRANCH  15  18
HETATM   18  C13 UNL     1      -0.966   5.090  12.319  1.00  0.00     0.170 C
HETATM   19  C12 UNL     1      -1.361   5.763  13.603  1.00  0.00     0.034 C
HETATM   20  C11 UNL     1      -2.455   6.826  13.390  1.00  0.00     0.002 C
HETATM   21  C10 UNL     1      -2.389   7.904  14.440  1.00  0.00     0.000 C
HETATM   22  C9  UNL     1      -2.112   9.206  13.703  1.00  0.00     0.000 C
HETATM   23  C8  UNL     1      -1.017   9.959  14.409  1.00  0.00     0.000 C
HETATM   24  C7  UNL     1       0.311   9.228  14.378  1.00  0.00     0.000 C
HETATM   25  C6  UNL     1       0.868   9.187  12.991  1.00  0.00     0.000 C
HETATM   26  C5  UNL     1       1.530   7.841  12.670  1.00  0.00     0.002 C
HETATM   27  C4  UNL     1       0.978   7.301  11.396  1.00  0.00     0.035 C
HETATM   28  C3  UNL     1       1.095   5.844  11.172  1.00  0.00     0.177 C
HETATM   29  N4  UNL     1       0.397   4.965  12.024  1.00  0.00    -0.397 N
ATOM     30  H4  UNL     1       0.913   4.194  12.449  1.00  0.00     0.154 HD
BRANCH  28  31
HETATM   31  C2  UNL     1       2.556   5.444  11.132  1.00  0.00     0.281 C
HETATM   32  O2  UNL     1       3.245   5.770  10.133  1.00  0.00    -0.263 OA
BRANCH  31  33
HETATM   33  O1  UNL     1       3.177   4.736  12.135  1.00  0.00    -0.325 OA
HETATM   34  C1  UNL     1       4.241   5.305  12.905  1.00  0.00     0.213 C
ENDBRANCH  31  33
ENDBRANCH  28  31
ENDBRANCH  15  18
ENDBRANCH   1  14
TORSDOF 4
ENDMDL