MODEL 1
REMARK VINA RESULT: -6.631914337      0.000      0.000
REMARK  8 active torsions:
REMARK  status: ('A' for Active; 'I' for Inactive)
REMARK    1  A    between atoms: N1_1  and  C1_4
REMARK    2  A    between atoms: C3_9  and  C4_10
REMARK    3  A    between atoms: C5_13  and  N5_14
REMARK    4  A    between atoms: N5_14  and  C6_16
REMARK    5  A    between atoms: C6_16  and  C7_17
REMARK    6  A    between atoms: C7_17  and  O2_18
REMARK    7  A    between atoms: C7_17  and  N6_20
REMARK    8  A    between atoms: C9_25  and  C10_26
ROOT
HETATM    1  N5  UNL     1       3.821 -30.605  -7.740  1.00  0.00    -0.371 N
ATOM      2  H5  UNL     1       4.134 -29.681  -8.037  1.00  0.00     0.161 HD
ENDROOT
BRANCH   1   3
HETATM    3  C5  UNL     1       3.733 -30.855  -6.474  1.00  0.00     0.136 A
HETATM    4  C3  UNL     1       4.899 -30.935  -5.732  1.00  0.00     0.115 A
HETATM    5  C2  UNL     1       4.869 -31.200  -4.373  1.00  0.00     0.150 A
HETATM    6  N2  UNL     1       3.656 -31.379  -3.803  1.00  0.00    -0.178 N
HETATM    7  N3  UNL     1       6.083 -31.277  -3.636  1.00  0.00    -0.081 NA
HETATM    8  C1  UNL     1       2.516 -31.305  -4.504  1.00  0.00     0.678 A
ATOM      9  H2  UNL     1       3.607 -31.576  -2.804  1.00  0.00     0.185 HD
HETATM   10  N10 UNL     1       2.566 -31.044  -5.837  1.00  0.00    -0.176 N
ATOM     11  H10 UNL     1       1.695 -30.991  -6.366  1.00  0.00     0.186 HD
BRANCH   4  12
HETATM   12  C4  UNL     1       6.197 -30.742  -6.358  1.00  0.00     0.272 C
HETATM   13  N4  UNL     1       6.882 -31.823  -6.975  1.00  0.00    -0.057 NA
HETATM   14  O1  UNL     1       6.757 -29.629  -6.379  1.00  0.00    -0.271 OA
ENDBRANCH   4  12
BRANCH   8  15
HETATM   15  N1  UNL     1       1.393 -31.479  -3.936  1.00  0.00    -0.234 N
ATOM     16  H12 UNL     1       1.310 -31.350  -2.927  1.00  0.00     0.174 HD
ATOM     17  H11 UNL     1       0.571 -31.744  -4.477  1.00  0.00     0.174 HD
ENDBRANCH   8  15
ENDBRANCH   1   3
BRANCH   1  18
HETATM   18  C6  UNL     1       3.492 -31.590  -8.752  1.00  0.00     0.174 C
BRANCH  18  19
HETATM   19  C7  UNL     1       4.477 -31.490  -9.871  1.00  0.00     0.238 C
BRANCH  19  20
HETATM   20  O2  UNL     1       5.516 -32.417  -9.620  1.00  0.00    -0.375 OA
ATOM     21  H2  UNL     1       5.755 -32.818 -10.447  1.00  0.00     0.212 HD
ENDBRANCH  19  20
BRANCH  19  22
HETATM   22  N6  UNL     1       3.884 -31.767 -11.162  1.00  0.00    -0.334 N
HETATM   23  C8  UNL     1       4.396 -31.264 -12.243  1.00  0.00     0.178 A
HETATM   24  N7  UNL     1       3.951 -31.428 -13.579  1.00  0.00    -0.326 N
HETATM   25  N9  UNL     1       5.538 -30.430 -12.264  1.00  0.00    -0.356 N
HETATM   26  C9  UNL     1       4.726 -30.765 -14.389  1.00  0.00     0.095 A
ATOM     27  H7  UNL     1       3.145 -31.983 -13.864  1.00  0.00     0.169 HD
HETATM   28  C11 UNL     1       5.792 -30.080 -13.631  1.00  0.00     0.185 A
ATOM     29  H9  UNL     1       6.082 -30.131 -11.454  1.00  0.00     0.162 HD
ATOM     30  H6  UNL     1       3.058 -32.362 -11.222  1.00  0.00     0.165 HD
BRANCH  26  31
HETATM   31  C10 UNL     1       4.601 -30.683 -15.841  1.00  0.00     0.279 C
HETATM   32  N8  UNL     1       4.017 -29.560 -16.434  1.00  0.00    -0.056 NA
HETATM   33  O3  UNL     1       5.015 -31.617 -16.557  1.00  0.00    -0.270 OA
ENDBRANCH  26  31
ENDBRANCH  19  22
ENDBRANCH  18  19
ENDBRANCH   1  18
TORSDOF 8
ENDMDL