MODEL 2
REMARK VINA RESULT: -6.845048030      1.350      1.446
REMARK  6 active torsions:
REMARK  status: ('A' for Active; 'I' for Inactive)
REMARK    1  A    between atoms: C3_8  and  N3_9
REMARK       I    between atoms: N3_9  and  C4_11
REMARK    2  A    between atoms: C4_11  and  C5_13
REMARK    3  A    between atoms: C5_13  and  N4_14
REMARK    4  A    between atoms: C5_13  and  C6_18
REMARK    5  A    between atoms: N8_27  and  C9_28
REMARK    6  A    between atoms: C9_28  and  C10_29
ROOT
HETATM    1  N1  UNL     1       0.746 -29.168  -9.391  1.00  0.00    -0.381 N
ATOM      2  H11 UNL     1       0.360 -29.021 -10.324  1.00  0.00     0.157 HD
ATOM      3  H12 UNL     1       0.284 -28.721  -8.600  1.00  0.00     0.157 HD
HETATM    4  C1  UNL     1       1.800 -29.902  -9.175  1.00  0.00     0.169 A
HETATM    5  N2  UNL     1       2.307 -30.097  -7.946  1.00  0.00    -0.332 N
ATOM      6  H2  UNL     1       1.871 -29.664  -7.132  1.00  0.00     0.168 HD
HETATM    7  C2  UNL     1       3.414 -30.880  -7.804  1.00  0.00     0.123 A
HETATM    8  C3  UNL     1       3.958 -31.096  -6.543  1.00  0.00     0.140 A
HETATM    9  N6  UNL     1       5.048 -31.862  -6.365  1.00  0.00    -0.337 N
ATOM     10  H6  UNL     1       5.442 -32.016  -5.437  1.00  0.00     0.168 HD
HETATM   11  C7  UNL     1       5.601 -32.419  -7.460  1.00  0.00     0.183 A
HETATM   12  N7  UNL     1       5.102 -32.231  -8.692  1.00  0.00    -0.336 N
ATOM     13  H7  UNL     1       5.555 -32.673  -9.491  1.00  0.00     0.168 HD
HETATM   14  C8  UNL     1       4.000 -31.459  -8.888  1.00  0.00     0.142 A
HETATM   15  N8  UNL     1       3.515 -31.283 -10.131  1.00  0.00    -0.287 N
HETATM   16  C11 UNL     1       2.423 -30.507 -10.246  1.00  0.00     0.293 A
HETATM   17  O4  UNL     1       1.953 -30.327 -11.390  1.00  0.00    -0.264 OA
ENDROOT
BRANCH   8  18
HETATM   18  N3  UNL     1       3.359 -30.520  -5.551  1.00  0.00    -0.309 N
HETATM   19  C4  UNL     1       3.996 -30.530  -4.289  1.00  0.00     0.263 C
HETATM   20  O1  UNL     1       4.014 -31.588  -3.611  1.00  0.00    -0.270 OA
ATOM     21  H3  UNL     1       2.452 -30.072  -5.676  1.00  0.00     0.170 HD
BRANCH  19  22
HETATM   22  C5  UNL     1       4.652 -29.320  -3.730  1.00  0.00     0.363 C
BRANCH  22  23
HETATM   23  N4  UNL     1       4.603 -29.308  -2.280  1.00  0.00    -0.058 N
ATOM     24  H43 UNL     1       3.700 -29.633  -1.934  1.00  0.00     0.275 HD
ATOM     25  H42 UNL     1       5.197 -30.036  -1.882  1.00  0.00     0.275 HD
ATOM     26  H41 UNL     1       4.838 -28.389  -1.903  1.00  0.00     0.275 HD
ENDBRANCH  22  23
BRANCH  22  27
HETATM   27  C6  UNL     1       6.073 -29.212  -4.152  1.00  0.00     0.271 C
HETATM   28  N5  UNL     1       7.140 -29.156  -3.213  1.00  0.00    -0.060 NA
HETATM   29  O2  UNL     1       6.402 -29.166  -5.373  1.00  0.00    -0.274 OA
ENDBRANCH  22  27
ENDBRANCH  19  22
ENDBRANCH   8  18
BRANCH  15  30
HETATM   30  C9  UNL     1       4.180 -31.920 -11.218  1.00  0.00     0.233 C
BRANCH  30  31
HETATM   31  C10 UNL     1       5.307 -31.188 -11.773  1.00  0.00     0.249 C
HETATM   32  N9  UNL     1       6.628 -31.583 -11.458  1.00  0.00    -0.061 NA
HETATM   33  O3  UNL     1       5.131 -30.211 -12.529  1.00  0.00    -0.275 OA
ENDBRANCH  30  31
ENDBRANCH  15  30
TORSDOF 6
ENDMDL