MODEL 3
REMARK VINA RESULT: -6.965645035      1.780      2.840
REMARK  7 active torsions:
REMARK  status: ('A' for Active; 'I' for Inactive)
REMARK    1  A    between atoms: N1_2  and  C2_4
REMARK    2  A    between atoms: C5_11  and  N4_12
REMARK    3  A    between atoms: N4_12  and  C6_14
REMARK    4  A    between atoms: C6_14  and  N5_15
REMARK    5  A    between atoms: C6_14  and  C8_18
REMARK    6  A    between atoms: N5_15  and  O1_16
REMARK       I    between atoms: C8_18  and  N6_20
REMARK       I    between atoms: N6_20  and  C9_22
REMARK    7  A    between atoms: C10_27  and  N9_28
ROOT
HETATM    1  C2  UNL     1       4.000 -31.499 -11.177  1.00  0.00     0.132 A
HETATM    2  N2  UNL     1       5.189 -32.100 -10.956  1.00  0.00    -0.337 N
ATOM      3  H2  UNL     1       5.671 -32.558 -11.729  1.00  0.00     0.168 HD
HETATM    4  C3  UNL     1       5.746 -32.102  -9.729  1.00  0.00     0.182 A
HETATM    5  N3  UNL     1       5.085 -31.485  -8.715  1.00  0.00    -0.347 N
ATOM      6  H3  UNL     1       5.501 -31.482  -7.783  1.00  0.00     0.167 HD
HETATM    7  C4  UNL     1       3.907 -30.881  -8.898  1.00  0.00     0.109 A
HETATM    8  C5  UNL     1       3.224 -30.243  -7.845  1.00  0.00     0.148 A
HETATM    9  N8  UNL     1       2.038 -29.644  -8.067  1.00  0.00    -0.175 N
ATOM     10  H8  UNL     1       1.550 -29.184  -7.298  1.00  0.00     0.186 HD
HETATM   11  C10 UNL     1       1.491 -29.650  -9.306  1.00  0.00     0.678 A
HETATM   12  N10 UNL     1       2.135 -30.257 -10.319  1.00  0.00    -0.186 N
ATOM     13  H10 UNL     1       1.713 -30.256 -11.247  1.00  0.00     0.184 HD
HETATM   14  C11 UNL     1       3.320 -30.864 -10.136  1.00  0.00     0.123 A
ENDROOT
BRANCH   8  15
HETATM   15  N4  UNL     1       3.819 -30.294  -6.731  1.00  0.00    -0.346 N
ATOM     16  H4  UNL     1       4.599 -29.644  -6.633  1.00  0.00     0.163 HD
BRANCH  15  17
HETATM   17  C6  UNL     1       3.576 -31.114  -5.587  1.00  0.00     0.298 C
BRANCH  17  18
HETATM   18  N5  UNL     1       4.084 -32.464  -5.702  1.00  0.00    -0.066 NA
BRANCH  18  19
HETATM   19  O1  UNL     1       5.392 -32.468  -5.979  1.00  0.00    -0.289 OA
HETATM   20  C7  UNL     1       5.919 -33.742  -5.865  1.00  0.00     0.231 C
ENDBRANCH  18  19
ENDBRANCH  17  18
BRANCH  17  21
HETATM   21  C8  UNL     1       4.185 -30.480  -4.360  1.00  0.00     0.266 C
HETATM   22  O2  UNL     1       4.280 -29.238  -4.264  1.00  0.00    -0.269 OA
HETATM   23  N6  UNL     1       4.658 -31.287  -3.298  1.00  0.00    -0.279 N
HETATM   24  C9  UNL     1       5.225 -30.664  -2.156  1.00  0.00     0.335 C
ATOM     25  H6  UNL     1       4.592 -32.304  -3.352  1.00  0.00     0.173 HD
HETATM   26  N7  UNL     1       5.705 -31.459  -1.081  1.00  0.00    -0.040 NA
HETATM   27  O3  UNL     1       5.297 -29.405  -2.112  1.00  0.00    -0.251 OA
ENDBRANCH  17  21
ENDBRANCH  15  17
ENDBRANCH   8  15
BRANCH  11  28
HETATM   28  N9  UNL     1       0.346 -29.068  -9.507  1.00  0.00    -0.234 N
ATOM     29  H92 UNL     1      -0.377 -29.086  -8.787  1.00  0.00     0.174 HD
ATOM     30  H91 UNL     1       0.170 -28.590 -10.391  1.00  0.00     0.174 HD
ENDBRANCH  11  28
BRANCH   1  31
HETATM   31  N1  UNL     1       3.427 -31.469 -12.331  1.00  0.00    -0.379 N
HETATM   32  C1  UNL     1       4.128 -32.054 -13.454  1.00  0.00     0.147 C
ATOM     33  H1  UNL     1       2.506 -31.047 -12.450  1.00  0.00     0.160 HD
ENDBRANCH   1  31
TORSDOF 7
ENDMDL