MODEL 4
REMARK VINA RESULT: -7.360441290      5.561     10.597
REMARK  6 active torsions:
REMARK  status: ('A' for Active; 'I' for Inactive)
REMARK       I    between atoms: N1_2  and  C2_4
REMARK       I    between atoms: C2_4  and  N2_6
REMARK       I    between atoms: N2_6  and  C3_8
REMARK    1  A    between atoms: C3_8  and  C4_10
REMARK    2  A    between atoms: C4_10  and  C5_12
REMARK       I    between atoms: C5_12  and  N3_14
REMARK    3  A    between atoms: N3_14  and  N4_16
REMARK    4  A    between atoms: N4_16  and  C6_18
REMARK    5  A    between atoms: C6_18  and  O5_19
REMARK    6  A    between atoms: C6_18  and  C7_21
ROOT
HETATM    1  C5  UNL     1       4.467 -31.269 -15.010  1.00  0.00     0.315 C
HETATM    2  O4  UNL     1       3.894 -30.143 -15.229  1.00  0.00    -0.262 OA
HETATM    3  N3  UNL     1       4.190 -31.904 -13.771  1.00  0.00    -0.265 N
ATOM      4  H3  UNL     1       4.627 -32.803 -13.567  1.00  0.00     0.190 HD
ENDROOT
BRANCH   3   5
HETATM    5  N4  UNL     1       3.344 -31.339 -12.831  1.00  0.00    -0.299 N
ATOM      6  H4  UNL     1       2.388 -31.068 -13.062  1.00  0.00     0.183 HD
BRANCH   5   7
HETATM    7  C6  UNL     1       3.880 -31.159 -11.527  1.00  0.00     0.284 C
BRANCH   7   8
HETATM    8  O5  UNL     1       5.128 -30.550 -11.618  1.00  0.00    -0.370 OA
ATOM      9  H5  UNL     1       5.051 -29.633 -11.382  1.00  0.00     0.212 HD
ENDBRANCH   7   8
BRANCH   7  10
HETATM   10  C7  UNL     1       3.062 -30.474 -10.533  1.00  0.00     0.068 A
HETATM   11  C8  UNL     1       3.704 -30.174  -9.312  1.00  0.00     0.104 A
HETATM   12  C9  UNL     1       3.066 -29.542  -8.280  1.00  0.00     0.251 A
HETATM   13  O6  UNL     1       3.715 -29.305  -7.201  1.00  0.00    -0.268 OA
HETATM   14  N5  UNL     1       1.788 -29.195  -8.431  1.00  0.00    -0.275 N
HETATM   15  C10 UNL     1       1.149 -29.472  -9.586  1.00  0.00     0.327 A
ATOM     16  H5  UNL     1       1.295 -28.722  -7.674  1.00  0.00     0.173 HD
HETATM   17  O7  UNL     1      -0.047 -29.130  -9.681  1.00  0.00    -0.247 OA
HETATM   18  N6  UNL     1       1.789 -30.101 -10.612  1.00  0.00    -0.308 N
ATOM     19  H6  UNL     1       1.273 -30.293 -11.470  1.00  0.00     0.170 HD
ENDBRANCH   7  10
ENDBRANCH   5   7
ENDBRANCH   3   5
BRANCH   1  20
HETATM   20  C4  UNL     1       5.345 -31.834 -16.005  1.00  0.00     0.308 C
HETATM   21  O3  UNL     1       5.399 -33.069 -16.171  1.00  0.00    -0.276 OA
BRANCH  20  22
HETATM   22  C3  UNL     1       6.185 -30.942 -16.839  1.00  0.00     0.305 C
HETATM   23  N2  UNL     1       5.678 -30.433 -18.029  1.00  0.00    -0.272 N
HETATM   24  C2  UNL     1       6.282 -29.575 -18.948  1.00  0.00     0.322 C
ATOM     25  H2  UNL     1       4.730 -30.729 -18.264  1.00  0.00     0.174 HD
HETATM   26  N1  UNL     1       7.592 -29.080 -18.794  1.00  0.00    -0.347 N
HETATM   27  O1  UNL     1       5.628 -29.209 -19.985  1.00  0.00    -0.247 OA
HETATM   28  C1  UNL     1       8.116 -28.171 -19.843  1.00  0.00     0.151 C
ATOM     29  H1  UNL     1       8.161 -29.337 -17.988  1.00  0.00     0.163 HD
HETATM   30  O2  UNL     1       7.348 -30.661 -16.442  1.00  0.00    -0.263 OA
ENDBRANCH  20  22
ENDBRANCH   1  20
TORSDOF 6
ENDMDL