MODEL 3
REMARK VINA RESULT: -6.728628825      3.544      8.583
REMARK  9 active torsions:
REMARK  status: ('A' for Active; 'I' for Inactive)
REMARK       I    between atoms: C1_4  and  N3_6
REMARK    1  A    between atoms: C4_10  and  C5_11
REMARK    2  A    between atoms: C5_11  and  N4_12
REMARK    3  A    between atoms: C5_11  and  O1_15
REMARK    4  A    between atoms: O1_15  and  C6_16
REMARK    5  A    between atoms: C6_16  and  C7_17
REMARK    6  A    between atoms: C7_17  and  O2_18
REMARK    7  A    between atoms: C7_17  and  N5_20
REMARK    8  A    between atoms: N5_20  and  N6_21
REMARK       I    between atoms: N6_21  and  C8_23
REMARK    9  A    between atoms: C8_23  and  C9_25
ROOT
HETATM    1  C5  UNL     1       3.098 -31.350 -11.048  1.00  0.00     0.168 C
ENDROOT
BRANCH   1   2
HETATM    2  C4  UNL     1       4.060 -31.184 -12.050  1.00  0.00     0.088 A
HETATM    3  C3  UNL     1       3.860 -31.797 -13.286  1.00  0.00     0.082 A
HETATM    4  C2  UNL     1       4.896 -31.645 -14.294  1.00  0.00     0.110 A
HETATM    5  N3  UNL     1       4.559 -32.265 -15.360  1.00  0.00    -0.317 N
HETATM    6  N9  UNL     1       6.019 -30.987 -14.123  1.00  0.00    -0.338 N
HETATM    7  C1  UNL     1       4.945 -32.561 -16.572  1.00  0.00     0.187 C
ATOM      8  H3  UNL     1       3.645 -32.688 -15.206  1.00  0.00     0.170 HD
HETATM    9  N1  UNL     1       4.282 -33.283 -17.502  1.00  0.00    -0.373 N
HETATM   10  N2  UNL     1       6.202 -32.125 -17.114  1.00  0.00    -0.064 NA
ATOM     11  H12 UNL     1       4.584 -33.515 -18.449  1.00  0.00     0.158 HD
ATOM     12  H11 UNL     1       3.390 -33.593 -17.118  1.00  0.00     0.158 HD
HETATM   13  C10 UNL     1       6.158 -30.402 -12.869  1.00  0.00     0.182 A
ATOM     14  H9  UNL     1       6.731 -30.912 -14.850  1.00  0.00     0.168 HD
HETATM   15  N8  UNL     1       5.201 -30.520 -11.910  1.00  0.00    -0.349 N
ATOM     16  H8  UNL     1       5.373 -30.064 -11.015  1.00  0.00     0.167 HD
ENDBRANCH   1   2
BRANCH   1  17
HETATM   17  N4  UNL     1       1.867 -30.765 -11.198  1.00  0.00    -0.378 N
ATOM     18  H42 UNL     1       2.062 -29.770 -11.317  1.00  0.00     0.158 HD
ATOM     19  H41 UNL     1       1.032 -31.349 -11.174  1.00  0.00     0.158 HD
ENDBRANCH   1  17
BRANCH   1  20
HETATM   20  O1  UNL     1       3.037 -32.004  -9.824  1.00  0.00    -0.299 OA
BRANCH  20  21
HETATM   21  C6  UNL     1       3.504 -31.578  -8.671  1.00  0.00     0.218 C
BRANCH  21  22
HETATM   22  C7  UNL     1       2.932 -30.481  -7.868  1.00  0.00     0.261 C
BRANCH  22  23
HETATM   23  O2  UNL     1       1.604 -30.313  -8.134  1.00  0.00    -0.333 OA
ATOM     24  H2  UNL     1       1.425 -29.437  -8.456  1.00  0.00     0.220 HD
ENDBRANCH  22  23
BRANCH  22  25
HETATM   25  N5  UNL     1       3.488 -29.651  -6.969  1.00  0.00    -0.295 NA
BRANCH  25  26
HETATM   26  N6  UNL     1       4.162 -28.801  -6.143  1.00  0.00    -0.192 N
HETATM   27  C8  UNL     1       4.124 -29.773  -4.835  1.00  0.00     0.335 C
HETATM   28  O3  UNL     1       3.426 -30.657  -4.928  1.00  0.00    -0.260 OA
ATOM     29  H6  UNL     1       4.556 -27.873  -6.293  1.00  0.00     0.205 HD
BRANCH  27  30
HETATM   30  C9  UNL     1       4.949 -29.294  -3.879  1.00  0.00     0.325 C
HETATM   31  N7  UNL     1       6.378 -29.024  -4.110  1.00  0.00    -0.053 NA
HETATM   32  O4  UNL     1       4.723 -28.966  -2.679  1.00  0.00    -0.266 OA
ENDBRANCH  27  30
ENDBRANCH  25  26
ENDBRANCH  22  25
ENDBRANCH  21  22
ENDBRANCH  20  21
ENDBRANCH   1  20
TORSDOF 9
ENDMDL