MODEL 3
REMARK VINA RESULT: -7.079008757      1.922      6.672
REMARK  7 active torsions:
REMARK  status: ('A' for Active; 'I' for Inactive)
REMARK    1  A    between atoms: N1_1  and  C1_4
REMARK    2  A    between atoms: C4_11  and  N4_12
REMARK    3  A    between atoms: N4_12  and  C5_14
REMARK    4  A    between atoms: C5_14  and  C6_15
REMARK    5  A    between atoms: C6_15  and  N5_16
REMARK    6  A    between atoms: C6_15  and  N6_20
REMARK    7  A    between atoms: N6_20  and  N7_21
REMARK       I    between atoms: N6_20  and  C7_24
ROOT
HETATM    1  C1  UNL     1       4.252 -31.101  -3.735  1.00  0.00     0.118 A
HETATM    2  N2  UNL     1       2.928 -30.979  -3.932  1.00  0.00    -0.338 N
ATOM      3  H2  UNL     1       2.319 -30.822  -3.130  1.00  0.00     0.168 HD
HETATM    4  C2  UNL     1       2.386 -31.060  -5.160  1.00  0.00     0.182 A
HETATM    5  N3  UNL     1       3.157 -31.267  -6.238  1.00  0.00    -0.348 N
ATOM      6  H3  UNL     1       2.727 -31.324  -7.161  1.00  0.00     0.167 HD
HETATM    7  C3  UNL     1       4.464 -31.396  -6.121  1.00  0.00     0.097 A
HETATM    8  C4  UNL     1       5.055 -31.596  -7.339  1.00  0.00     0.137 C
HETATM    9  N9  UNL     1       6.353 -31.253  -7.602  1.00  0.00    -0.292 N
ATOM     10  H9  UNL     1       6.579 -31.121  -8.587  1.00  0.00     0.172 HD
HETATM   11  C8  UNL     1       7.377 -31.064  -6.742  1.00  0.00     0.328 C
HETATM   12  O2  UNL     1       8.474 -30.672  -7.215  1.00  0.00    -0.247 OA
HETATM   13  N10 UNL     1       7.396 -31.240  -5.403  1.00  0.00    -0.275 N
ATOM     14  H10 UNL     1       8.327 -31.232  -4.986  1.00  0.00     0.173 HD
HETATM   15  C9  UNL     1       6.397 -31.422  -4.532  1.00  0.00     0.265 C
HETATM   16  O3  UNL     1       6.606 -31.707  -3.348  1.00  0.00    -0.267 OA
HETATM   17  C10 UNL     1       5.040 -31.313  -4.844  1.00  0.00     0.106 A
ENDROOT
BRANCH   8  18
HETATM   18  N4  UNL     1       4.441 -32.104  -8.259  1.00  0.00    -0.350 N
ATOM     19  H4  UNL     1       4.145 -33.031  -7.953  1.00  0.00     0.166 HD
BRANCH  18  20
HETATM   20  C5  UNL     1       3.986 -31.929  -9.547  1.00  0.00     0.118 C
BRANCH  20  21
HETATM   21  C6  UNL     1       3.843 -30.512 -10.037  1.00  0.00     0.346 C
BRANCH  21  22
HETATM   22  N5  UNL     1       4.482 -30.301 -11.322  1.00  0.00    -0.052 N
ATOM     23  H53 UNL     1       4.926 -31.157 -11.656  1.00  0.00     0.277 HD
ATOM     24  H52 UNL     1       3.789 -30.176 -12.060  1.00  0.00     0.277 HD
ATOM     25  H51 UNL     1       5.146 -29.527 -11.307  1.00  0.00     0.277 HD
ENDBRANCH  21  22
BRANCH  21  26
HETATM   26  N6  UNL     1       2.442 -30.175 -10.202  1.00  0.00    -0.215 N
HETATM   27  C7  UNL     1       1.751 -29.377  -9.244  1.00  0.00     0.351 C
HETATM   28  N8  UNL     1       0.379 -29.070  -9.444  1.00  0.00    -0.038 NA
HETATM   29  O1  UNL     1       2.368 -28.963  -8.244  1.00  0.00    -0.249 OA
BRANCH  26  30
HETATM   30  N7  UNL     1       1.750 -30.653 -11.346  1.00  0.00    -0.337 N
ATOM     31  H72 UNL     1       0.745 -30.501 -11.426  1.00  0.00     0.177 HD
ATOM     32  H71 UNL     1       2.274 -31.144 -12.071  1.00  0.00     0.177 HD
ENDBRANCH  26  30
ENDBRANCH  21  26
ENDBRANCH  20  21
ENDBRANCH  18  20
ENDBRANCH   8  18
BRANCH   1  33
HETATM   33  N1  UNL     1       4.796 -31.029  -2.584  1.00  0.00    -0.385 N
ATOM     34  H12 UNL     1       4.611 -31.758  -1.896  1.00  0.00     0.157 HD
ATOM     35  H11 UNL     1       5.419 -30.270  -2.307  1.00  0.00     0.157 HD
ENDBRANCH   1  33
TORSDOF 7
ENDMDL