MODEL 4
REMARK VINA RESULT: -6.213180978      3.425      8.075
REMARK  9 active torsions:
REMARK  status: ('A' for Active; 'I' for Inactive)
REMARK    1  A    between atoms: C2_2  and  C3_3
REMARK    2  A    between atoms: C2_2  and  S1_28
REMARK    3  A    between atoms: C3_3  and  C4_4
REMARK    4  A    between atoms: C4_4  and  N1_5
REMARK    5  A    between atoms: C4_4  and  C5_9
REMARK       I    between atoms: C5_9  and  N2_11
REMARK    6  A    between atoms: N2_11  and  N3_13
REMARK       I    between atoms: N3_13  and  C6_15
REMARK    7  A    between atoms: C6_15  and  C7_17
REMARK    8  A    between atoms: S1_28  and  N7_29
REMARK    9  A    between atoms: N7_29  and  N8_30
ROOT
HETATM    1  C5  UNL     1       4.211 -31.709 -13.032  1.00  0.00     0.266 C
HETATM    2  O1  UNL     1       5.223 -32.449 -12.986  1.00  0.00    -0.269 OA
HETATM    3  N2  UNL     1       3.785 -31.217 -14.289  1.00  0.00    -0.265 N
ATOM      4  H2  UNL     1       2.959 -30.619 -14.299  1.00  0.00     0.190 HD
ENDROOT
BRANCH   3   5
HETATM    5  N3  UNL     1       4.386 -31.474 -15.504  1.00  0.00    -0.261 N
HETATM    6  C6  UNL     1       4.347 -30.534 -16.548  1.00  0.00     0.304 C
HETATM    7  O2  UNL     1       3.755 -29.445 -16.370  1.00  0.00    -0.263 OA
ATOM      8  H3  UNL     1       4.868 -32.362 -15.646  1.00  0.00     0.190 HD
BRANCH   6   9
HETATM    9  C7  UNL     1       4.972 -30.772 -17.849  1.00  0.00     0.184 A
HETATM   10  N4  UNL     1       4.899 -31.975 -18.460  1.00  0.00    -0.290 N
HETATM   11  C8  UNL     1       5.484 -32.166 -19.654  1.00  0.00     0.329 A
ATOM     12  H4  UNL     1       4.397 -32.742 -18.013  1.00  0.00     0.172 HD
HETATM   13  O3  UNL     1       5.380 -33.321 -20.181  1.00  0.00    -0.246 OA
HETATM   14  N5  UNL     1       6.158 -31.192 -20.289  1.00  0.00    -0.260 N
HETATM   15  C9  UNL     1       6.231 -29.998 -19.683  1.00  0.00     0.329 A
ATOM     16  H5  UNL     1       6.596 -31.355 -21.196  1.00  0.00     0.175 HD
HETATM   17  O4  UNL     1       6.867 -29.062 -20.271  1.00  0.00    -0.246 OA
HETATM   18  N6  UNL     1       5.648 -29.802 -18.490  1.00  0.00    -0.290 N
ATOM     19  H6  UNL     1       5.721 -28.882 -18.052  1.00  0.00     0.172 HD
ENDBRANCH   6   9
ENDBRANCH   3   5
BRANCH   1  20
HETATM   20  C4  UNL     1       3.512 -31.383 -11.794  1.00  0.00     0.277 C
BRANCH  20  21
HETATM   21  C3  UNL     1       4.398 -31.450 -10.571  1.00  0.00     0.059 C
BRANCH  21  22
HETATM   22  C2  UNL     1       3.682 -30.957  -9.368  1.00  0.00     0.065 C
HETATM   23  C1  UNL     1       3.562 -31.838  -8.178  1.00  0.00     0.022 C
BRANCH  22  24
HETATM   24  S1  UNL     1       3.020 -29.496  -9.278  1.00  0.00    -0.037 SA
BRANCH  24  25
HETATM   25  N7  UNL     1       1.484 -29.534  -8.481  1.00  0.00    -0.073 NA
BRANCH  25  26
HETATM   26  N8  UNL     1       0.417 -29.421  -9.359  1.00  0.00    -0.338 N
ATOM     27  H82 UNL     1      -0.143 -30.221  -9.651  1.00  0.00     0.173 HD
ATOM     28  H81 UNL     1       0.261 -28.463  -9.672  1.00  0.00     0.173 HD
ENDBRANCH  25  26
ENDBRANCH  24  25
ENDBRANCH  22  24
ENDBRANCH  21  22
ENDBRANCH  20  21
BRANCH  20  29
HETATM   29  N1  UNL     1       2.330 -32.176 -11.643  1.00  0.00    -0.066 N
ATOM     30  H13 UNL     1       2.464 -32.912 -10.950  1.00  0.00     0.275 HD
ATOM     31  H12 UNL     1       1.588 -31.651 -11.180  1.00  0.00     0.275 HD
ATOM     32  H11 UNL     1       2.013 -32.560 -12.533  1.00  0.00     0.275 HD
ENDBRANCH  20  29
ENDBRANCH   1  20
TORSDOF 9
ENDMDL