MODEL 4
REMARK VINA RESULT: -7.194404584      1.301      2.512
REMARK  6 active torsions:
REMARK  status: ('A' for Active; 'I' for Inactive)
REMARK    1  A    between atoms: C2_9  and  C3_10
REMARK    2  A    between atoms: C3_10  and  O1_14
REMARK    3  A    between atoms: C5_17  and  O2_18
REMARK    4  A    between atoms: O2_18  and  C6_19
REMARK    5  A    between atoms: C7_20  and  C8_21
REMARK    6  A    between atoms: C9_26  and  N7_27
ROOT
HETATM    1  N1  UNL     1       4.591 -32.537 -12.667  1.00  0.00    -0.381 N
ATOM      2  H11 UNL     1       5.319 -33.214 -12.441  1.00  0.00     0.157 HD
ATOM      3  H12 UNL     1       4.419 -32.384 -13.661  1.00  0.00     0.157 HD
HETATM    4  C1  UNL     1       3.928 -31.913 -11.728  1.00  0.00     0.165 A
HETATM    5  N2  UNL     1       2.911 -30.969 -12.044  1.00  0.00    -0.282 N
ATOM      6  H2  UNL     1       2.703 -30.783 -13.024  1.00  0.00     0.188 HD
HETATM    7  N3  UNL     1       2.205 -30.304 -11.085  1.00  0.00    -0.294 N
ATOM      8  H3  UNL     1       1.496 -29.645 -11.407  1.00  0.00     0.187 HD
HETATM    9  C2  UNL     1       2.356 -30.435  -9.764  1.00  0.00     0.114 A
HETATM   10  C4  UNL     1       3.358 -31.365  -9.313  1.00  0.00     0.073 A
HETATM   11  C5  UNL     1       3.635 -31.614  -8.081  1.00  0.00     0.161 C
HETATM   12  C11 UNL     1       4.170 -32.129 -10.328  1.00  0.00     0.231 A
HETATM   13  O5  UNL     1       5.055 -32.951  -9.965  1.00  0.00    -0.283 OA
ENDROOT
BRANCH   9  14
HETATM   14  C3  UNL     1       1.474 -29.608  -8.975  1.00  0.00     0.163 C
HETATM   15  N4  UNL     1       0.127 -29.611  -8.778  1.00  0.00    -0.378 N
ATOM     16  H42 UNL     1      -0.326 -30.357  -9.306  1.00  0.00     0.158 HD
ATOM     17  H41 UNL     1      -0.496 -29.026  -8.222  1.00  0.00     0.158 HD
BRANCH  14  18
HETATM   18  O1  UNL     1       2.061 -28.642  -8.292  1.00  0.00    -0.345 OA
ATOM     19  H1  UNL     1       2.567 -28.922  -7.538  1.00  0.00     0.219 HD
ENDBRANCH  14  18
ENDBRANCH   9  14
BRANCH  11  20
HETATM   20  O2  UNL     1       3.160 -31.163  -6.907  1.00  0.00    -0.314 OA
BRANCH  20  21
HETATM   21  C6  UNL     1       3.749 -31.328  -5.671  1.00  0.00     0.175 A
HETATM   22  C7  UNL     1       4.600 -30.390  -5.174  1.00  0.00     0.153 A
HETATM   23  N6  UNL     1       5.138 -30.631  -3.941  1.00  0.00    -0.184 N
HETATM   24  C9  UNL     1       4.873 -31.720  -3.217  1.00  0.00     0.679 A
ATOM     25  H6  UNL     1       5.779 -29.940  -3.552  1.00  0.00     0.184 HD
HETATM   26  N8  UNL     1       4.033 -32.640  -3.717  1.00  0.00    -0.154 N
HETATM   27  C10 UNL     1       3.464 -32.454  -4.944  1.00  0.00     0.296 A
ATOM     28  H8  UNL     1       3.820 -33.480  -3.179  1.00  0.00     0.187 HD
HETATM   29  O4  UNL     1       2.680 -33.361  -5.356  1.00  0.00    -0.264 OA
BRANCH  22  30
HETATM   30  C8  UNL     1       4.984 -29.166  -5.868  1.00  0.00     0.285 C
HETATM   31  N5  UNL     1       4.053 -28.141  -6.114  1.00  0.00    -0.056 NA
HETATM   32  O3  UNL     1       6.161 -29.028  -6.252  1.00  0.00    -0.269 OA
ENDBRANCH  22  30
BRANCH  24  33
HETATM   33  N7  UNL     1       5.415 -31.908  -2.038  1.00  0.00    -0.234 N
ATOM     34  H72 UNL     1       5.075 -32.661  -1.440  1.00  0.00     0.174 HD
ATOM     35  H71 UNL     1       6.174 -31.317  -1.701  1.00  0.00     0.174 HD
ENDBRANCH  24  33
ENDBRANCH  20  21
ENDBRANCH  11  20
TORSDOF 6
ENDMDL