MODEL 5
REMARK VINA RESULT: -6.393837895      1.533      2.345
REMARK  12 active torsions:
REMARK  status: ('A' for Active; 'I' for Inactive)
REMARK    1  A    between atoms: C2_2  and  C3_3
REMARK    2  A    between atoms: C3_3  and  O1_4
REMARK    3  A    between atoms: C3_3  and  N1_6
REMARK    4  A    between atoms: C4_8  and  O2_9
REMARK    5  A    between atoms: C4_8  and  N2_11
REMARK    6  A    between atoms: N2_11  and  C5_13
REMARK    7  A    between atoms: C5_13  and  C6_14
REMARK    8  A    between atoms: C5_13  and  C8_22
REMARK    9  A    between atoms: C6_14  and  C7_15
REMARK   10  A    between atoms: C7_15  and  N3_16
REMARK   11  A    between atoms: C7_15  and  O3_20
REMARK       I    between atoms: C8_22  and  N4_24
REMARK   12  A    between atoms: N4_24  and  N5_26
ROOT
HETATM    1  N2  UNL     1       4.129 -31.770  -9.151  1.00  0.00    -0.343 N
ATOM      2  H2  UNL     1       3.532 -32.577  -9.330  1.00  0.00     0.164 HD
ENDROOT
BRANCH   1   3
HETATM    3  C4  UNL     1       5.248 -31.909  -8.366  1.00  0.00     0.219 C
HETATM    4  N1  UNL     1       5.466 -32.052  -7.026  1.00  0.00    -0.303 N
ATOM      5  H1  UNL     1       6.471 -32.119  -6.867  1.00  0.00     0.171 HD
BRANCH   4   6
HETATM    6  C3  UNL     1       4.826 -32.138  -5.814  1.00  0.00     0.150 C
BRANCH   6   7
HETATM    7  C2  UNL     1       5.163 -32.104  -4.432  1.00  0.00     0.010 C
HETATM    8  C1  UNL     1       5.768 -33.246  -3.697  1.00  0.00     0.054 C
HETATM    9  C9  UNL     1       4.923 -31.006  -3.653  1.00  0.00     0.110 A
HETATM   10  C10 UNL     1       5.129 -30.697  -2.240  1.00  0.00     0.264 A
HETATM   11  C11 UNL     1       4.387 -29.678  -3.806  1.00  0.00     0.264 A
HETATM   12  O5  UNL     1       5.599 -31.329  -1.231  1.00  0.00    -0.267 OA
HETATM   13  N6  UNL     1       4.604 -29.402  -2.399  1.00  0.00    -0.289 N
ATOM     14  H6  UNL     1       4.443 -28.605  -1.784  1.00  0.00     0.172 HD
HETATM   15  O6  UNL     1       3.901 -28.938  -4.711  1.00  0.00    -0.267 OA
ENDBRANCH   6   7
BRANCH   6  16
HETATM   16  O1  UNL     1       3.502 -32.301  -6.009  1.00  0.00    -0.346 OA
ATOM     17  H1  UNL     1       3.014 -31.508  -5.821  1.00  0.00     0.219 HD
ENDBRANCH   6  16
ENDBRANCH   4   6
BRANCH   3  18
HETATM   18  O2  UNL     1       6.361 -31.900  -9.122  1.00  0.00    -0.332 OA
ATOM     19  H2  UNL     1       6.242 -32.213 -10.012  1.00  0.00     0.220 HD
ENDBRANCH   3  18
ENDBRANCH   1   3
BRANCH   1  20
HETATM   20  C5  UNL     1       3.776 -30.416  -9.755  1.00  0.00     0.183 C
BRANCH  20  21
HETATM   21  C6  UNL     1       3.745 -30.644 -11.215  1.00  0.00     0.096 C
BRANCH  21  22
HETATM   22  C7  UNL     1       3.460 -31.994 -11.725  1.00  0.00     0.318 C
BRANCH  22  23
HETATM   23  N3  UNL     1       3.731 -32.081 -13.179  1.00  0.00    -0.053 N
ATOM     24  H33 UNL     1       2.869 -32.166 -13.717  1.00  0.00     0.277 HD
ATOM     25  H32 UNL     1       4.061 -31.191 -13.553  1.00  0.00     0.277 HD
ATOM     26  H31 UNL     1       4.380 -32.840 -13.385  1.00  0.00     0.277 HD
ENDBRANCH  22  23
BRANCH  22  27
HETATM   27  O3  UNL     1       2.183 -32.447 -11.550  1.00  0.00    -0.370 OA
ATOM     28  H3  UNL     1       2.008 -33.332 -11.849  1.00  0.00     0.212 HD
ENDBRANCH  22  27
ENDBRANCH  21  22
ENDBRANCH  20  21
BRANCH  20  29
HETATM   29  C8  UNL     1       2.529 -30.024  -9.107  1.00  0.00     0.258 C
HETATM   30  O4  UNL     1       2.457 -29.918  -7.846  1.00  0.00    -0.269 OA
HETATM   31  N4  UNL     1       1.364 -29.747  -9.858  1.00  0.00    -0.275 N
ATOM     32  H4  UNL     1       1.371 -29.815 -10.876  1.00  0.00     0.189 HD
BRANCH  31  33
HETATM   33  N5  UNL     1       0.200 -29.379  -9.172  1.00  0.00    -0.343 N
ATOM     34  H52 UNL     1      -0.232 -30.033  -8.521  1.00  0.00     0.176 HD
ATOM     35  H51 UNL     1      -0.191 -28.453  -9.342  1.00  0.00     0.176 HD
ENDBRANCH  31  33
ENDBRANCH  20  29
ENDBRANCH   1  20
TORSDOF 12
ENDMDL