MODEL 4
REMARK VINA RESULT: -6.943601363      1.642      2.539
REMARK  7 active torsions:
REMARK  status: ('A' for Active; 'I' for Inactive)
REMARK    1  A    between atoms: O1_2  and  C2_3
REMARK    2  A    between atoms: C5_11  and  N3_12
REMARK    3  A    between atoms: N3_12  and  C6_14
REMARK    4  A    between atoms: C6_14  and  C7_15
REMARK    5  A    between atoms: C6_14  and  C8_18
REMARK       I    between atoms: C8_18  and  N5_20
REMARK    6  A    between atoms: N5_20  and  N6_22
REMARK    7  A    between atoms: C10_30  and  N9_31
ROOT
HETATM    1  C2  UNL     1       2.729 -30.995  -8.240  1.00  0.00     0.187 A
HETATM    2  N1  UNL     1       3.701 -31.714  -8.843  1.00  0.00    -0.326 N
ATOM      3  H1  UNL     1       4.358 -32.255  -8.279  1.00  0.00     0.168 HD
HETATM    4  C3  UNL     1       3.806 -31.719 -10.199  1.00  0.00     0.148 A
HETATM    5  C4  UNL     1       4.770 -32.429 -10.859  1.00  0.00     0.290 A
HETATM    6  O2  UNL     1       5.592 -33.104 -10.170  1.00  0.00    -0.265 OA
HETATM    7  N2  UNL     1       4.907 -32.459 -12.203  1.00  0.00    -0.154 N
ATOM      8  H2  UNL     1       5.646 -33.007 -12.646  1.00  0.00     0.187 HD
HETATM    9  C5  UNL     1       4.039 -31.745 -12.938  1.00  0.00     0.683 A
HETATM   10  N7  UNL     1       3.068 -31.030 -12.300  1.00  0.00    -0.174 N
ATOM     11  H7  UNL     1       2.414 -30.493 -12.870  1.00  0.00     0.186 HD
HETATM   12  C9  UNL     1       2.925 -30.993 -10.972  1.00  0.00     0.155 A
HETATM   13  N8  UNL     1       1.953 -30.273 -10.382  1.00  0.00    -0.323 N
ATOM     14  H8  UNL     1       1.298 -29.734 -10.948  1.00  0.00     0.169 HD
HETATM   15  C10 UNL     1       1.851 -30.271  -9.018  1.00  0.00     0.152 A
ENDROOT
BRANCH   9  16
HETATM   16  N3  UNL     1       4.125 -31.741 -14.215  1.00  0.00    -0.204 N
ATOM     17  H3  UNL     1       3.786 -32.551 -14.735  1.00  0.00     0.179 HD
BRANCH  16  18
HETATM   18  C6  UNL     1       4.689 -30.623 -14.950  1.00  0.00     0.282 C
BRANCH  18  19
HETATM   19  C7  UNL     1       4.786 -30.965 -16.408  1.00  0.00     0.263 C
HETATM   20  N4  UNL     1       4.921 -30.003 -17.435  1.00  0.00    -0.060 NA
HETATM   21  O3  UNL     1       4.744 -32.196 -16.724  1.00  0.00    -0.274 OA
ENDBRANCH  18  19
BRANCH  18  22
HETATM   22  C8  UNL     1       6.066 -30.329 -14.490  1.00  0.00     0.267 C
HETATM   23  O4  UNL     1       7.005 -31.075 -14.860  1.00  0.00    -0.269 OA
HETATM   24  N5  UNL     1       6.306 -29.228 -13.653  1.00  0.00    -0.274 N
ATOM     25  H5  UNL     1       5.516 -28.647 -13.371  1.00  0.00     0.189 HD
BRANCH  24  26
HETATM   26  N6  UNL     1       7.577 -28.895 -13.188  1.00  0.00    -0.343 N
ATOM     27  H62 UNL     1       7.952 -27.983 -13.448  1.00  0.00     0.176 HD
ATOM     28  H61 UNL     1       8.135 -29.522 -12.607  1.00  0.00     0.176 HD
ENDBRANCH  24  26
ENDBRANCH  18  22
ENDBRANCH  16  18
ENDBRANCH   9  16
BRANCH  15  29
HETATM   29  N9  UNL     1       0.925 -29.586  -8.447  1.00  0.00    -0.382 N
ATOM     30  H92 UNL     1       0.115 -29.281  -8.986  1.00  0.00     0.157 HD
ATOM     31  H91 UNL     1       1.013 -29.357  -7.457  1.00  0.00     0.157 HD
ENDBRANCH  15  29
BRANCH   1  32
HETATM   32  O1  UNL     1       2.590 -30.964  -6.870  1.00  0.00    -0.338 OA
HETATM   33  C1  UNL     1       2.951 -31.999  -6.006  1.00  0.00     0.211 C
ENDBRANCH   1  32
TORSDOF 7
ENDMDL