MODEL 5
REMARK VINA RESULT: -5.535812459      2.302      5.229
REMARK  3 active torsions:
REMARK  status: ('A' for Active; 'I' for Inactive)
REMARK    1  A    between atoms: C2_2  and  C3_3
REMARK    2  A    between atoms: C6_6  and  O1_7
REMARK    3  A    between atoms: C11_13  and  O2_14
ROOT
HETATM    1  C3  UNL     1      -2.850 -27.371 -23.441  1.00  0.00    -0.033 C
HETATM    2  C4  UNL     1      -3.365 -28.578 -22.636  1.00  0.00     0.012 C
HETATM    3  C5  UNL     1      -4.416 -28.018 -21.716  1.00  0.00     0.033 C
HETATM    4  C6  UNL     1      -5.119 -27.056 -22.695  1.00  0.00     0.123 C
HETATM    5  C7  UNL     1      -3.976 -26.426 -23.375  1.00  0.00     0.032 C
HETATM    6  C8  UNL     1      -4.228 -25.857 -24.778  1.00  0.00    -0.022 C
HETATM    7  C9  UNL     1      -5.704 -25.597 -24.899  1.00  0.00     0.013 C
HETATM    8  C10 UNL     1      -6.094 -24.310 -25.567  1.00  0.00     0.033 C
HETATM    9  C11 UNL     1      -5.848 -23.172 -24.597  1.00  0.00     0.120 C
HETATM   10  C13 UNL     1      -4.616 -23.569 -23.824  1.00  0.00     0.033 C
HETATM   11  C14 UNL     1      -3.673 -24.417 -24.697  1.00  0.00     0.013 C
HETATM   12  C15 UNL     1      -3.553 -26.728 -25.698  1.00  0.00     0.008 C
HETATM   13  C16 UNL     1      -4.439 -27.634 -26.558  1.00  0.00     0.124 C
HETATM   14  C17 UNL     1      -4.644 -26.759 -27.761  1.00  0.00     0.260 C
HETATM   15  O3  UNL     1      -5.519 -26.885 -28.669  1.00  0.00    -0.265 OA
HETATM   16  O4  UNL     1      -3.678 -25.736 -27.731  1.00  0.00    -0.310 OA
HETATM   17  C18 UNL     1      -2.702 -26.257 -26.819  1.00  0.00     0.072 C
HETATM   18  C19 UNL     1      -2.165 -27.481 -27.584  1.00  0.00     0.047 C
HETATM   19  C20 UNL     1      -1.566 -25.369 -26.595  1.00  0.00     0.047 C
HETATM   20  C21 UNL     1      -2.676 -27.685 -24.876  1.00  0.00     0.023 C
ENDROOT
BRANCH   1  21
HETATM   21  C2  UNL     1      -1.577 -26.977 -22.788  1.00  0.00     0.005 C
HETATM   22  C1  UNL     1      -0.343 -27.031 -23.592  1.00  0.00     0.006 C
ENDBRANCH   1  21
BRANCH   4  23
HETATM   23  O1  UNL     1      -5.998 -27.831 -23.356  1.00  0.00    -0.395 OA
ATOM     24  H1  UNL     1      -5.520 -28.136 -24.119  1.00  0.00     0.210 HD
ENDBRANCH   4  23
BRANCH   9  25
HETATM   25  O2  UNL     1      -5.732 -21.954 -25.221  1.00  0.00    -0.391 OA
HETATM   26  C12 UNL     1      -6.532 -21.943 -26.363  1.00  0.00     0.202 C
ENDBRANCH   9  25
TORSDOF 3
ENDMDL