MODEL 3
REMARK VINA RESULT: -5.748021441      8.131     10.499
REMARK  3 active torsions:
REMARK  status: ('A' for Active; 'I' for Inactive)
REMARK    1  A    between atoms: O1_2  and  C2_3
REMARK    2  A    between atoms: C19_21  and  O3_22
REMARK    3  A    between atoms: C19_21  and  C20_24
ROOT
HETATM    1  C2  UNL     1       3.805 -26.030 -30.188  1.00  0.00     0.127 C
HETATM    2  C3  UNL     1       4.744 -24.939 -30.630  1.00  0.00     0.037 C
HETATM    3  C4  UNL     1       5.110 -23.977 -29.483  1.00  0.00    -0.011 C
HETATM    4  C5  UNL     1       4.136 -22.841 -29.400  1.00  0.00     0.010 C
HETATM    5  C6  UNL     1       5.216 -24.829 -28.314  1.00  0.00     0.006 A
HETATM    6  C7  UNL     1       6.230 -25.136 -27.341  1.00  0.00     0.002 A
HETATM    7  C8  UNL     1       5.963 -25.919 -26.112  1.00  0.00     0.007 C
HETATM    8  C9  UNL     1       7.249 -26.528 -25.621  1.00  0.00     0.012 C
HETATM    9  C10 UNL     1       7.714 -27.732 -26.331  1.00  0.00    -0.018 C
HETATM   10  C11 UNL     1       9.103 -28.073 -25.839  1.00  0.00     0.018 C
HETATM   11  C12 UNL     1       6.824 -28.900 -25.896  1.00  0.00     0.018 C
HETATM   12  C13 UNL     1       7.642 -27.706 -27.842  1.00  0.00     0.171 C
HETATM   13  O2  UNL     1       6.343 -27.922 -28.194  1.00  0.00    -0.375 OA
HETATM   14  C14 UNL     1       5.837 -27.008 -29.071  1.00  0.00     0.137 C
HETATM   15  C15 UNL     1       4.433 -27.211 -29.528  1.00  0.00     0.040 C
HETATM   16  C16 UNL     1       3.485 -27.783 -28.494  1.00  0.00     0.015 C
HETATM   17  C17 UNL     1       6.298 -25.722 -28.617  1.00  0.00    -0.002 A
HETATM   18  C18 UNL     1       7.677 -25.501 -29.105  1.00  0.00     0.061 C
HETATM   19  C19 UNL     1       8.461 -26.676 -28.489  1.00  0.00     0.145 C
ENDROOT
BRANCH  19  20
HETATM   20  O3  UNL     1       9.241 -26.072 -27.466  1.00  0.00    -0.379 OA
ATOM     21  H3  UNL     1       9.105 -25.134 -27.536  1.00  0.00     0.211 HD
ENDBRANCH  19  20
BRANCH  19  22
HETATM   22  C20 UNL     1       9.462 -27.182 -29.458  1.00  0.00     0.159 C
HETATM   23  C21 UNL     1       9.249 -28.462 -30.181  1.00  0.00     0.094 C
HETATM   24  O4  UNL     1      10.497 -26.596 -29.718  1.00  0.00    -0.295 OA
ENDBRANCH  19  22
BRANCH   1  25
HETATM   25  O1  UNL     1       3.042 -26.505 -31.274  1.00  0.00    -0.390 OA
HETATM   26  C1  UNL     1       2.499 -25.553 -32.066  1.00  0.00     0.202 C
ENDBRANCH   1  25
TORSDOF 3
ENDMDL