MODEL 2
REMARK VINA RESULT: -5.159575857      2.785      4.857
REMARK  5 active torsions:
REMARK  status: ('A' for Active; 'I' for Inactive)
REMARK    1  A    between atoms: C2_2  and  C4_4
REMARK    2  A    between atoms: N1_14  and  C12_15
REMARK    3  A    between atoms: C12_15  and  O1_16
REMARK    4  A    between atoms: C12_15  and  C13_18
REMARK    5  A    between atoms: C13_18  and  O2_21
ROOT
HETATM    1  C4  UNL     1      -4.405 -27.626 -25.591  1.00  0.00     0.025 C
HETATM    2  C5  UNL     1      -3.239 -27.228 -24.793  1.00  0.00     0.053 A
HETATM    3  C6  UNL     1      -3.869 -26.429 -23.597  1.00  0.00     0.033 A
HETATM    4  C7  UNL     1      -4.009 -25.085 -24.052  1.00  0.00    -0.076 C
HETATM    5  C8  UNL     1      -3.179 -24.165 -23.575  1.00  0.00     0.015 C
HETATM    6  C9  UNL     1      -5.011 -24.520 -24.987  1.00  0.00     0.058 C
HETATM    7  C10 UNL     1      -6.004 -23.720 -24.231  1.00  0.00     0.098 C
HETATM    8  S1  UNL     1      -7.183 -24.889 -23.445  1.00  0.00    -0.095 SA
HETATM    9  S2  UNL     1      -6.996 -26.316 -25.065  1.00  0.00    -0.071 SA
HETATM   10  C11 UNL     1      -5.675 -25.436 -25.925  1.00  0.00     0.173 C
HETATM   11  N1  UNL     1      -4.743 -26.481 -26.420  1.00  0.00    -0.316 N
HETATM   12  C16 UNL     1      -2.828 -27.380 -23.447  1.00  0.00    -0.030 A
HETATM   13  C17 UNL     1      -3.131 -28.632 -22.631  1.00  0.00     0.016 C
HETATM   14  C18 UNL     1      -1.429 -26.879 -23.080  1.00  0.00     0.016 C
ENDROOT
BRANCH  11  15
HETATM   15  C12 UNL     1      -4.203 -26.192 -27.657  1.00  0.00     0.153 C
BRANCH  15  16
HETATM   16  O1  UNL     1      -5.085 -26.409 -28.638  1.00  0.00    -0.347 OA
ATOM     17  H1  UNL     1      -5.508 -27.254 -28.545  1.00  0.00     0.219 HD
ENDBRANCH  15  16
BRANCH  15  18
HETATM   18  C13 UNL     1      -2.955 -25.716 -28.203  1.00  0.00     0.115 C
HETATM   19  C14 UNL     1      -1.867 -26.790 -28.210  1.00  0.00     0.054 C
HETATM   20  C15 UNL     1      -2.370 -24.646 -27.240  1.00  0.00     0.054 C
BRANCH  18  21
HETATM   21  O2  UNL     1      -2.911 -25.138 -29.434  1.00  0.00    -0.382 OA
ATOM     22  H2  UNL     1      -3.166 -24.230 -29.552  1.00  0.00     0.211 HD
ENDBRANCH  18  21
ENDBRANCH  15  18
ENDBRANCH  11  15
BRANCH   1  23
HETATM   23  C2  UNL     1      -4.494 -28.946 -26.173  1.00  0.00    -0.048 C
HETATM   24  C1  UNL     1      -3.485 -29.671 -26.555  1.00  0.00     0.020 C
HETATM   25  C3  UNL     1      -5.850 -29.595 -26.317  1.00  0.00     0.049 C
ENDBRANCH   1  23
TORSDOF 5
ENDMDL