MODEL 2
REMARK VINA RESULT: -5.652650400      1.787      5.514
REMARK  5 active torsions:
REMARK  status: ('A' for Active; 'I' for Inactive)
REMARK    1  A    between atoms: C2_2  and  O1_3
REMARK    2  A    between atoms: O1_3  and  C3_4
REMARK    3  A    between atoms: C10_11  and  O2_12
REMARK    4  A    between atoms: O2_12  and  C11_13
REMARK    5  A    between atoms: C19_22  and  O4_23
ROOT
HETATM    1  C3  UNL     1      -1.186 -26.413 -27.611  1.00  0.00     0.137 C
HETATM    2  C4  UNL     1      -2.320 -25.417 -27.445  1.00  0.00     0.025 C
HETATM    3  C5  UNL     1      -3.174 -25.484 -28.653  1.00  0.00     0.014 C
HETATM    4  C6  UNL     1      -2.997 -25.727 -26.161  1.00  0.00     0.005 C
HETATM    5  C7  UNL     1      -4.460 -25.549 -26.076  1.00  0.00    -0.075 C
HETATM    6  C8  UNL     1      -5.000 -24.163 -26.200  1.00  0.00     0.044 C
HETATM    7  C9  UNL     1      -5.361 -26.502 -25.894  1.00  0.00     0.009 C
HETATM    8  C10 UNL     1      -4.966 -27.957 -25.746  1.00  0.00     0.160 C
HETATM    9  C13 UNL     1      -3.645 -28.032 -26.374  1.00  0.00     0.032 C
HETATM   10  C14 UNL     1      -2.936 -29.351 -26.431  1.00  0.00     0.013 C
HETATM   11  C15 UNL     1      -1.676 -28.868 -27.190  1.00  0.00    -0.011 C
HETATM   12  C16 UNL     1      -0.546 -29.832 -27.042  1.00  0.00     0.010 C
HETATM   13  C17 UNL     1      -1.390 -27.503 -26.645  1.00  0.00     0.032 C
HETATM   14  C18 UNL     1      -2.606 -27.133 -25.875  1.00  0.00     0.011 C
HETATM   15  C19 UNL     1      -2.398 -26.815 -24.473  1.00  0.00     0.133 C
HETATM   16  C20 UNL     1      -2.363 -25.331 -24.878  1.00  0.00     0.025 C
HETATM   17  C21 UNL     1      -1.021 -24.714 -24.866  1.00  0.00     0.014 C
ENDROOT
BRANCH   8  18
HETATM   18  O2  UNL     1      -5.893 -28.687 -26.563  1.00  0.00    -0.312 OA
BRANCH  18  19
HETATM   19  C11 UNL     1      -6.762 -29.624 -26.037  1.00  0.00     0.255 C
HETATM   20  C12 UNL     1      -6.389 -30.565 -24.950  1.00  0.00     0.126 C
HETATM   21  O3  UNL     1      -7.933 -29.641 -26.547  1.00  0.00    -0.266 OA
ENDBRANCH  18  19
ENDBRANCH   8  18
BRANCH  15  22
HETATM   22  O4  UNL     1      -3.305 -27.155 -23.519  1.00  0.00    -0.394 OA
ATOM     23  H4  UNL     1      -3.270 -27.991 -23.070  1.00  0.00     0.210 HD
ENDBRANCH  15  22
BRANCH   1  24
HETATM   24  O1  UNL     1      -0.935 -26.788 -28.928  1.00  0.00    -0.358 OA
BRANCH  24  25
HETATM   25  C2  UNL     1       0.289 -26.685 -29.555  1.00  0.00     0.125 C
HETATM   26  C1  UNL     1       1.020 -27.755 -29.750  1.00  0.00     0.037 C
ENDBRANCH  24  25
ENDBRANCH   1  24
TORSDOF 5
ENDMDL