MODEL 4
REMARK VINA RESULT: -6.813005748      1.623      2.984
REMARK  3 active torsions:
REMARK  status: ('A' for Active; 'I' for Inactive)
REMARK    1  A    between atoms: C9_10  and  C10_11
REMARK    2  A    between atoms: C10_11  and  C11_12
REMARK    3  A    between atoms: C18_20  and  O3_22
ROOT
HETATM    1  C1  UNL     1       2.120 -26.298 -31.934  1.00  0.00     0.010 C
HETATM    2  C2  UNL     1       2.329 -27.271 -30.808  1.00  0.00    -0.011 C
HETATM    3  C3  UNL     1       3.055 -26.691 -29.639  1.00  0.00     0.014 C
HETATM    4  C4  UNL     1       2.715 -27.662 -28.525  1.00  0.00     0.045 C
HETATM    5  C5  UNL     1       3.501 -28.941 -28.725  1.00  0.00     0.176 C
HETATM    6  O1  UNL     1       2.316 -29.499 -29.258  1.00  0.00    -0.378 OA
HETATM    7  C6  UNL     1       1.507 -28.429 -28.948  1.00  0.00     0.074 C
HETATM    8  C7  UNL     1       0.446 -28.684 -27.935  1.00  0.00     0.021 C
HETATM    9  C8  UNL     1       0.940 -28.337 -26.533  1.00  0.00     0.013 C
HETATM   10  C9  UNL     1      -0.837 -27.967 -28.256  1.00  0.00    -0.006 C
HETATM   11  C20 UNL     1      -0.521 -26.537 -28.572  1.00  0.00     0.005 C
HETATM   12  C21 UNL     1       0.211 -26.491 -29.877  1.00  0.00     0.008 C
HETATM   13  C22 UNL     1       1.015 -27.711 -30.178  1.00  0.00     0.025 C
ENDROOT
BRANCH  10  14
HETATM   14  C10 UNL     1      -1.907 -28.150 -27.238  1.00  0.00     0.037 C
BRANCH  14  15
HETATM   15  C11 UNL     1      -2.656 -26.878 -27.012  1.00  0.00     0.127 C
HETATM   16  O2  UNL     1      -2.688 -26.483 -25.686  1.00  0.00    -0.372 OA
HETATM   17  C12 UNL     1      -3.838 -25.753 -25.406  1.00  0.00     0.088 C
HETATM   18  C13 UNL     1      -3.614 -24.934 -24.140  1.00  0.00     0.049 C
HETATM   19  C14 UNL     1      -4.140 -24.760 -26.509  1.00  0.00     0.041 C
HETATM   20  C18 UNL     1      -4.958 -26.752 -25.211  1.00  0.00     0.085 C
HETATM   21  C15 UNL     1      -4.577 -25.571 -27.726  1.00  0.00     0.010 C
HETATM   22  C16 UNL     1      -4.111 -26.991 -27.478  1.00  0.00     0.018 C
HETATM   23  C17 UNL     1      -4.926 -27.678 -26.415  1.00  0.00     0.047 C
HETATM   24  C19 UNL     1      -6.294 -26.116 -25.012  1.00  0.00     0.049 C
BRANCH  20  25
HETATM   25  O3  UNL     1      -4.618 -27.495 -24.062  1.00  0.00    -0.387 OA
ATOM     26  H3  UNL     1      -5.125 -28.297 -24.110  1.00  0.00     0.210 HD
ENDBRANCH  20  25
ENDBRANCH  14  15
ENDBRANCH  10  14
TORSDOF 3
ENDMDL