MODEL 3
REMARK VINA RESULT: -7.245323134      4.584      7.731
REMARK  5 active torsions:
REMARK  status: ('A' for Active; 'I' for Inactive)
REMARK    1  A    between atoms: C2_2  and  O2_4
REMARK    2  A    between atoms: O2_4  and  C3_5
REMARK    3  A    between atoms: C3_5  and  C4_6
REMARK    4  A    between atoms: C4_6  and  C6_8
REMARK    5  A    between atoms: C15_17  and  O3_18
ROOT
HETATM    1  C6  UNL     1       2.388 -28.329 -29.124  1.00  0.00    -0.008 C
HETATM    2  C7  UNL     1       2.090 -29.601 -28.398  1.00  0.00     0.006 C
HETATM    3  C8  UNL     1       0.631 -29.460 -28.017  1.00  0.00     0.010 C
HETATM    4  C9  UNL     1       0.401 -27.995 -27.961  1.00  0.00    -0.036 C
HETATM    5  C10 UNL     1       1.653 -27.287 -28.265  1.00  0.00     0.015 C
HETATM    6  C11 UNL     1      -0.343 -27.554 -26.690  1.00  0.00     0.015 C
HETATM    7  C12 UNL     1      -1.566 -27.924 -27.422  1.00  0.00    -0.004 C
HETATM    8  C13 UNL     1      -2.833 -27.227 -27.235  1.00  0.00     0.001 C
HETATM    9  C14 UNL     1      -3.489 -27.693 -25.946  1.00  0.00     0.037 C
HETATM   10  C15 UNL     1      -4.967 -27.304 -26.103  1.00  0.00     0.118 C
HETATM   11  C16 UNL     1      -5.035 -25.813 -26.202  1.00  0.00     0.032 C
HETATM   12  C17 UNL     1      -4.327 -25.364 -27.486  1.00  0.00     0.012 C
HETATM   13  C18 UNL     1      -2.839 -25.750 -27.384  1.00  0.00    -0.040 C
HETATM   14  C19 UNL     1      -2.273 -24.976 -26.252  1.00  0.00     0.015 C
HETATM   15  C20 UNL     1      -2.224 -25.401 -28.719  1.00  0.00     0.010 C
HETATM   16  C21 UNL     1      -0.861 -26.021 -28.903  1.00  0.00     0.006 C
HETATM   17  C22 UNL     1      -0.851 -27.503 -28.702  1.00  0.00    -0.002 C
ENDROOT
BRANCH   1  18
HETATM   18  C4  UNL     1       3.844 -27.996 -29.244  1.00  0.00     0.010 C
HETATM   19  C5  UNL     1       4.702 -29.177 -29.595  1.00  0.00     0.012 C
BRANCH  18  20
HETATM   20  C3  UNL     1       4.017 -26.949 -30.317  1.00  0.00     0.183 C
BRANCH  20  21
HETATM   21  O2  UNL     1       3.381 -27.246 -31.517  1.00  0.00    -0.321 OA
BRANCH  21  22
HETATM   22  C2  UNL     1       2.427 -26.424 -32.055  1.00  0.00     0.254 C
HETATM   23  C1  UNL     1       0.999 -26.788 -32.113  1.00  0.00     0.126 C
HETATM   24  O1  UNL     1       2.753 -25.297 -32.532  1.00  0.00    -0.266 OA
ENDBRANCH  21  22
ENDBRANCH  20  21
ENDBRANCH  18  20
ENDBRANCH   1  18
BRANCH  10  25
HETATM   25  O3  UNL     1      -5.753 -27.823 -25.112  1.00  0.00    -0.396 OA
ATOM     26  H3  UNL     1      -6.171 -27.149 -24.589  1.00  0.00     0.210 HD
ENDBRANCH  10  25
TORSDOF 5
ENDMDL