MODEL 2
REMARK VINA RESULT: -5.959362156      5.097      8.703
REMARK  5 active torsions:
REMARK  status: ('A' for Active; 'I' for Inactive)
REMARK    1  A    between atoms: C3_3  and  O1_4
REMARK    2  A    between atoms: O1_4  and  C4_5
REMARK    3  A    between atoms: C16_18  and  O3_19
REMARK    4  A    between atoms: C19_22  and  C21_24
REMARK    5  A    between atoms: C21_24  and  O4_25
ROOT
HETATM    1  C1  UNL     1       3.170 -29.058 -27.599  1.00  0.00     0.017 C
HETATM    2  C2  UNL     1       1.943 -29.380 -27.240  1.00  0.00    -0.055 C
HETATM    3  C3  UNL     1       1.387 -30.729 -27.190  1.00  0.00     0.161 C
HETATM    4  C6  UNL     1      -0.010 -30.585 -26.591  1.00  0.00     0.043 C
HETATM    5  C7  UNL     1      -0.110 -29.216 -25.985  1.00  0.00     0.008 C
HETATM    6  C8  UNL     1       0.895 -28.457 -26.823  1.00  0.00     0.026 C
HETATM    7  C9  UNL     1      -0.274 -28.289 -27.805  1.00  0.00     0.006 C
HETATM    8  C10 UNL     1      -0.201 -27.008 -28.560  1.00  0.00     0.007 C
HETATM    9  C11 UNL     1      -1.506 -26.272 -28.465  1.00  0.00     0.010 C
HETATM   10  C12 UNL     1      -2.044 -26.116 -27.079  1.00  0.00    -0.034 C
HETATM   11  C13 UNL     1      -1.905 -24.664 -26.695  1.00  0.00     0.016 C
HETATM   12  C14 UNL     1      -1.278 -26.928 -26.051  1.00  0.00     0.023 C
HETATM   13  C15 UNL     1      -1.176 -28.315 -26.607  1.00  0.00    -0.005 C
HETATM   14  C16 UNL     1      -2.528 -28.901 -26.676  1.00  0.00     0.131 C
HETATM   15  C18 UNL     1      -3.552 -28.056 -27.394  1.00  0.00     0.044 C
HETATM   16  C19 UNL     1      -3.460 -26.589 -27.082  1.00  0.00    -0.013 C
HETATM   17  C20 UNL     1      -4.095 -26.279 -25.743  1.00  0.00     0.018 C
ENDROOT
BRANCH   3  18
HETATM   18  O1  UNL     1       1.338 -31.369 -28.457  1.00  0.00    -0.312 OA
BRANCH  18  19
HETATM   19  C4  UNL     1       1.914 -32.583 -28.725  1.00  0.00     0.255 C
HETATM   20  C5  UNL     1       3.302 -32.721 -29.258  1.00  0.00     0.126 C
HETATM   21  O2  UNL     1       1.242 -33.611 -28.512  1.00  0.00    -0.266 OA
ENDBRANCH  18  19
ENDBRANCH   3  18
BRANCH  14  22
HETATM   22  O3  UNL     1      -2.986 -29.123 -25.380  1.00  0.00    -0.390 OA
HETATM   23  C17 UNL     1      -3.885 -30.070 -25.129  1.00  0.00     0.202 C
ENDBRANCH  14  22
BRANCH  16  24
HETATM   24  C21 UNL     1      -4.253 -25.771 -28.089  1.00  0.00     0.174 C
BRANCH  24  25
HETATM   25  O4  UNL     1      -5.028 -26.568 -28.895  1.00  0.00    -0.400 OA
ATOM     26  H4  UNL     1      -5.762 -26.090 -29.263  1.00  0.00     0.209 HD
ENDBRANCH  24  25
ENDBRANCH  16  24
TORSDOF 5
ENDMDL