MODEL 5
REMARK VINA RESULT: -5.834277180      4.247      7.114
REMARK  3 active torsions:
REMARK  status: ('A' for Active; 'I' for Inactive)
REMARK    1  A    between atoms: C2_2  and  O1_3
REMARK    2  A    between atoms: O1_3  and  C3_4
REMARK    3  A    between atoms: C19_22  and  O4_23
ROOT
HETATM    1  C3  UNL     1      -3.007 -27.178 -25.083  1.00  0.00     0.132 C
HETATM    2  C4  UNL     1      -1.779 -26.810 -24.270  1.00  0.00     0.033 C
HETATM    3  C5  UNL     1      -0.878 -26.140 -25.275  1.00  0.00     0.008 C
HETATM    4  C6  UNL     1      -1.412 -26.475 -26.645  1.00  0.00     0.003 C
HETATM    5  C7  UNL     1      -0.276 -26.749 -27.551  1.00  0.00    -0.003 C
HETATM    6  C8  UNL     1      -0.687 -26.503 -28.965  1.00  0.00     0.006 C
HETATM    7  C9  UNL     1       0.207 -27.253 -29.961  1.00  0.00     0.009 C
HETATM    8  C10 UNL     1       1.536 -27.403 -29.303  1.00  0.00     0.031 C
HETATM    9  C11 UNL     1       2.661 -27.686 -30.292  1.00  0.00     0.060 C
HETATM   10  C12 UNL     1       2.768 -26.452 -31.181  1.00  0.00     0.018 C
HETATM   11  C13 UNL     1       3.883 -27.862 -29.464  1.00  0.00     0.154 C
HETATM   12  O2  UNL     1       4.955 -28.134 -29.958  1.00  0.00    -0.295 OA
HETATM   13  C14 UNL     1       3.733 -27.686 -28.000  1.00  0.00     0.247 C
HETATM   14  O3  UNL     1       2.685 -28.399 -27.461  1.00  0.00    -0.372 OA
HETATM   15  C15 UNL     1       1.515 -28.390 -28.180  1.00  0.00     0.066 C
HETATM   16  C16 UNL     1       1.373 -29.792 -28.793  1.00  0.00     0.047 C
HETATM   17  C17 UNL     1       0.319 -28.118 -27.320  1.00  0.00     0.027 C
HETATM   18  C18 UNL     1      -0.748 -29.170 -27.415  1.00  0.00     0.040 C
HETATM   19  C19 UNL     1      -1.695 -28.937 -26.229  1.00  0.00     0.129 C
HETATM   20  C20 UNL     1      -2.348 -27.596 -26.406  1.00  0.00     0.012 C
HETATM   21  C21 UNL     1      -3.445 -27.735 -27.417  1.00  0.00     0.021 C
ENDROOT
BRANCH   1  22
HETATM   22  O1  UNL     1      -3.734 -28.191 -24.517  1.00  0.00    -0.385 OA
BRANCH  22  23
HETATM   23  C2  UNL     1      -3.546 -28.351 -23.164  1.00  0.00     0.163 C
HETATM   24  C1  UNL     1      -3.355 -29.794 -22.750  1.00  0.00     0.033 C
ENDBRANCH  22  23
ENDBRANCH   1  22
BRANCH  19  25
HETATM   25  O4  UNL     1      -2.654 -29.931 -26.292  1.00  0.00    -0.395 OA
ATOM     26  H4  UNL     1      -2.422 -30.572 -25.630  1.00  0.00     0.210 HD
ENDBRANCH  19  25
TORSDOF 3
ENDMDL