MODEL 1
REMARK VINA RESULT: -6.866046024      0.000      0.000
REMARK  3 active torsions:
REMARK  status: ('A' for Active; 'I' for Inactive)
REMARK    1  A    between atoms: C3_3  and  O1_4
REMARK    2  A    between atoms: O1_4  and  C4_5
REMARK    3  A    between atoms: C11_12  and  O2_13
ROOT
HETATM    1  C1  UNL     1       0.995 -26.551 -33.262  1.00  0.00     0.014 C
HETATM    2  C2  UNL     1       1.100 -26.865 -32.116  1.00  0.00    -0.091 C
HETATM    3  C3  UNL     1       1.235 -27.239 -30.713  1.00  0.00     0.263 C
ENDROOT
BRANCH   3   4
HETATM    4  O1  UNL     1       0.020 -27.589 -30.131  1.00  0.00    -0.350 OA
BRANCH   4   5
HETATM    5  C4  UNL     1      -0.146 -26.851 -28.990  1.00  0.00     0.261 C
HETATM    6  C5  UNL     1      -1.197 -25.790 -29.193  1.00  0.00     0.061 C
HETATM    7  C6  UNL     1      -1.733 -25.193 -27.938  1.00  0.00     0.017 C
HETATM    8  C7  UNL     1      -1.841 -26.244 -26.857  1.00  0.00    -0.010 C
HETATM    9  C8  UNL     1      -2.855 -27.261 -27.374  1.00  0.00     0.018 C
HETATM   10  C9  UNL     1      -0.525 -26.991 -26.771  1.00  0.00     0.136 C
HETATM   11  C21 UNL     1      -2.197 -25.686 -25.522  1.00  0.00    -0.027 C
HETATM   12  C10 UNL     1      -0.435 -27.923 -25.635  1.00  0.00     0.065 C
HETATM   13  O4  UNL     1      -0.492 -27.759 -27.965  1.00  0.00    -0.355 OA
HETATM   14  C11 UNL     1      -1.022 -27.411 -24.328  1.00  0.00     0.126 C
HETATM   15  C12 UNL     1      -2.402 -26.883 -24.584  1.00  0.00     0.039 C
HETATM   16  C13 UNL     1      -3.252 -26.613 -23.422  1.00  0.00     0.027 C
HETATM   17  C14 UNL     1      -2.823 -27.278 -22.129  1.00  0.00     0.024 C
HETATM   18  C15 UNL     1      -4.645 -27.091 -23.665  1.00  0.00     0.136 C
HETATM   19  C18 UNL     1      -3.499 -25.171 -23.076  1.00  0.00     0.002 C
HETATM   20  O3  UNL     1      -4.926 -27.969 -24.460  1.00  0.00    -0.297 OA
HETATM   21  C16 UNL     1      -5.591 -26.358 -22.816  1.00  0.00     0.079 C
HETATM   22  C17 UNL     1      -4.816 -25.182 -22.316  1.00  0.00     0.013 C
HETATM   23  C19 UNL     1      -3.639 -24.241 -24.220  1.00  0.00     0.006 C
HETATM   24  C20 UNL     1      -3.489 -24.898 -25.567  1.00  0.00     0.011 C
HETATM   25  C22 UNL     1      -1.119 -24.769 -25.064  1.00  0.00     0.016 C
BRANCH  14  26
HETATM   26  O2  UNL     1      -1.029 -28.561 -23.499  1.00  0.00    -0.395 OA
ATOM     27  H2  UNL     1      -1.781 -29.052 -23.810  1.00  0.00     0.210 HD
ENDBRANCH  14  26
ENDBRANCH   4   5
ENDBRANCH   3   4
TORSDOF 3
ENDMDL