MODEL 3
REMARK VINA RESULT: -5.654508717      1.373      1.730
REMARK  4 active torsions:
REMARK  status: ('A' for Active; 'I' for Inactive)
REMARK    1  A    between atoms: C2_2  and  O2_4
REMARK    2  A    between atoms: O2_4  and  C3_5
REMARK    3  A    between atoms: C4_6  and  O3_7
REMARK    4  A    between atoms: C20_24  and  C21_25
ROOT
HETATM    1  C3  UNL     1      -2.659 -26.897 -27.341  1.00  0.00     0.169 C
HETATM    2  C4  UNL     1      -4.016 -26.503 -27.800  1.00  0.00     0.148 C
HETATM    3  C5  UNL     1      -5.026 -26.848 -26.768  1.00  0.00     0.040 C
HETATM    4  C6  UNL     1      -4.758 -26.312 -25.401  1.00  0.00     0.009 C
HETATM    5  C7  UNL     1      -5.543 -25.062 -25.215  1.00  0.00    -0.001 C
HETATM    6  C8  UNL     1      -7.034 -25.216 -25.195  1.00  0.00     0.006 C
HETATM    7  C9  UNL     1      -7.482 -23.870 -24.620  1.00  0.00     0.005 C
HETATM    8  C10 UNL     1      -6.253 -23.219 -24.020  1.00  0.00    -0.010 C
HETATM    9  C11 UNL     1      -5.715 -22.088 -24.797  1.00  0.00     0.011 C
HETATM   10  C12 UNL     1      -5.316 -24.393 -23.867  1.00  0.00    -0.036 C
HETATM   11  C13 UNL     1      -5.858 -25.223 -22.725  1.00  0.00     0.016 C
HETATM   12  C14 UNL     1      -3.880 -24.032 -23.720  1.00  0.00     0.015 C
HETATM   13  C15 UNL     1      -3.099 -24.590 -24.847  1.00  0.00     0.003 C
HETATM   14  C16 UNL     1      -1.614 -24.585 -24.701  1.00  0.00     0.007 C
HETATM   15  C17 UNL     1      -1.235 -25.450 -25.912  1.00  0.00     0.013 C
HETATM   16  C18 UNL     1      -2.294 -26.565 -25.952  1.00  0.00    -0.000 C
HETATM   17  C19 UNL     1      -1.552 -27.786 -25.368  1.00  0.00     0.019 C
HETATM   18  C20 UNL     1      -3.346 -26.092 -25.044  1.00  0.00     0.030 C
ENDROOT
BRANCH   1  19
HETATM   19  O2  UNL     1      -1.693 -26.288 -28.206  1.00  0.00    -0.313 OA
BRANCH  19  20
HETATM   20  C2  UNL     1      -0.741 -26.987 -28.897  1.00  0.00     0.255 C
HETATM   21  C1  UNL     1      -0.040 -26.459 -30.101  1.00  0.00     0.126 C
HETATM   22  O1  UNL     1      -0.470 -28.155 -28.451  1.00  0.00    -0.266 OA
ENDBRANCH  19  20
ENDBRANCH   1  19
BRANCH   2  23
HETATM   23  O3  UNL     1      -4.104 -25.196 -28.276  1.00  0.00    -0.393 OA
ATOM     24  H3  UNL     1      -4.993 -24.884 -28.398  1.00  0.00     0.210 HD
ENDBRANCH   2  23
BRANCH  18  25
HETATM   25  C21 UNL     1      -3.055 -26.699 -23.687  1.00  0.00     0.242 C
HETATM   26  O4  UNL     1      -3.782 -27.605 -23.273  1.00  0.00    -0.306 OA
ENDBRANCH  18  25
TORSDOF 4
ENDMDL