MODEL 2
REMARK VINA RESULT: -7.562604371      1.419      2.840
REMARK  5 active torsions:
REMARK  status: ('A' for Active; 'I' for Inactive)
REMARK    1  A    between atoms: O1_1  and  C1_3
REMARK    2  A    between atoms: C1_3  and  C2_4
REMARK    3  A    between atoms: C4_6  and  C5_7
REMARK    4  A    between atoms: C11_13  and  O2_14
REMARK    5  A    between atoms: C13_18  and  C14_19
ROOT
HETATM    1  C2  UNL     1      57.356   7.104  36.632  1.00  0.00    -0.004 A
HETATM    2  C3  UNL     1      57.437   5.751  36.280  1.00  0.00     0.022 A
HETATM    3  C4  UNL     1      57.839   5.314  35.050  1.00  0.00    -0.017 A
HETATM    4  C11 UNL     1      58.167   6.328  34.139  1.00  0.00     0.108 A
HETATM    5  C12 UNL     1      58.085   7.662  34.469  1.00  0.00     0.138 A
HETATM    6  O3  UNL     1      58.320   8.786  33.805  1.00  0.00    -0.292 OA
HETATM    7  C13 UNL     1      58.084   9.833  34.541  1.00  0.00     0.129 A
HETATM    8  N1  UNL     1      57.679   9.389  35.759  1.00  0.00    -0.337 N
ATOM      9  H1  UNL     1      57.423   9.970  36.558  1.00  0.00     0.168 HD
HETATM   10  C20 UNL     1      57.676   8.041  35.719  1.00  0.00     0.079 A
ENDROOT
BRANCH   3  11
HETATM   11  C5  UNL     1      57.638   3.926  34.623  1.00  0.00     0.021 C
HETATM   12  C6  UNL     1      58.764   2.976  34.973  1.00  0.00     0.009 C
HETATM   13  C7  UNL     1      58.223   1.545  34.841  1.00  0.00     0.001 C
HETATM   14  C8  UNL     1      57.476   1.180  36.114  1.00  0.00     0.000 C
HETATM   15  C9  UNL     1      56.842   2.462  36.574  1.00  0.00     0.001 C
HETATM   16  C10 UNL     1      56.425   3.381  35.430  1.00  0.00     0.009 C
ENDBRANCH   3  11
BRANCH   4  17
HETATM   17  O2  UNL     1      58.602   5.951  32.906  1.00  0.00    -0.357 OA
ATOM     18  H2  UNL     1      58.945   6.628  32.334  1.00  0.00     0.217 HD
ENDBRANCH   4  17
BRANCH   1  19
HETATM   19  C1  UNL     1      56.861   7.537  37.964  1.00  0.00     0.205 C
BRANCH  19  20
HETATM   20  O1  UNL     1      55.463   7.225  37.834  1.00  0.00    -0.396 OA
ATOM     21  H1  UNL     1      55.340   6.673  38.597  1.00  0.00     0.209 HD
ENDBRANCH  19  20
ENDBRANCH   1  19
BRANCH   7  22
HETATM   22  C14 UNL     1      58.181  11.292  34.225  1.00  0.00     0.061 C
HETATM   23  C15 UNL     1      56.841  11.908  34.542  1.00  0.00     0.013 C
HETATM   24  C16 UNL     1      56.963  13.281  35.143  1.00  0.00     0.001 C
HETATM   25  C17 UNL     1      58.096  14.026  34.470  1.00  0.00     0.000 C
HETATM   26  C18 UNL     1      59.411  13.383  34.772  1.00  0.00     0.001 C
HETATM   27  C19 UNL     1      59.298  11.891  35.002  1.00  0.00     0.013 C
ENDBRANCH   7  22
TORSDOF 5
ENDMDL