MODEL 3
REMARK VINA RESULT: -6.194022482      1.457      4.537
REMARK  5 active torsions:
REMARK  status: ('A' for Active; 'I' for Inactive)
REMARK    1  A    between atoms: C2_2  and  C3_4
REMARK    2  A    between atoms: C4_5  and  O2_6
REMARK    3  A    between atoms: C5_8  and  C6_9
REMARK    4  A    between atoms: C6_9  and  C7_10
REMARK    5  A    between atoms: C12_15  and  O3_16
ROOT
HETATM    1  C3  UNL     1      58.037   8.258  34.860  1.00  0.00     0.077 A
HETATM    2  C4  UNL     1      58.317   7.376  33.846  1.00  0.00     0.090 A
HETATM    3  C5  UNL     1      58.167   5.979  34.048  1.00  0.00    -0.006 A
HETATM    4  C10 UNL     1      57.743   5.545  35.253  1.00  0.00     0.020 A
HETATM    5  C11 UNL     1      57.444   6.375  36.314  1.00  0.00     0.002 A
HETATM    6  C12 UNL     1      57.600   7.731  36.089  1.00  0.00     0.090 A
HETATM    7  C13 UNL     1      56.999   5.779  37.550  1.00  0.00    -0.015 C
HETATM    8  C14 UNL     1      56.399   6.703  38.585  1.00  0.00     0.020 C
HETATM    9  C15 UNL     1      58.251   5.235  38.261  1.00  0.00     0.020 C
HETATM   10  C16 UNL     1      55.947   4.705  37.397  1.00  0.00     0.033 C
HETATM   11  C17 UNL     1      56.289   3.497  36.641  1.00  0.00     0.007 C
HETATM   12  C18 UNL     1      55.036   3.094  35.841  1.00  0.00     0.027 C
HETATM   13  C19 UNL     1      56.616   2.288  37.493  1.00  0.00     0.027 C
HETATM   14  S1  UNL     1      57.593   3.744  35.413  1.00  0.00    -0.119 SA
ENDROOT
BRANCH   3  15
HETATM   15  C6  UNL     1      58.493   5.097  32.905  1.00  0.00     0.046 C
BRANCH  15  16
HETATM   16  C7  UNL     1      59.881   4.532  32.945  1.00  0.00    -0.018 C
HETATM   17  C8  UNL     1      60.815   5.241  31.988  1.00  0.00     0.010 C
HETATM   18  C9  UNL     1      59.777   3.095  32.425  1.00  0.00     0.010 C
ENDBRANCH  15  16
ENDBRANCH   3  15
BRANCH   2  19
HETATM   19  O2  UNL     1      58.748   7.765  32.609  1.00  0.00    -0.359 OA
ATOM     20  H2  UNL     1      59.640   8.038  32.429  1.00  0.00     0.217 HD
ENDBRANCH   2  19
BRANCH   1  21
HETATM   21  C2  UNL     1      58.166   9.702  34.737  1.00  0.00     0.161 C
HETATM   22  C1  UNL     1      57.164  10.594  34.112  1.00  0.00     0.097 C
HETATM   23  O1  UNL     1      59.190  10.262  35.184  1.00  0.00    -0.293 OA
ENDBRANCH   1  21
BRANCH   6  24
HETATM   24  O3  UNL     1      57.337   8.582  37.049  1.00  0.00    -0.359 OA
ATOM     25  H3  UNL     1      57.803   9.410  37.039  1.00  0.00     0.217 HD
ENDBRANCH   6  24
TORSDOF 5
ENDMDL