MODEL 3
REMARK VINA RESULT: -6.445594779      3.315      5.978
REMARK  4 active torsions:
REMARK  status: ('A' for Active; 'I' for Inactive)
REMARK    1  A    between atoms: C2_2  and  C3_3
REMARK    2  A    between atoms: C3_3  and  C4_4
REMARK    3  A    between atoms: C10_13  and  C11_14
REMARK    4  A    between atoms: C13_17  and  O2_18
ROOT
HETATM    1  C4  UNL     1      62.286   9.255  31.928  1.00  0.00    -0.009 C
HETATM    2  N1  UNL     1      62.128   9.454  30.513  1.00  0.00    -0.354 N
ATOM      3  H1  UNL     1      61.173   9.173  30.293  1.00  0.00     0.166 HD
HETATM    4  C5  UNL     1      62.644   9.819  29.429  1.00  0.00     0.102 C
HETATM    5  N2  UNL     1      61.729   9.711  28.338  1.00  0.00    -0.087 NA
HETATM    6  C6  UNL     1      63.966  10.328  29.034  1.00  0.00     0.016 C
HETATM    7  C7  UNL     1      64.326   9.739  27.677  1.00  0.00     0.023 C
HETATM    8  C8  UNL     1      63.949  11.837  28.942  1.00  0.00     0.018 C
HETATM    9  C9  UNL     1      65.102  12.519  29.578  1.00  0.00     0.016 C
HETATM   10  C10 UNL     1      65.710  11.691  30.738  1.00  0.00    -0.007 C
HETATM   11  C15 UNL     1      66.335  10.545  29.963  1.00  0.00     0.021 C
HETATM   12  C16 UNL     1      64.964   9.916  30.045  1.00  0.00     0.007 C
HETATM   13  C17 UNL     1      64.683  10.808  31.241  1.00  0.00     0.004 C
HETATM   14  C18 UNL     1      64.700   9.972  32.429  1.00  0.00     0.016 C
HETATM   15  C19 UNL     1      63.635   8.938  32.403  1.00  0.00     0.027 C
HETATM   16  C20 UNL     1      63.652   8.145  33.714  1.00  0.00     0.016 C
ENDROOT
BRANCH  10  17
HETATM   17  C11 UNL     1      66.572  12.482  31.604  1.00  0.00    -0.022 A
HETATM   18  C12 UNL     1      66.740  13.846  31.724  1.00  0.00     0.152 A
HETATM   19  O1  UNL     1      67.659  14.089  32.628  1.00  0.00    -0.300 OA
HETATM   20  C13 UNL     1      68.123  12.978  33.132  1.00  0.00     0.183 A
HETATM   21  C14 UNL     1      67.461  11.947  32.510  1.00  0.00     0.073 A
BRANCH  20  22
HETATM   22  O2  UNL     1      69.118  12.855  34.134  1.00  0.00    -0.341 OA
ATOM     23  H2  UNL     1      69.847  12.246  34.136  1.00  0.00     0.220 HD
ENDBRANCH  20  22
ENDBRANCH  10  17
BRANCH   1  24
HETATM   24  C3  UNL     1      61.378  10.155  32.659  1.00  0.00     0.052 C
BRANCH  24  25
HETATM   25  C2  UNL     1      60.255   9.554  33.423  1.00  0.00     0.001 C
HETATM   26  C1  UNL     1      60.117  10.380  34.710  1.00  0.00     0.005 C
ENDBRANCH  24  25
ENDBRANCH   1  24
TORSDOF 4
ENDMDL