MODEL 4
REMARK VINA RESULT: -5.747171939      3.779      6.715
REMARK  7 active torsions:
REMARK  status: ('A' for Active; 'I' for Inactive)
REMARK    1  A    between atoms: N1_2  and  C3_4
REMARK    2  A    between atoms: C3_4  and  N2_5
REMARK    3  A    between atoms: N2_5  and  C4_7
REMARK    4  A    between atoms: C6_9  and  C7_10
REMARK    5  A    between atoms: C12_15  and  C13_16
REMARK    6  A    between atoms: C17_20  and  O1_21
REMARK    7  A    between atoms: O1_21  and  C18_22
ROOT
HETATM    1  C4  UNL     1      61.578   8.450  32.602  1.00  0.00     0.064 A
HETATM    2  C5  UNL     1      60.815   9.328  33.316  1.00  0.00     0.040 A
HETATM    3  C6  UNL     1      59.516   9.076  33.657  1.00  0.00    -0.048 A
HETATM    4  C11 UNL     1      58.989   7.874  33.250  1.00  0.00     0.018 A
HETATM    5  C12 UNL     1      59.691   6.899  32.511  1.00  0.00    -0.014 A
HETATM    6  C17 UNL     1      61.015   7.231  32.185  1.00  0.00     0.103 A
ENDROOT
BRANCH   1   7
HETATM    7  N2  UNL     1      62.987   8.707  32.482  1.00  0.00    -0.363 N
ATOM      8  H2  UNL     1      63.674   8.034  32.820  1.00  0.00     0.161 HD
BRANCH   7   9
HETATM    9  C3  UNL     1      63.404   9.957  31.864  1.00  0.00     0.394 C
BRANCH   9  10
HETATM   10  N1  UNL     1      64.187   9.621  30.671  1.00  0.00     0.097 N
HETATM   11  C1  UNL     1      65.596   9.851  30.987  1.00  0.00     0.311 C
HETATM   12  C2  UNL     1      63.792  10.497  29.568  1.00  0.00     0.311 C
ENDBRANCH   9  10
ENDBRANCH   7   9
ENDBRANCH   1   7
BRANCH   6  13
HETATM   13  O1  UNL     1      61.799   6.411  31.457  1.00  0.00    -0.339 OA
BRANCH  13  14
HETATM   14  C18 UNL     1      62.103   6.158  30.154  1.00  0.00     0.057 C
HETATM   15  C19 UNL     1      61.679   4.922  29.447  1.00  0.00     0.045 C
HETATM   16  C20 UNL     1      61.854   7.271  29.121  1.00  0.00     0.045 C
HETATM   17  C21 UNL     1      63.695   6.092  30.104  1.00  0.00     0.045 C
ENDBRANCH  13  14
ENDBRANCH   6  13
BRANCH   3  18
HETATM   18  C7  UNL     1      58.724  10.055  34.444  1.00  0.00    -0.024 C
HETATM   19  C8  UNL     1      59.587  11.151  35.021  1.00  0.00     0.019 C
HETATM   20  C9  UNL     1      57.568  10.610  33.651  1.00  0.00     0.019 C
HETATM   21  C10 UNL     1      58.097   9.319  35.623  1.00  0.00     0.019 C
ENDBRANCH   3  18
BRANCH   5  22
HETATM   22  C13 UNL     1      59.066   5.593  32.352  1.00  0.00    -0.021 C
HETATM   23  C14 UNL     1      57.830   5.548  33.302  1.00  0.00     0.019 C
HETATM   24  C15 UNL     1      58.497   5.133  31.076  1.00  0.00     0.019 C
HETATM   25  C16 UNL     1      59.963   4.490  32.980  1.00  0.00     0.019 C
ENDBRANCH   5  22
TORSDOF 7
ENDMDL