MODEL 4
REMARK VINA RESULT: -6.453657332      3.682      7.626
REMARK  6 active torsions:
REMARK  status: ('A' for Active; 'I' for Inactive)
REMARK    1  A    between atoms: C2_2  and  C4_4
REMARK    2  A    between atoms: C4_4  and  C5_5
REMARK    3  A    between atoms: C5_5  and  N2_8
REMARK    4  A    between atoms: C7_9  and  O1_10
REMARK    5  A    between atoms: C10_14  and  O2_15
REMARK    6  A    between atoms: C15_21  and  C17_23
ROOT
HETATM    1  C5  UNL     1      58.258   8.934  34.252  1.00  0.00     0.201 C
HETATM    2  C6  UNL     1      57.566  10.206  34.100  1.00  0.00     0.085 C
HETATM    3  N1  UNL     1      57.028  11.237  33.974  1.00  0.00    -0.195 NA
ENDROOT
BRANCH   1   4
HETATM    4  C4  UNL     1      58.452   8.649  35.726  1.00  0.00     0.044 C
BRANCH   4   5
HETATM    5  C2  UNL     1      57.353   7.740  36.205  1.00  0.00    -0.020 C
HETATM    6  C1  UNL     1      57.337   7.677  37.716  1.00  0.00     0.009 C
HETATM    7  C3  UNL     1      57.524   6.345  35.635  1.00  0.00     0.009 C
ENDBRANCH   4   5
ENDBRANCH   1   4
BRANCH   1   8
HETATM    8  N2  UNL     1      59.496   8.870  33.520  1.00  0.00    -0.289 N
HETATM    9  C7  UNL     1      60.258   9.882  33.077  1.00  0.00     0.152 A
HETATM   10  C8  UNL     1      61.362   9.399  32.420  1.00  0.00     0.009 A
HETATM   11  C9  UNL     1      61.264   8.022  32.467  1.00  0.00     0.009 A
HETATM   12  C14 UNL     1      62.643   9.687  31.664  1.00  0.00     0.033 C
HETATM   13  C10 UNL     1      60.117   7.724  33.143  1.00  0.00     0.152 A
HETATM   14  C11 UNL     1      62.488   7.485  31.738  1.00  0.00     0.033 C
HETATM   15  C12 UNL     1      62.161   7.780  30.299  1.00  0.00     0.011 C
HETATM   16  C15 UNL     1      63.459   8.536  32.210  1.00  0.00    -0.022 C
HETATM   17  C13 UNL     1      62.320   9.278  30.243  1.00  0.00     0.011 C
HETATM   18  C16 UNL     1      63.319   8.559  33.746  1.00  0.00     0.017 C
BRANCH   9  19
HETATM   19  O1  UNL     1      59.982  11.238  33.253  1.00  0.00    -0.345 OA
ATOM     20  H1  UNL     1      59.422  11.761  32.692  1.00  0.00     0.219 HD
ENDBRANCH   9  19
BRANCH  13  21
HETATM   21  O2  UNL     1      59.692   6.416  33.383  1.00  0.00    -0.345 OA
ATOM     22  H2  UNL     1      59.286   5.822  32.763  1.00  0.00     0.219 HD
ENDBRANCH  13  21
BRANCH  16  23
HETATM   23  C17 UNL     1      64.852   8.450  31.902  1.00  0.00    -0.043 C
HETATM   24  C18 UNL     1      65.462   9.848  32.121  1.00  0.00     0.015 C
HETATM   25  C19 UNL     1      65.346   8.020  30.570  1.00  0.00     0.015 C
HETATM   26  C20 UNL     1      65.527   7.543  32.932  1.00  0.00     0.015 C
ENDBRANCH  16  23
ENDBRANCH   1   8
TORSDOF 6
ENDMDL