MODEL 3
REMARK VINA RESULT: -5.729266263      7.397     10.593
REMARK  7 active torsions:
REMARK  status: ('A' for Active; 'I' for Inactive)
REMARK    1  A    between atoms: C2_2  and  C4_4
REMARK    2  A    between atoms: C5_6  and  O2_7
REMARK    3  A    between atoms: C6_9  and  O3_10
REMARK    4  A    between atoms: C7_12  and  C8_13
REMARK    5  A    between atoms: C15_20  and  N1_21
REMARK    6  A    between atoms: N1_21  and  N2_23
REMARK    7  A    between atoms: N2_23  and  N3_24
ROOT
HETATM    1  C8  UNL     1      56.069   4.813  38.502  1.00  0.00    -0.055 C
HETATM    2  C9  UNL     1      56.496   4.826  39.925  1.00  0.00     0.037 C
HETATM    3  C10 UNL     1      55.346   4.170  40.709  1.00  0.00     0.014 C
HETATM    4  C11 UNL     1      54.816   3.223  39.695  1.00  0.00    -0.032 C
HETATM    5  C12 UNL     1      55.733   2.058  39.590  1.00  0.00     0.016 C
HETATM    6  C13 UNL     1      53.442   2.684  39.950  1.00  0.00     0.012 C
HETATM    7  C14 UNL     1      53.136   1.779  38.801  1.00  0.00     0.028 C
HETATM    8  C15 UNL     1      53.517   2.229  37.450  1.00  0.00     0.115 C
HETATM    9  C16 UNL     1      54.669   3.138  37.287  1.00  0.00     0.042 C
HETATM   10  C17 UNL     1      54.783   4.113  38.451  1.00  0.00    -0.010 C
HETATM   11  C18 UNL     1      53.602   4.977  38.481  1.00  0.00     0.021 C
ENDROOT
BRANCH   1  12
HETATM   12  C7  UNL     1      56.658   5.662  37.526  1.00  0.00     0.035 A
HETATM   13  C4  UNL     1      57.484   5.320  36.451  1.00  0.00     0.072 A
HETATM   14  O1  UNL     1      57.851   6.463  35.879  1.00  0.00    -0.289 OA
HETATM   15  C5  UNL     1      57.357   7.497  36.465  1.00  0.00     0.218 A
HETATM   16  C6  UNL     1      56.592   7.058  37.516  1.00  0.00     0.137 A
BRANCH  13  17
HETATM   17  C2  UNL     1      57.939   4.048  35.936  1.00  0.00     0.036 C
HETATM   18  C1  UNL     1      58.776   4.456  34.626  1.00  0.00     0.016 C
HETATM   19  C3  UNL     1      59.129   3.450  36.713  1.00  0.00     0.016 C
ENDBRANCH  13  17
BRANCH  15  20
HETATM   20  O2  UNL     1      57.557   8.844  36.106  1.00  0.00    -0.339 OA
ATOM     21  H2  UNL     1      57.464   9.602  36.671  1.00  0.00     0.220 HD
ENDBRANCH  15  20
BRANCH  16  22
HETATM   22  O3  UNL     1      55.893   7.930  38.389  1.00  0.00    -0.355 OA
ATOM     23  H3  UNL     1      56.134   8.062  39.299  1.00  0.00     0.218 HD
ENDBRANCH  16  22
ENDBRANCH   1  12
BRANCH   8  24
HETATM   24  N1  UNL     1      52.333   2.664  36.719  1.00  0.00    -0.248 N
ATOM     25  H1  UNL     1      52.217   3.661  36.538  1.00  0.00     0.197 HD
BRANCH  24  26
HETATM   26  N2  UNL     1      51.465   1.890  36.307  1.00  0.00    -0.248 NA
BRANCH  26  27
HETATM   27  N3  UNL     1      50.615   1.005  36.295  1.00  0.00    -0.261 N
ATOM     28  H32 UNL     1      50.690   0.761  37.282  1.00  0.00     0.193 HD
ATOM     29  H31 UNL     1      49.898   0.365  35.954  1.00  0.00     0.193 HD
ENDBRANCH  26  27
ENDBRANCH  24  26
ENDBRANCH   8  24
TORSDOF 7
ENDMDL