MODEL 5
REMARK VINA RESULT: -7.146418907      2.521      3.678
REMARK  5 active torsions:
REMARK  status: ('A' for Active; 'I' for Inactive)
REMARK    1  A    between atoms: C5_6  and  O1_7
REMARK    2  A    between atoms: N1_9  and  C6_10
REMARK    3  A    between atoms: C9_13  and  O2_14
REMARK    4  A    between atoms: C10_16  and  C11_17
REMARK    5  A    between atoms: C11_17  and  C12_18
ROOT
HETATM    1  C1  UNL     1      58.446   5.183  31.623  1.00  0.00     0.027 C
HETATM    2  C2  UNL     1      58.914   6.126  32.380  1.00  0.00    -0.017 C
HETATM    3  S1  UNL     1      60.590   6.768  32.329  1.00  0.00    -0.090 SA
HETATM    4  C3  UNL     1      60.147   8.395  32.919  1.00  0.00     0.067 A
HETATM    5  C4  UNL     1      58.894   8.282  33.461  1.00  0.00     0.024 A
HETATM    6  C5  UNL     1      58.584   9.577  33.895  1.00  0.00     0.153 A
HETATM    7  N1  UNL     1      59.608  10.416  33.623  1.00  0.00    -0.302 N
HETATM    8  C9  UNL     1      60.587   9.680  33.012  1.00  0.00     0.162 A
HETATM    9  C10 UNL     1      58.306   6.941  33.438  1.00  0.00     0.067 C
ENDROOT
BRANCH   9  10
HETATM   10  C11 UNL     1      58.459   6.249  34.797  1.00  0.00     0.042 C
BRANCH  10  11
HETATM   11  C12 UNL     1      57.582   6.917  35.761  1.00  0.00    -0.023 C
HETATM   12  C13 UNL     1      57.337   6.453  36.986  1.00  0.00    -0.084 C
HETATM   13  C14 UNL     1      56.427   7.237  37.858  1.00  0.00     0.034 C
HETATM   14  C19 UNL     1      58.028   5.185  37.318  1.00  0.00     0.034 C
HETATM   15  C15 UNL     1      55.286   6.406  38.401  1.00  0.00     0.004 C
HETATM   16  C16 UNL     1      55.448   4.935  38.105  1.00  0.00     0.000 C
HETATM   17  C17 UNL     1      56.443   4.335  39.060  1.00  0.00     0.000 C
HETATM   18  C18 UNL     1      57.842   4.796  38.764  1.00  0.00     0.004 C
ENDBRANCH  10  11
ENDBRANCH   9  10
BRANCH   6  19
HETATM   19  O1  UNL     1      57.398   9.948  34.516  1.00  0.00    -0.345 OA
ATOM     20  H1  UNL     1      56.562   9.514  34.401  1.00  0.00     0.219 HD
ENDBRANCH   6  19
BRANCH   8  21
HETATM   21  O2  UNL     1      61.776  10.265  32.607  1.00  0.00    -0.345 OA
ATOM     22  H2  UNL     1      61.943  11.008  32.039  1.00  0.00     0.219 HD
ENDBRANCH   8  21
BRANCH   7  23
HETATM   23  C6  UNL     1      59.607  11.809  33.941  1.00  0.00     0.094 A
HETATM   24  C7  UNL     1      58.900  12.373  35.100  1.00  0.00     0.028 A
HETATM   25  C8  UNL     1      60.350  12.135  35.258  1.00  0.00     0.028 A
ENDBRANCH   7  23
TORSDOF 5
ENDMDL