MODEL 1
REMARK VINA RESULT: -8.077510810      0.000      0.000
REMARK  6 active torsions:
REMARK  status: ('A' for Active; 'I' for Inactive)
REMARK    1  A    between atoms: C2_2  and  C3_3
REMARK    2  A    between atoms: C3_3  and  C4_4
REMARK    3  A    between atoms: C9_10  and  O2_11
REMARK    4  A    between atoms: C10_13  and  C11_14
REMARK    5  A    between atoms: C11_14  and  C13_16
REMARK    6  A    between atoms: C18_22  and  O3_23
ROOT
HETATM    1  C13 UNL     1      58.168  11.409  34.293  1.00  0.00     0.029 C
HETATM    2  C14 UNL     1      58.133  12.725  34.569  1.00  0.00     0.019 C
HETATM    3  C15 UNL     1      59.383  13.483  34.813  1.00  0.00     0.060 C
HETATM    4  C16 UNL     1      56.847  13.350  34.613  1.00  0.00     0.094 C
HETATM    5  N1  UNL     1      55.813  13.856  34.621  1.00  0.00    -0.192 NA
ENDROOT
BRANCH   1   6
HETATM    6  C11 UNL     1      59.530  10.772  34.249  1.00  0.00    -0.031 C
HETATM    7  C12 UNL     1      60.543  10.297  34.216  1.00  0.00     0.024 C
BRANCH   6   8
HETATM    8  C10 UNL     1      58.783   9.243  34.709  1.00  0.00     0.010 A
HETATM    9  C9  UNL     1      58.901   8.328  33.764  1.00  0.00     0.091 A
HETATM   10  C8  UNL     1      58.262   7.108  34.115  1.00  0.00     0.053 A
HETATM   11  C7  UNL     1      58.239   5.987  33.231  1.00  0.00     0.163 C
HETATM   12  C19 UNL     1      57.609   6.984  35.345  1.00  0.00    -0.008 A
HETATM   13  C6  UNL     1      58.276   4.598  33.816  1.00  0.00     0.093 C
HETATM   14  O1  UNL     1      58.185   6.155  31.987  1.00  0.00    -0.292 OA
HETATM   15  C4  UNL     1      57.701   4.488  35.160  1.00  0.00    -0.030 C
HETATM   16  C5  UNL     1      56.738   3.280  35.184  1.00  0.00     0.016 C
HETATM   17  C20 UNL     1      56.929   5.687  35.676  1.00  0.00     0.052 C
HETATM   18  C18 UNL     1      57.559   8.004  36.238  1.00  0.00     0.073 A
HETATM   19  C17 UNL     1      58.209   9.242  35.874  1.00  0.00     0.052 A
BRANCH   9  20
HETATM   20  O2  UNL     1      59.537   8.447  32.577  1.00  0.00    -0.359 OA
ATOM     21  H2  UNL     1      59.489   9.259  32.087  1.00  0.00     0.217 HD
ENDBRANCH   9  20
BRANCH  15  22
HETATM   22  C3  UNL     1      58.798   4.169  36.167  1.00  0.00     0.036 C
BRANCH  22  23
HETATM   23  C2  UNL     1      58.324   4.251  37.555  1.00  0.00    -0.036 C
HETATM   24  C1  UNL     1      59.099   3.767  38.558  1.00  0.00     0.007 C
ENDBRANCH  22  23
ENDBRANCH  15  22
BRANCH  18  25
HETATM   25  O3  UNL     1      56.951   7.985  37.453  1.00  0.00    -0.360 OA
ATOM     26  H3  UNL     1      56.004   8.059  37.447  1.00  0.00     0.217 HD
ENDBRANCH  18  25
ENDBRANCH   6   8
ENDBRANCH   1   6
TORSDOF 6
ENDMDL