MODEL 4
REMARK VINA RESULT: -7.435174082      2.626      3.761
REMARK  4 active torsions:
REMARK  status: ('A' for Active; 'I' for Inactive)
REMARK    1  A    between atoms: C4_4  and  C5_5
REMARK    2  A    between atoms: C5_5  and  C6_6
REMARK    3  A    between atoms: C7_7  and  O1_8
REMARK    4  A    between atoms: C8_10  and  C9_11
ROOT
HETATM    1  C6  UNL     1      59.643   9.034  33.779  1.00  0.00     0.013 A
HETATM    2  C7  UNL     1      60.671   9.556  32.972  1.00  0.00     0.081 A
HETATM    3  C8  UNL     1      61.336   8.762  32.038  1.00  0.00    -0.020 A
HETATM    4  C12 UNL     1      60.986   7.442  31.896  1.00  0.00     0.021 A
HETATM    5  C13 UNL     1      59.980   6.904  32.676  1.00  0.00    -0.013 A
HETATM    6  C14 UNL     1      59.339   7.705  33.592  1.00  0.00     0.094 A
HETATM    7  O2  UNL     1      58.310   7.180  34.400  1.00  0.00    -0.296 OA
HETATM    8  C15 UNL     1      58.008   5.828  34.203  1.00  0.00     0.137 C
HETATM    9  N1  UNL     1      56.829   5.339  34.332  1.00  0.00    -0.382 N
ATOM     10  H11 UNL     1      56.610   4.353  34.189  1.00  0.00     0.158 HD
ATOM     11  H12 UNL     1      56.049   5.944  34.590  1.00  0.00     0.158 HD
HETATM   12  C16 UNL     1      59.160   4.936  33.823  1.00  0.00     0.179 C
HETATM   13  C17 UNL     1      58.757   3.556  33.778  1.00  0.00     0.073 C
HETATM   14  N2  UNL     1      58.448   2.444  33.744  1.00  0.00    -0.196 NA
HETATM   15  C18 UNL     1      59.637   5.468  32.471  1.00  0.00     0.006 C
HETATM   16  C19 UNL     1      58.481   5.304  31.501  1.00  0.00     0.022 C
HETATM   17  C20 UNL     1      60.798   4.706  31.927  1.00  0.00     0.022 C
ENDROOT
BRANCH   1  18
HETATM   18  C5  UNL     1      59.033   9.952  34.727  1.00  0.00     0.072 C
BRANCH  18  19
HETATM   19  C4  UNL     1      57.961  10.830  34.300  1.00  0.00    -0.020 C
HETATM   20  C2  UNL     1      58.052  12.155  34.400  1.00  0.00    -0.091 C
HETATM   21  C1  UNL     1      59.279  12.824  34.964  1.00  0.00     0.042 C
HETATM   22  C3  UNL     1      56.941  13.046  33.948  1.00  0.00     0.042 C
ENDBRANCH  18  19
ENDBRANCH   1  18
BRANCH   3  23
HETATM   23  C9  UNL     1      62.430   9.323  31.199  1.00  0.00     0.013 C
HETATM   24  C10 UNL     1      62.281   8.884  29.753  1.00  0.00     0.015 C
HETATM   25  C11 UNL     1      63.741   8.771  31.758  1.00  0.00     0.015 C
ENDBRANCH   3  23
BRANCH   2  26
HETATM   26  O1  UNL     1      61.100  10.863  33.022  1.00  0.00    -0.359 OA
ATOM     27  H1  UNL     1      60.589  11.601  32.713  1.00  0.00     0.217 HD
ENDBRANCH   2  26
TORSDOF 4
ENDMDL