MODEL 5
REMARK VINA RESULT: -5.043526550      9.725     11.121
REMARK  3 active torsions:
REMARK  status: ('A' for Active; 'I' for Inactive)
REMARK    1  A    between atoms: C2_2  and  C4_4
REMARK    2  A    between atoms: C9_9  and  O1_10
REMARK    3  A    between atoms: C10_12  and  N1_14
ROOT
HETATM    1  C4  UNL     1     -37.631   8.352  44.328  1.00  0.00     0.027 C
HETATM    2  C5  UNL     1     -38.876   8.115  43.498  1.00  0.00     0.008 C
HETATM    3  C6  UNL     1     -39.536   6.779  43.849  1.00  0.00     0.007 C
HETATM    4  C7  UNL     1     -39.931   6.913  45.297  1.00  0.00     0.013 C
HETATM    5  C8  UNL     1     -40.783   5.735  45.674  1.00  0.00     0.012 C
HETATM    6  C9  UNL     1     -38.779   7.148  46.203  1.00  0.00     0.157 C
HETATM    7  C10 UNL     1     -37.475   7.443  45.496  1.00  0.00     0.149 C
HETATM    8  C11 UNL     1     -36.647   8.177  46.560  1.00  0.00     0.049 C
ENDROOT
BRANCH   7   9
HETATM    9  N1  UNL     1     -36.864   6.177  45.187  1.00  0.00    -0.068 N
ATOM     10  H13 UNL     1     -37.064   5.911  44.223  1.00  0.00     0.275 HD
ATOM     11  H12 UNL     1     -35.851   6.274  45.135  1.00  0.00     0.275 HD
ATOM     12  H11 UNL     1     -37.117   5.421  45.824  1.00  0.00     0.275 HD
ENDBRANCH   7   9
BRANCH   1  13
HETATM   13  C2  UNL     1     -36.484   8.443  43.403  1.00  0.00    -0.016 C
HETATM   14  C1  UNL     1     -36.905   7.895  42.052  1.00  0.00     0.010 C
HETATM   15  C3  UNL     1     -35.931   9.794  43.139  1.00  0.00     0.010 C
ENDBRANCH   1  13
BRANCH   6  16
HETATM   16  O1  UNL     1     -38.599   5.996  46.983  1.00  0.00    -0.393 OA
ATOM     17  H1  UNL     1     -38.567   6.261  47.895  1.00  0.00     0.210 HD
ENDBRANCH   6  16
TORSDOF 3
ENDMDL