MODEL 1
REMARK VINA RESULT: -5.716071987      0.000      0.000
REMARK  1 active torsions:
REMARK  status: ('A' for Active; 'I' for Inactive)
REMARK    1  A    between atoms: C2_2  and  C3_3
ROOT
HETATM    1  C3  UNL     1     -33.430  10.067  43.109  1.00  0.00     0.094 C
HETATM    2  C4  UNL     1     -34.067   8.937  43.830  1.00  0.00     0.138 C
HETATM    3  N1  UNL     1     -35.480   8.844  43.736  1.00  0.00    -0.417 N
ATOM      4  H1  UNL     1     -35.999   8.077  44.164  1.00  0.00     0.153 HD
HETATM    5  C5  UNL     1     -36.134   9.883  43.008  1.00  0.00     0.144 C
HETATM    6  C6  UNL     1     -35.539  11.227  43.281  1.00  0.00     0.041 C
HETATM    7  C7  UNL     1     -36.122  12.265  42.336  1.00  0.00     0.032 C
HETATM    8  C8  UNL     1     -36.290  13.604  43.020  1.00  0.00     0.002 C
HETATM    9  C9  UNL     1     -37.390  13.560  44.065  1.00  0.00     0.000 C
HETATM   10  C10 UNL     1     -37.377  12.174  44.705  1.00  0.00     0.002 C
HETATM   11  C11 UNL     1     -35.972  11.663  44.688  1.00  0.00     0.032 C
HETATM   12  N2  UNL     1     -34.137  11.289  43.214  1.00  0.00    -0.405 N
ATOM     13  H2  UNL     1     -33.646  12.183  43.241  1.00  0.00     0.154 HD
ENDROOT
BRANCH   1  14
HETATM   14  C2  UNL     1     -33.099   9.670  41.675  1.00  0.00     0.022 C
HETATM   15  C1  UNL     1     -31.973   8.657  41.652  1.00  0.00     0.007 C
ENDBRANCH   1  14
TORSDOF 1
ENDMDL