MODEL 3
REMARK VINA RESULT: -5.394857990      1.792      3.889
REMARK  3 active torsions:
REMARK  status: ('A' for Active; 'I' for Inactive)
REMARK    1  A    between atoms: C4_4  and  O1_5
REMARK    2  A    between atoms: C5_7  and  C7_9
REMARK    3  A    between atoms: C11_13  and  O2_14
ROOT
HETATM    1  C1  UNL     1     -34.783   6.868  46.116  1.00  0.00     0.012 C
HETATM    2  C2  UNL     1     -35.564   7.915  45.369  1.00  0.00     0.013 C
HETATM    3  C3  UNL     1     -36.022   7.438  44.032  1.00  0.00     0.039 C
HETATM    4  C4  UNL     1     -37.229   8.185  43.506  1.00  0.00     0.127 C
HETATM    5  C5  UNL     1     -38.404   8.112  44.424  1.00  0.00    -0.013 C
HETATM    6  C6  UNL     1     -38.931   9.489  44.801  1.00  0.00     0.018 C
HETATM    7  C10 UNL     1     -37.952   7.446  45.706  1.00  0.00     0.044 C
HETATM    8  C11 UNL     1     -36.764   8.285  46.197  1.00  0.00     0.122 C
ENDROOT
BRANCH   5   9
HETATM    9  C7  UNL     1     -39.529   7.293  43.833  1.00  0.00    -0.012 C
HETATM   10  C8  UNL     1     -40.018   6.303  44.880  1.00  0.00     0.010 C
HETATM   11  C9  UNL     1     -40.699   8.129  43.423  1.00  0.00     0.010 C
ENDBRANCH   5   9
BRANCH   4  12
HETATM   12  O1  UNL     1     -37.491   7.666  42.233  1.00  0.00    -0.395 OA
ATOM     13  H1  UNL     1     -36.845   8.046  41.649  1.00  0.00     0.210 HD
ENDBRANCH   4  12
BRANCH   8  14
HETATM   14  O2  UNL     1     -36.559   8.109  47.561  1.00  0.00    -0.395 OA
ATOM     15  H2  UNL     1     -37.307   7.725  48.002  1.00  0.00     0.210 HD
ENDBRANCH   8  14
TORSDOF 3
ENDMDL