MODEL 1
REMARK VINA RESULT: -5.233119892      0.000      0.000
REMARK  2 active torsions:
REMARK  status: ('A' for Active; 'I' for Inactive)
REMARK    1  A    between atoms: S1_2  and  C2_3
REMARK    2  A    between atoms: C6_7  and  N1_8
ROOT
HETATM    1  C2  UNL     1     -37.720   9.079  44.945  1.00  0.00     0.014 C
HETATM    2  C3  UNL     1     -37.208   8.581  43.599  1.00  0.00     0.053 C
HETATM    3  C4  UNL     1     -38.018   7.390  43.164  1.00  0.00     0.190 C
HETATM    4  C5  UNL     1     -37.716   6.273  44.133  1.00  0.00     0.071 C
HETATM    5  C6  UNL     1     -38.224   6.696  45.504  1.00  0.00     0.129 C
HETATM    6  C7  UNL     1     -39.707   6.923  45.369  1.00  0.00     0.071 C
HETATM    7  C8  UNL     1     -39.895   8.093  44.431  1.00  0.00     0.190 C
HETATM    8  C9  UNL     1     -39.194   9.337  44.901  1.00  0.00     0.053 C
HETATM    9  N2  UNL     1     -39.433   7.642  43.130  1.00  0.00    -0.066 N
ATOM     10  H21 UNL     1     -39.957   6.832  42.800  1.00  0.00     0.278 HD
ATOM     11  H22 UNL     1     -39.685   8.296  42.389  1.00  0.00     0.278 HD
HETATM   12  C10 UNL     1     -37.495   7.939  45.930  1.00  0.00     0.059 C
ENDROOT
BRANCH   5  13
HETATM   13  N1  UNL     1     -38.014   5.669  46.490  1.00  0.00    -0.070 N
ATOM     14  H13 UNL     1     -38.781   5.635  47.162  1.00  0.00     0.275 HD
ATOM     15  H12 UNL     1     -38.116   4.738  46.085  1.00  0.00     0.275 HD
ATOM     16  H11 UNL     1     -37.113   5.774  46.959  1.00  0.00     0.275 HD
ENDBRANCH   5  13
BRANCH   1  17
HETATM   17  S1  UNL     1     -36.729  10.489  45.421  1.00  0.00    -0.163 SA
HETATM   18  C1  UNL     1     -37.519  12.076  45.121  1.00  0.00     0.090 C
ENDBRANCH   1  17
TORSDOF 2
ENDMDL