MODEL 3
REMARK VINA RESULT: -5.643776319      1.504      2.133
REMARK  2 active torsions:
REMARK  status: ('A' for Active; 'I' for Inactive)
REMARK    1  A    between atoms: C2_2  and  C3_6
REMARK    2  A    between atoms: C11_14  and  N2_15
ROOT
HETATM    1  C3  UNL     1     -36.356  10.859  43.821  1.00  0.00     0.070 C
HETATM    2  C4  UNL     1     -36.552   9.434  44.276  1.00  0.00    -0.002 C
HETATM    3  C5  UNL     1     -36.787   8.615  42.994  1.00  0.00     0.010 C
HETATM    4  C6  UNL     1     -35.620   8.767  42.069  1.00  0.00    -0.011 C
HETATM    5  C7  UNL     1     -34.413   8.129  42.716  1.00  0.00     0.009 C
HETATM    6  C8  UNL     1     -34.129   8.889  43.993  1.00  0.00    -0.011 C
HETATM    7  C9  UNL     1     -35.334   8.813  44.901  1.00  0.00     0.010 C
HETATM    8  C10 UNL     1     -33.877  10.355  43.718  1.00  0.00     0.044 C
HETATM    9  C11 UNL     1     -35.069  10.976  43.076  1.00  0.00     0.133 C
HETATM   10  C12 UNL     1     -35.269  10.200  41.758  1.00  0.00     0.044 C
ENDROOT
BRANCH   1  11
HETATM   11  C2  UNL     1     -36.628  11.871  44.833  1.00  0.00    -0.017 C
HETATM   12  C1  UNL     1     -37.431  13.109  44.665  1.00  0.00     0.063 C
HETATM   13  N1  UNL     1     -36.158  11.768  46.050  1.00  0.00    -0.405 N
ATOM     14  H12 UNL     1     -36.349  12.477  46.758  1.00  0.00     0.155 HD
ATOM     15  H11 UNL     1     -35.607  10.918  46.165  1.00  0.00     0.155 HD
ENDBRANCH   1  11
BRANCH   9  16
HETATM   16  N2  UNL     1     -34.766  12.352  42.734  1.00  0.00    -0.070 N
ATOM     17  H23 UNL     1     -33.944  12.413  42.133  1.00  0.00     0.275 HD
ATOM     18  H22 UNL     1     -35.461  12.737  42.094  1.00  0.00     0.275 HD
ATOM     19  H21 UNL     1     -34.662  12.935  43.564  1.00  0.00     0.275 HD
ENDBRANCH   9  16
TORSDOF 2
ENDMDL