MODEL 3
REMARK VINA RESULT: -5.330664899      2.204      5.638
REMARK  2 active torsions:
REMARK  status: ('A' for Active; 'I' for Inactive)
REMARK    1  A    between atoms: N1_1  and  C1_5
REMARK    2  A    between atoms: C4_8  and  C5_9
ROOT
HETATM    1  C1  UNL     1     -40.317   6.127  44.965  1.00  0.00     0.183 C
HETATM    2  C2  UNL     1     -40.713   7.553  44.757  1.00  0.00     0.033 C
HETATM    3  C3  UNL     1     -39.875   8.309  43.782  1.00  0.00     0.007 C
HETATM    4  C4  UNL     1     -38.445   7.996  43.733  1.00  0.00    -0.010 C
HETATM    5  C10 UNL     1     -38.048   6.572  44.004  1.00  0.00     0.007 C
HETATM    6  C11 UNL     1     -38.863   5.868  45.021  1.00  0.00     0.033 C
ENDROOT
BRANCH   4   7
HETATM    7  C5  UNL     1     -37.547   8.922  44.516  1.00  0.00    -0.007 C
HETATM    8  C6  UNL     1     -38.156  10.194  44.970  1.00  0.00     0.032 C
HETATM    9  C7  UNL     1     -37.031  10.992  45.650  1.00  0.00     0.232 C
HETATM   10  N2  UNL     1     -36.022  11.414  44.730  1.00  0.00    -0.075 N
HETATM   11  C8  UNL     1     -36.138  10.728  43.475  1.00  0.00     0.232 C
ATOM     12  H22 UNL     1     -36.030  12.426  44.605  1.00  0.00     0.277 HD
ATOM     13  H21 UNL     1     -35.087  11.311  45.127  1.00  0.00     0.277 HD
HETATM   14  C9  UNL     1     -36.282   9.258  43.748  1.00  0.00     0.032 C
ENDBRANCH   4   7
BRANCH   1  15
HETATM   15  N1  UNL     1     -40.909   5.669  46.218  1.00  0.00    -0.075 N
ATOM     16  H13 UNL     1     -41.929   5.694  46.204  1.00  0.00     0.274 HD
ATOM     17  H12 UNL     1     -40.799   4.664  46.361  1.00  0.00     0.274 HD
ATOM     18  H11 UNL     1     -40.513   6.220  46.978  1.00  0.00     0.274 HD
ENDBRANCH   1  15
TORSDOF 2
ENDMDL