MODEL 4
REMARK VINA RESULT: -5.253531439      1.796      2.808
REMARK  3 active torsions:
REMARK  status: ('A' for Active; 'I' for Inactive)
REMARK    1  A    between atoms: O1_1  and  C1_3
REMARK    2  A    between atoms: C1_3  and  C2_4
REMARK    3  A    between atoms: C6_8  and  O2_9
ROOT
HETATM    1  C2  UNL     1     -37.284   7.613  45.539  1.00  0.00    -0.019 C
HETATM    2  C3  UNL     1     -38.030   6.609  46.292  1.00  0.00     0.012 C
HETATM    3  C4  UNL     1     -39.456   6.770  46.574  1.00  0.00     0.004 C
HETATM    4  C5  UNL     1     -40.373   7.402  45.646  1.00  0.00     0.038 C
HETATM    5  C6  UNL     1     -39.870   7.912  44.332  1.00  0.00     0.058 C
HETATM    6  C7  UNL     1     -39.233   6.918  43.446  1.00  0.00     0.038 C
HETATM    7  C8  UNL     1     -37.808   7.295  43.094  1.00  0.00     0.004 C
HETATM    8  C9  UNL     1     -36.833   7.088  44.185  1.00  0.00     0.012 C
HETATM    9  C10 UNL     1     -39.070   9.146  44.612  1.00  0.00     0.038 C
HETATM   10  C11 UNL     1     -37.872   8.984  45.451  1.00  0.00     0.014 C
ENDROOT
BRANCH   1  11
HETATM   11  C1  UNL     1     -35.932   7.884  46.246  1.00  0.00     0.173 C
BRANCH  11  12
HETATM   12  O1  UNL     1     -36.127   8.236  47.565  1.00  0.00    -0.400 OA
ATOM     13  H1  UNL     1     -35.448   7.869  48.119  1.00  0.00     0.209 HD
ENDBRANCH  11  12
ENDBRANCH   1  11
BRANCH   5  14
HETATM   14  O2  UNL     1     -41.033   8.377  43.653  1.00  0.00    -0.390 OA
ATOM     15  H2  UNL     1     -40.700   8.868  42.912  1.00  0.00     0.210 HD
ENDBRANCH   5  14
TORSDOF 3
ENDMDL