MODEL 2
REMARK VINA RESULT: -5.864917648      1.193      1.315
REMARK  2 active torsions:
REMARK  status: ('A' for Active; 'I' for Inactive)
REMARK    1  A    between atoms: C5_5  and  C6_6
REMARK    2  A    between atoms: C6_6  and  O1_7
ROOT
HETATM    1  C6  UNL     1     -37.833  14.532  52.445  1.00  0.00     0.064 C
HETATM    2  C7  UNL     1     -38.630  13.270  52.606  1.00  0.00     0.066 C
HETATM    3  C8  UNL     1     -39.288  13.139  53.942  1.00  0.00     0.235 C
HETATM    4  N1  UNL     1     -39.850  14.368  54.437  1.00  0.00    -0.075 N
ATOM      5  H11 UNL     1     -39.333  14.702  55.250  1.00  0.00     0.277 HD
ATOM      6  H12 UNL     1     -40.758  14.203  54.872  1.00  0.00     0.277 HD
HETATM    7  C9  UNL     1     -39.944  15.396  53.430  1.00  0.00     0.235 C
HETATM    8  C10 UNL     1     -38.582  15.767  52.892  1.00  0.00     0.066 C
ENDROOT
BRANCH   1   9
HETATM    9  C5  UNL     1     -37.446  14.732  51.004  1.00  0.00     0.020 C
HETATM   10  C4  UNL     1     -38.377  14.027  50.049  1.00  0.00     0.008 C
HETATM   11  C3  UNL     1     -37.483  13.256  49.088  1.00  0.00     0.005 C
HETATM   12  C2  UNL     1     -36.308  12.924  50.008  1.00  0.00    -0.018 C
HETATM   13  C1  UNL     1     -35.118  12.444  49.215  1.00  0.00     0.010 C
HETATM   14  C11 UNL     1     -36.072  14.230  50.690  1.00  0.00     0.012 C
ENDBRANCH   1   9
BRANCH   1  15
HETATM   15  O1  UNL     1     -36.708  14.415  53.272  1.00  0.00    -0.389 OA
ATOM     16  H1  UNL     1     -36.952  14.349  54.188  1.00  0.00     0.210 HD
ENDBRANCH   1  15
TORSDOF 2
ENDMDL