MODEL 5
REMARK VINA RESULT: -5.305941629      5.832      8.192
REMARK  3 active torsions:
REMARK  status: ('A' for Active; 'I' for Inactive)
REMARK    1  A    between atoms: C7_7  and  C9_9
REMARK    2  A    between atoms: C9_9  and  O1_10
REMARK    3  A    between atoms: C11_13  and  O2_14
ROOT
HETATM    1  C1  UNL     1     -33.517   9.061  43.766  1.00  0.00     0.012 C
HETATM    2  C2  UNL     1     -34.906   9.536  43.574  1.00  0.00     0.011 C
HETATM    3  C3  UNL     1     -34.976  10.853  42.778  1.00  0.00     0.012 C
HETATM    4  C4  UNL     1     -36.260  11.380  43.292  1.00  0.00    -0.007 C
HETATM    5  C5  UNL     1     -36.492  12.830  43.258  1.00  0.00     0.006 C
HETATM    6  C6  UNL     1     -37.367  13.049  44.502  1.00  0.00     0.012 C
HETATM    7  C7  UNL     1     -37.179  11.789  45.363  1.00  0.00    -0.016 C
HETATM    8  C8  UNL     1     -38.395  10.933  45.345  1.00  0.00     0.018 C
HETATM    9  C10 UNL     1     -35.965  11.226  44.800  1.00  0.00     0.029 C
HETATM   10  C11 UNL     1     -35.623   9.827  44.901  1.00  0.00     0.127 C
ENDROOT
BRANCH   7  11
HETATM   11  C9  UNL     1     -36.920  12.256  46.787  1.00  0.00     0.173 C
BRANCH  11  12
HETATM   12  O1  UNL     1     -38.071  12.844  47.301  1.00  0.00    -0.400 OA
ATOM     13  H1  UNL     1     -38.576  12.194  47.776  1.00  0.00     0.209 HD
ENDBRANCH  11  12
ENDBRANCH   7  11
BRANCH  10  14
HETATM   14  O2  UNL     1     -36.628   8.930  45.151  1.00  0.00    -0.395 OA
ATOM     15  H2  UNL     1     -37.100   9.137  45.949  1.00  0.00     0.210 HD
ENDBRANCH  10  14
TORSDOF 3
ENDMDL