MODEL 1
REMARK VINA RESULT: -5.803128597      0.000      0.000
REMARK  2 active torsions:
REMARK  status: ('A' for Active; 'I' for Inactive)
REMARK    1  A    between atoms: N1_2  and  C2_5
REMARK    2  A    between atoms: C9_12  and  N2_13
ROOT
HETATM    1  C2  UNL     1     -39.299   8.035  44.994  1.00  0.00     0.128 C
HETATM    2  C3  UNL     1     -39.007   9.491  44.977  1.00  0.00     0.039 C
HETATM    3  C4  UNL     1     -37.599   9.910  44.870  1.00  0.00     0.007 C
HETATM    4  C5  UNL     1     -36.663   8.977  44.191  1.00  0.00    -0.012 C
HETATM    5  C6  UNL     1     -37.178   8.395  42.913  1.00  0.00     0.009 C
HETATM    6  C7  UNL     1     -37.945   7.118  43.077  1.00  0.00    -0.009 C
HETATM    7  C8  UNL     1     -37.296   6.130  44.001  1.00  0.00     0.043 C
HETATM    8  C9  UNL     1     -37.128   6.811  45.343  1.00  0.00     0.127 C
HETATM    9  C10 UNL     1     -36.140   7.932  45.151  1.00  0.00     0.043 C
HETATM   10  C11 UNL     1     -38.427   7.249  45.931  1.00  0.00     0.077 C
HETATM   11  C12 UNL     1     -39.309   7.459  43.583  1.00  0.00     0.043 C
ENDROOT
BRANCH   1  12
HETATM   12  N1  UNL     1     -40.687   7.874  45.424  1.00  0.00    -0.070 N
HETATM   13  C1  UNL     1     -41.152   6.537  45.408  1.00  0.00     0.267 C
ATOM     14  H12 UNL     1     -41.301   8.472  44.872  1.00  0.00     0.277 HD
ATOM     15  H11 UNL     1     -40.823   8.288  46.346  1.00  0.00     0.277 HD
ENDBRANCH   1  12
BRANCH   8  16
HETATM   16  N2  UNL     1     -36.500   5.851  46.240  1.00  0.00    -0.070 N
ATOM     17  H23 UNL     1     -35.892   5.191  45.755  1.00  0.00     0.275 HD
ATOM     18  H22 UNL     1     -35.789   6.269  46.839  1.00  0.00     0.275 HD
ATOM     19  H21 UNL     1     -37.247   5.394  46.764  1.00  0.00     0.275 HD
ENDBRANCH   8  16
TORSDOF 2
ENDMDL