MODEL 4
REMARK VINA RESULT: -6.815608057      2.192      3.752
REMARK  5 active torsions:
REMARK  status: ('A' for Active; 'I' for Inactive)
REMARK    1  A    between atoms: C2_2  and  C3_3
REMARK    2  A    between atoms: C3_3  and  O1_4
REMARK    3  A    between atoms: N1_10  and  C7_11
REMARK    4  A    between atoms: N2_14  and  C10_15
REMARK    5  A    between atoms: C10_15  and  C11_16
ROOT
HETATM    1  C7  UNL     1      -2.910   4.142  12.201  1.00  0.00     0.246 C
HETATM    2  C8  UNL     1      -2.139   4.984  13.221  1.00  0.00     0.082 C
HETATM    3  C9  UNL     1      -2.816   4.666  14.539  1.00  0.00     0.065 C
HETATM    4  N2  UNL     1      -3.592   3.521  14.370  1.00  0.00    -0.371 N
HETATM    5  C17 UNL     1      -3.904   3.354  12.973  1.00  0.00     0.163 C
ENDROOT
BRANCH   1   6
HETATM    6  N1  UNL     1      -3.434   5.057  11.234  1.00  0.00     0.100 N
HETATM    7  C6  UNL     1      -3.153   4.647   9.869  1.00  0.00     0.299 C
HETATM    8  C5  UNL     1      -2.721   5.856   9.114  1.00  0.00     0.198 C
HETATM    9  O2  UNL     1      -3.696   6.666   8.631  1.00  0.00    -0.386 OA
HETATM   10  C4  UNL     1      -4.938   6.580   9.186  1.00  0.00     0.207 C
HETATM   11  C3  UNL     1      -4.956   6.777  10.680  1.00  0.00     0.105 C
HETATM   12  C18 UNL     1      -4.815   5.427  11.402  1.00  0.00     0.312 C
BRANCH  11  13
HETATM   13  C2  UNL     1      -6.273   7.368  11.103  1.00  0.00     0.037 C
HETATM   14  C1  UNL     1      -7.201   7.617   9.945  1.00  0.00     0.008 C
ENDBRANCH  11  13
BRANCH  11  15
HETATM   15  O1  UNL     1      -3.886   7.550  11.095  1.00  0.00    -0.386 OA
ATOM     16  H1  UNL     1      -3.179   7.020  11.444  1.00  0.00     0.210 HD
ENDBRANCH  11  15
ENDBRANCH   1   6
BRANCH   4  17
HETATM   17  C10 UNL     1      -3.610   2.435  15.204  1.00  0.00     0.067 C
BRANCH  17  18
HETATM   18  C11 UNL     1      -4.641   2.290  16.285  1.00  0.00     0.024 C
HETATM   19  C12 UNL     1      -4.929   0.788  16.346  1.00  0.00     0.010 C
HETATM   20  C13 UNL     1      -6.076   0.394  17.184  1.00  0.00     0.001 C
HETATM   21  C14 UNL     1      -7.301   1.266  16.974  1.00  0.00     0.000 C
HETATM   22  C15 UNL     1      -6.954   2.717  17.072  1.00  0.00     0.001 C
HETATM   23  C16 UNL     1      -5.905   3.002  15.996  1.00  0.00     0.010 C
ENDBRANCH  17  18
ENDBRANCH   4  17
TORSDOF 5
ENDMDL