MODEL 1
REMARK VINA RESULT: -7.391856146      0.000      0.000
REMARK  5 active torsions:
REMARK  status: ('A' for Active; 'I' for Inactive)
REMARK    1  A    between atoms: C1_2  and  C2_3
REMARK       I    between atoms: C1_2  and  N1_18
REMARK    2  A    between atoms: C2_3  and  O2_4
REMARK    3  A    between atoms: O2_4  and  C3_5
REMARK    4  A    between atoms: C3_5  and  C4_7
REMARK    5  A    between atoms: N1_18  and  C14_20
ROOT
HETATM    1  C3  UNL     1      -2.998   2.806  11.005  1.00  0.00     0.270 C
HETATM    2  O3  UNL     1      -2.238   2.589  10.046  1.00  0.00    -0.264 OA
ENDROOT
BRANCH   1   3
HETATM    3  O2  UNL     1      -3.852   1.833  11.457  1.00  0.00    -0.311 OA
BRANCH   3   4
HETATM    4  C2  UNL     1      -3.470   0.808  12.305  1.00  0.00     0.281 C
BRANCH   4   5
HETATM    5  C1  UNL     1      -4.301   0.733  13.505  1.00  0.00     0.242 C
HETATM    6  O1  UNL     1      -4.662  -0.440  13.883  1.00  0.00    -0.271 OA
HETATM    7  N1  UNL     1      -4.728   1.820  14.263  1.00  0.00    -0.355 N
ATOM      8  H1  UNL     1      -4.454   2.765  13.992  1.00  0.00     0.162 HD
BRANCH   7   9
HETATM    9  C14 UNL     1      -5.560   1.620  15.441  1.00  0.00     0.084 C
HETATM   10  C15 UNL     1      -4.726   1.616  16.704  1.00  0.00     0.025 C
HETATM   11  C16 UNL     1      -5.817   1.795  17.764  1.00  0.00     0.002 C
HETATM   12  C17 UNL     1      -6.597   2.950  17.165  1.00  0.00     0.002 C
HETATM   13  C18 UNL     1      -6.466   2.817  15.666  1.00  0.00     0.025 C
ENDBRANCH   7   9
ENDBRANCH   4   5
ENDBRANCH   3   4
ENDBRANCH   1   3
BRANCH   1  14
HETATM   14  C4  UNL     1      -2.995   4.114  11.674  1.00  0.00     0.074 C
HETATM   15  C5  UNL     1      -4.349   4.476  12.193  1.00  0.00     0.027 C
HETATM   16  C6  UNL     1      -4.314   5.726  13.023  1.00  0.00    -0.011 C
HETATM   17  C7  UNL     1      -4.113   5.464  14.478  1.00  0.00     0.031 C
HETATM   18  C12 UNL     1      -3.416   6.794  12.466  1.00  0.00     0.009 C
HETATM   19  C8  UNL     1      -2.945   4.647  14.853  1.00  0.00     0.168 C
HETATM   20  O4  UNL     1      -2.475   3.760  13.962  1.00  0.00    -0.385 OA
HETATM   21  C9  UNL     1      -1.949   4.164  12.797  1.00  0.00     0.140 C
HETATM   22  C10 UNL     1      -1.294   5.484  12.734  1.00  0.00     0.038 C
HETATM   23  C11 UNL     1      -2.176   6.294  11.817  1.00  0.00    -0.010 C
HETATM   24  C13 UNL     1      -2.536   5.238  10.762  1.00  0.00     0.027 C
ENDBRANCH   1  14
TORSDOF 5
ENDMDL