MODEL 4
REMARK VINA RESULT: -6.410834506      5.254      7.853
REMARK  4 active torsions:
REMARK  status: ('A' for Active; 'I' for Inactive)
REMARK    1  A    between atoms: C2_2  and  C3_3
REMARK    2  A    between atoms: N1_11  and  C11_13
REMARK    3  A    between atoms: C11_13  and  C12_14
REMARK    4  A    between atoms: C12_14  and  N2_15
ROOT
HETATM    1  C3  UNL     1      -7.974   8.879   7.478  1.00  0.00     0.187 C
HETATM    2  C4  UNL     1      -8.828   7.867   8.241  1.00  0.00     0.036 C
HETATM    3  C5  UNL     1      -7.800   6.785   8.487  1.00  0.00     0.053 C
HETATM    4  C6  UNL     1      -6.571   7.608   8.843  1.00  0.00     0.180 C
HETATM    5  C7  UNL     1      -6.369   7.616  10.300  1.00  0.00     0.061 C
HETATM    6  C8  UNL     1      -5.097   7.043  10.764  1.00  0.00     0.042 C
HETATM    7  C9  UNL     1      -4.076   8.126  11.045  1.00  0.00     0.017 C
HETATM    8  C10 UNL     1      -4.592   6.043   9.788  1.00  0.00     0.052 C
HETATM    9  N1  UNL     1      -4.030   4.953   9.883  1.00  0.00    -0.365 N
ATOM     10  H1  UNL     1      -3.803   4.496   9.001  1.00  0.00     0.165 HD
HETATM   11  S1  UNL     1      -5.062   6.826   8.203  1.00  0.00    -0.077 SA
HETATM   12  N3  UNL     1      -6.750   8.909   8.240  1.00  0.00    -0.052 N
ATOM     13  H31 UNL     1      -6.726   9.668   8.922  1.00  0.00     0.279 HD
ATOM     14  H32 UNL     1      -5.945   9.200   7.684  1.00  0.00     0.279 HD
ENDROOT
BRANCH   9  15
HETATM   15  C11 UNL     1      -3.663   4.261  11.030  1.00  0.00     0.091 C
BRANCH  15  16
HETATM   16  C12 UNL     1      -3.690   2.780  11.005  1.00  0.00     0.317 C
BRANCH  16  17
HETATM   17  N2  UNL     1      -4.888   2.107  11.376  1.00  0.00     0.097 N
HETATM   18  C13 UNL     1      -5.022   2.228  12.846  1.00  0.00     0.299 C
HETATM   19  C14 UNL     1      -4.063   1.354  13.582  1.00  0.00     0.198 C
HETATM   20  O1  UNL     1      -4.454   0.021  13.302  1.00  0.00    -0.388 OA
HETATM   21  C15 UNL     1      -4.167  -0.173  11.953  1.00  0.00     0.198 C
HETATM   22  C16 UNL     1      -4.967   0.708  11.029  1.00  0.00     0.299 C
ENDBRANCH  16  17
ENDBRANCH  15  16
ENDBRANCH   9  15
BRANCH   1  23
HETATM   23  C2  UNL     1      -8.613  10.250   7.491  1.00  0.00     0.028 C
HETATM   24  C1  UNL     1     -10.078  10.101   7.194  1.00  0.00     0.007 C
ENDBRANCH   1  23
TORSDOF 4
ENDMDL