MODEL 4
REMARK VINA RESULT: -6.714032445      1.632      2.915
REMARK  5 active torsions:
REMARK  status: ('A' for Active; 'I' for Inactive)
REMARK    1  A    between atoms: C7_9  and  C8_10
REMARK    2  A    between atoms: C8_10  and  N3_11
REMARK       I    between atoms: N3_11  and  C9_13
REMARK    3  A    between atoms: C9_13  and  O2_15
REMARK    4  A    between atoms: O2_15  and  C10_16
REMARK    5  A    between atoms: C10_16  and  C11_17
ROOT
HETATM    1  N3  UNL     1      -2.695   1.575  12.299  1.00  0.00    -0.336 N
ATOM      2  H3  UNL     1      -2.171   1.819  13.139  1.00  0.00     0.164 HD
HETATM    3  C9  UNL     1      -4.058   1.153  12.403  1.00  0.00     0.360 C
HETATM    4  O1  UNL     1      -4.715   0.847  11.368  1.00  0.00    -0.239 OA
ENDROOT
BRANCH   1   5
HETATM    5  C8  UNL     1      -2.061   1.654  11.001  1.00  0.00     0.133 C
BRANCH   5   6
HETATM    6  C7  UNL     1      -1.299   2.943  10.840  1.00  0.00     0.065 C
HETATM    7  C6  UNL     1      -2.164   4.148  11.139  1.00  0.00     0.231 C
HETATM    8  N1  UNL     1      -3.313   4.228  10.291  1.00  0.00     0.091 N
HETATM    9  C5  UNL     1      -1.301   5.390  11.078  1.00  0.00     0.066 C
HETATM   10  C1  UNL     1      -4.436   4.694  11.085  1.00  0.00     0.310 C
HETATM   11  C2  UNL     1      -3.175   5.114   9.175  1.00  0.00     0.302 C
HETATM   12  C3  UNL     1      -2.001   4.871   8.308  1.00  0.00     0.302 C
HETATM   13  N2  UNL     1      -0.830   4.396   8.966  1.00  0.00     0.090 N
HETATM   14  C4  UNL     1      -0.313   5.301   9.959  1.00  0.00     0.274 C
HETATM   15  C17 UNL     1      -0.883   3.037   9.385  1.00  0.00     0.280 C
ENDBRANCH   5   6
ENDBRANCH   1   5
BRANCH   3  16
HETATM   16  O2  UNL     1      -4.704   1.062  13.608  1.00  0.00    -0.304 OA
BRANCH  16  17
HETATM   17  C10 UNL     1      -5.123   2.184  14.362  1.00  0.00     0.185 C
BRANCH  17  18
HETATM   18  C11 UNL     1      -4.801   1.962  15.823  1.00  0.00     0.010 C
HETATM   19  C12 UNL     1      -4.978   0.516  16.159  1.00  0.00     0.007 C
HETATM   20  C13 UNL     1      -5.934   0.394  17.331  1.00  0.00     0.000 C
HETATM   21  C14 UNL     1      -7.222   1.073  16.931  1.00  0.00     0.000 C
HETATM   22  C15 UNL     1      -6.963   2.564  16.941  1.00  0.00     0.000 C
HETATM   23  C16 UNL     1      -5.519   2.902  16.727  1.00  0.00     0.007 C
ENDBRANCH  17  18
ENDBRANCH  16  17
ENDBRANCH   3  16
TORSDOF 5
ENDMDL