MODEL 5
REMARK VINA RESULT: -6.292633510      1.104      1.252
REMARK  5 active torsions:
REMARK  status: ('A' for Active; 'I' for Inactive)
REMARK    1  A    between atoms: C2_2  and  N1_5
REMARK    2  A    between atoms: N1_5  and  C5_6
REMARK    3  A    between atoms: N1_5  and  C10_12
REMARK    4  A    between atoms: N2_16  and  C14_17
REMARK    5  A    between atoms: C14_17  and  C15_18
ROOT
HETATM    1  N1  UNL     1      -4.207   4.056  13.784  1.00  0.00    -0.368 N
ENDROOT
BRANCH   1   2
HETATM    2  C2  UNL     1      -3.575   5.311  13.978  1.00  0.00     0.022 C
HETATM    3  C1  UNL     1      -4.223   6.055  15.186  1.00  0.00     0.037 C
HETATM    4  C3  UNL     1      -2.133   5.345  14.329  1.00  0.00     0.037 C
HETATM    5  C4  UNL     1      -3.833   6.370  12.910  1.00  0.00     0.037 C
ENDBRANCH   1   2
BRANCH   1   6
HETATM    6  C5  UNL     1      -4.748   3.440  14.949  1.00  0.00    -0.013 C
HETATM    7  C6  UNL     1      -3.903   2.433  15.659  1.00  0.00     0.062 C
HETATM    8  C7  UNL     1      -4.753   1.463  16.487  1.00  0.00     0.079 C
HETATM    9  S1  UNL     1      -5.949   2.331  17.527  1.00  0.00    -0.168 SA
HETATM   10  C8  UNL     1      -6.751   3.583  16.460  1.00  0.00     0.079 C
HETATM   11  C9  UNL     1      -6.227   3.221  15.040  1.00  0.00     0.062 C
ENDBRANCH   1   6
BRANCH   1  12
HETATM   12  C10 UNL     1      -3.916   3.290  12.667  1.00  0.00     0.057 C
HETATM   13  C11 UNL     1      -2.453   3.074  12.349  1.00  0.00     0.040 C
HETATM   14  C12 UNL     1      -4.548   3.738  11.340  1.00  0.00     0.063 C
HETATM   15  C13 UNL     1      -4.436   2.516  10.439  1.00  0.00     0.275 C
HETATM   16  N2  UNL     1      -3.986   1.451  11.327  1.00  0.00     0.101 N
HETATM   17  C16 UNL     1      -4.577   1.918  12.566  1.00  0.00     0.303 C
BRANCH  16  18
HETATM   18  C14 UNL     1      -4.551   0.181  10.921  1.00  0.00     0.385 C
BRANCH  18  19
HETATM   19  C15 UNL     1      -4.033  -0.888  11.795  1.00  0.00     0.202 C
HETATM   20  O1  UNL     1      -4.483  -1.040  12.991  1.00  0.00    -0.647 OA
HETATM   21  O2  UNL     1      -3.055  -1.745  11.332  1.00  0.00    -0.647 OA
ENDBRANCH  18  19
ENDBRANCH  16  18
ENDBRANCH   1  12
TORSDOF 5
ENDMDL