MODEL 1
REMARK VINA RESULT: -7.117595651      0.000      0.000
REMARK  3 active torsions:
REMARK  status: ('A' for Active; 'I' for Inactive)
REMARK    1  A    between atoms: C1_2  and  C2_3
REMARK       I    between atoms: C1_2  and  N2_15
REMARK    2  A    between atoms: C2_3  and  C3_4
REMARK    3  A    between atoms: N2_15  and  C13_17
ROOT
HETATM    1  C2  UNL     1      -2.577   4.881  14.252  1.00  0.00     0.147 C
ENDROOT
BRANCH   1   2
HETATM    2  C1  UNL     1      -3.170   3.761  15.071  1.00  0.00     0.222 C
HETATM    3  O1  UNL     1      -2.389   2.972  15.633  1.00  0.00    -0.273 OA
HETATM    4  N2  UNL     1      -4.566   3.580  15.221  1.00  0.00    -0.353 N
ATOM      5  H2  UNL     1      -5.186   4.241  14.752  1.00  0.00     0.163 HD
BRANCH   4   6
HETATM    6  C13 UNL     1      -5.164   2.532  15.988  1.00  0.00     0.117 C
HETATM    7  C14 UNL     1      -5.123   1.185  15.301  1.00  0.00     0.194 C
HETATM    8  O2  UNL     1      -5.019   0.117  16.155  1.00  0.00    -0.379 OA
HETATM    9  C15 UNL     1      -5.722   0.226  17.333  1.00  0.00     0.241 C
HETATM   10  S1  UNL     1      -7.226   1.248  17.086  1.00  0.00    -0.141 SA
HETATM   11  C16 UNL     1      -6.613   2.805  16.329  1.00  0.00     0.103 C
ENDBRANCH   4   6
ENDBRANCH   1   2
BRANCH   1  12
HETATM   12  C3  UNL     1      -1.587   4.293  13.291  1.00  0.00     0.068 C
HETATM   13  N1  UNL     1      -1.981   3.761  12.099  1.00  0.00    -0.384 N
HETATM   14  C4  UNL     1      -0.856   3.189  11.353  1.00  0.00     0.123 C
HETATM   15  C8  UNL     1      -3.111   3.887  11.351  1.00  0.00     0.031 C
HETATM   16  C5  UNL     1      -1.167   1.778  10.910  1.00  0.00     0.020 C
HETATM   17  C6  UNL     1      -2.571   1.432  11.415  1.00  0.00     0.004 C
HETATM   18  C7  UNL     1      -3.489   2.477  10.810  1.00  0.00     0.031 C
HETATM   19  C9  UNL     1      -4.345   4.538  11.718  1.00  0.00     0.031 C
HETATM   20  C12 UNL     1      -2.671   4.633  10.054  1.00  0.00     0.031 C
HETATM   21  C10 UNL     1      -4.329   5.919  11.028  1.00  0.00     0.002 C
HETATM   22  C11 UNL     1      -3.872   5.438   9.641  1.00  0.00     0.002 C
ENDBRANCH   1  12
TORSDOF 3
ENDMDL