MODEL 3
REMARK VINA RESULT: -6.666816250      2.246      5.571
REMARK  6 active torsions:
REMARK  status: ('A' for Active; 'I' for Inactive)
REMARK    1  A    between atoms: C2_2  and  O1_5
REMARK    2  A    between atoms: O1_5  and  C5_6
REMARK       I    between atoms: C5_6  and  N1_8
REMARK    3  A    between atoms: C8_12  and  C9_13
REMARK    4  A    between atoms: C9_13  and  C10_14
REMARK       I    between atoms: C10_14  and  N2_16
REMARK    5  A    between atoms: N2_16  and  C11_18
REMARK    6  A    between atoms: C11_18  and  C12_19
ROOT
HETATM    1  C5  UNL     1      -1.725   4.811  13.536  1.00  0.00     0.363 C
HETATM    2  O2  UNL     1      -1.392   4.209  14.601  1.00  0.00    -0.238 OA
HETATM    3  N1  UNL     1      -2.300   4.135  12.428  1.00  0.00    -0.326 N
HETATM    4  C6  UNL     1      -2.655   4.857  11.256  1.00  0.00     0.138 C
HETATM    5  C7  UNL     1      -3.174   4.003  10.133  1.00  0.00     0.094 C
HETATM    6  S1  UNL     1      -4.442   2.826  10.717  1.00  0.00    -0.161 SA
HETATM    7  C8  UNL     1      -3.992   2.426  12.435  1.00  0.00     0.074 C
HETATM    8  C15 UNL     1      -2.504   2.708  12.547  1.00  0.00     0.143 C
ENDROOT
BRANCH   7   9
HETATM    9  C9  UNL     1      -4.238   0.973  12.751  1.00  0.00     0.119 C
BRANCH   9  10
HETATM   10  C10 UNL     1      -4.467   0.722  14.176  1.00  0.00     0.218 C
HETATM   11  O3  UNL     1      -4.729  -0.418  14.635  1.00  0.00    -0.274 OA
HETATM   12  N2  UNL     1      -4.395   1.800  15.092  1.00  0.00    -0.361 N
ATOM     13  H2  UNL     1      -4.189   2.731  14.729  1.00  0.00     0.162 HD
BRANCH  12  14
HETATM   14  C11 UNL     1      -4.600   1.649  16.517  1.00  0.00     0.127 C
BRANCH  14  15
HETATM   15  C12 UNL     1      -5.955   2.197  16.875  1.00  0.00     0.003 A
HETATM   16  C13 UNL     1      -6.436   2.117  18.287  1.00  0.00     0.007 A
HETATM   17  C14 UNL     1      -6.928   1.122  17.317  1.00  0.00     0.007 A
ENDBRANCH  14  15
ENDBRANCH  12  14
ENDBRANCH   9  10
ENDBRANCH   7   9
BRANCH   1  18
HETATM   18  O1  UNL     1      -1.482   6.186  13.530  1.00  0.00    -0.294 OA
BRANCH  18  19
HETATM   19  C2  UNL     1      -2.458   7.122  14.001  1.00  0.00     0.061 C
HETATM   20  C1  UNL     1      -3.654   6.455  14.596  1.00  0.00     0.046 C
HETATM   21  C3  UNL     1      -2.885   7.964  12.825  1.00  0.00     0.046 C
HETATM   22  C4  UNL     1      -1.766   7.995  15.019  1.00  0.00     0.046 C
ENDBRANCH  18  19
ENDBRANCH   1  18
TORSDOF 6
ENDMDL