MODEL 1
REMARK VINA RESULT: -6.734340653      0.000      0.000
REMARK  6 active torsions:
REMARK  status: ('A' for Active; 'I' for Inactive)
REMARK    1  A    between atoms: C2_2  and  O1_3
REMARK    2  A    between atoms: O1_3  and  C3_4
REMARK    3  A    between atoms: C3_4  and  C4_5
REMARK    4  A    between atoms: N1_6  and  C5_8
REMARK    5  A    between atoms: C8_11  and  C9_12
REMARK    6  A    between atoms: C14_18  and  O3_19
ROOT
HETATM    1  C5  UNL     1      -2.933   2.421  12.154  1.00  0.00     0.090 C
HETATM    2  C6  UNL     1      -3.805   1.207  12.376  1.00  0.00     0.010 C
HETATM    3  C7  UNL     1      -3.733   0.870  13.821  1.00  0.00     0.019 C
HETATM    4  C8  UNL     1      -4.852   1.574  14.597  1.00  0.00     0.065 C
HETATM    5  C11 UNL     1      -5.018   2.982  14.207  1.00  0.00    -0.016 C
HETATM    6  C12 UNL     1      -6.143   3.686  14.875  1.00  0.00     0.014 C
HETATM    7  C13 UNL     1      -5.979   5.100  14.326  1.00  0.00     0.033 C
HETATM    8  C14 UNL     1      -4.525   5.303  14.119  1.00  0.00     0.127 C
HETATM    9  C15 UNL     1      -3.888   3.901  14.031  1.00  0.00    -0.003 C
HETATM   10  C16 UNL     1      -2.704   3.837  14.888  1.00  0.00     0.019 C
HETATM   11  C17 UNL     1      -3.795   3.543  12.595  1.00  0.00     0.025 C
HETATM   12  C18 UNL     1      -5.225   3.025  12.697  1.00  0.00     0.003 C
HETATM   13  C19 UNL     1      -5.181   1.683  12.041  1.00  0.00     0.012 C
ENDROOT
BRANCH   1  14
HETATM   14  N1  UNL     1      -2.501   2.548  10.790  1.00  0.00    -0.395 N
HETATM   15  C4  UNL     1      -1.373   2.974  10.430  1.00  0.00     0.082 C
ATOM     16  H1  UNL     1      -3.158   2.273  10.060  1.00  0.00     0.159 HD
BRANCH  15  17
HETATM   17  C3  UNL     1      -0.302   3.414  11.339  1.00  0.00     0.211 C
BRANCH  17  18
HETATM   18  O1  UNL     1       0.004   4.764  11.214  1.00  0.00    -0.387 OA
BRANCH  18  19
HETATM   19  C2  UNL     1      -0.515   5.407  12.343  1.00  0.00     0.163 C
HETATM   20  C1  UNL     1      -1.576   6.411  11.969  1.00  0.00     0.033 C
ENDBRANCH  18  19
ENDBRANCH  17  18
ENDBRANCH  15  17
ENDBRANCH   1  14
BRANCH   4  21
HETATM   21  C9  UNL     1      -4.717   1.258  16.026  1.00  0.00     0.128 C
HETATM   22  C10 UNL     1      -5.722   1.391  17.092  1.00  0.00     0.091 C
HETATM   23  O2  UNL     1      -3.617   0.817  16.408  1.00  0.00    -0.298 OA
ENDBRANCH   4  21
BRANCH   8  24
HETATM   24  O3  UNL     1      -3.944   6.047  15.143  1.00  0.00    -0.395 OA
ATOM     25  H3  UNL     1      -3.197   6.551  14.842  1.00  0.00     0.210 HD
ENDBRANCH   8  24
TORSDOF 6
ENDMDL