MODEL 2
REMARK VINA RESULT: -6.042545625      1.661      1.876
REMARK  5 active torsions:
REMARK  status: ('A' for Active; 'I' for Inactive)
REMARK    1  A    between atoms: C2_2  and  S1_3
REMARK    2  A    between atoms: S1_3  and  C3_4
REMARK       I    between atoms: N1_6  and  C5_7
REMARK       I    between atoms: C5_7  and  N2_9
REMARK    3  A    between atoms: N2_9  and  C6_11
REMARK    4  A    between atoms: C6_11  and  C7_12
REMARK    5  A    between atoms: C7_12  and  O2_13
ROOT
HETATM    1  C3  UNL     1      -3.996   3.274  11.973  1.00  0.00     0.067 C
HETATM    2  C4  UNL     1      -4.627   2.916  13.304  1.00  0.00     0.142 C
HETATM    3  N1  UNL     1      -5.043   4.128  13.939  1.00  0.00    -0.332 N
HETATM    4  C5  UNL     1      -5.823   4.022  15.140  1.00  0.00     0.318 C
HETATM    5  O1  UNL     1      -6.216   5.061  15.736  1.00  0.00    -0.247 OA
HETATM    6  N2  UNL     1      -6.148   2.762  15.650  1.00  0.00    -0.341 N
ATOM      7  H2  UNL     1      -5.814   1.940  15.148  1.00  0.00     0.164 HD
HETATM    8  C9  UNL     1      -4.738   5.450  13.465  1.00  0.00     0.148 C
HETATM    9  C10 UNL     1      -3.412   5.568  12.787  1.00  0.00     0.025 C
HETATM   10  C11 UNL     1      -2.347   6.188  13.628  1.00  0.00     0.023 C
HETATM   11  C12 UNL     1      -2.235   7.640  13.291  1.00  0.00     0.012 C
HETATM   12  C13 UNL     1      -2.169   7.802  11.809  1.00  0.00     0.075 C
HETATM   13  S2  UNL     1      -3.514   6.648  11.318  1.00  0.00    -0.157 SA
HETATM   14  C14 UNL     1      -2.879   4.240  12.292  1.00  0.00     0.039 C
ENDROOT
BRANCH   1  15
HETATM   15  S1  UNL     1      -3.223   1.776  11.281  1.00  0.00    -0.163 SA
BRANCH  15  16
HETATM   16  C2  UNL     1      -4.444   0.503  10.949  1.00  0.00     0.070 C
HETATM   17  C1  UNL     1      -4.093  -0.713  11.772  1.00  0.00     0.016 C
ENDBRANCH  15  16
ENDBRANCH   1  15
BRANCH   6  18
HETATM   18  C6  UNL     1      -6.922   2.560  16.836  1.00  0.00     0.150 C
BRANCH  18  19
HETATM   19  C7  UNL     1      -7.621   1.232  16.851  1.00  0.00     0.186 C
BRANCH  19  20
HETATM   20  O2  UNL     1      -6.732   0.224  16.578  1.00  0.00    -0.394 OA
HETATM   21  C8  UNL     1      -5.744   0.100  17.541  1.00  0.00     0.201 C
ENDBRANCH  19  20
ENDBRANCH  18  19
ENDBRANCH   6  18
TORSDOF 5
ENDMDL