MODEL 4
REMARK VINA RESULT: -6.306892820      2.483      7.667
REMARK  3 active torsions:
REMARK  status: ('A' for Active; 'I' for Inactive)
REMARK    1  A    between atoms: C2_2  and  N1_5
REMARK       I    between atoms: N1_5  and  C5_7
REMARK       I    between atoms: C5_7  and  N3_11
REMARK    2  A    between atoms: N4_14  and  C8_15
REMARK    3  A    between atoms: C8_15  and  C9_16
ROOT
HETATM    1  N1  UNL     1      -0.678   5.714  11.519  1.00  0.00    -0.218 N
ATOM      2  H1  UNL     1      -1.186   6.597  11.565  1.00  0.00     0.178 HD
HETATM    3  C5  UNL     1      -1.219   4.577  12.197  1.00  0.00     0.671 C
HETATM    4  N2  UNL     1      -0.459   3.505  12.185  1.00  0.00    -0.235 N
ATOM      5  H21 UNL     1      -0.845   2.694  12.669  1.00  0.00     0.174 HD
ATOM      6  H22 UNL     1       0.450   3.485  11.724  1.00  0.00     0.174 HD
HETATM    7  N3  UNL     1      -2.465   4.605  12.829  1.00  0.00    -0.190 N
HETATM    8  C6  UNL     1      -3.292   5.736  13.094  1.00  0.00     0.173 C
HETATM    9  C7  UNL     1      -3.793   5.422  14.518  1.00  0.00     0.295 C
HETATM   10  N4  UNL     1      -3.841   4.022  14.552  1.00  0.00     0.108 N
HETATM   11  C15 UNL     1      -3.206   3.481  13.372  1.00  0.00     0.414 C
ENDROOT
BRANCH   1  12
HETATM   12  C2  UNL     1       0.551   5.664  10.777  1.00  0.00     0.036 C
HETATM   13  C1  UNL     1       0.705   6.928   9.961  1.00  0.00     0.038 C
HETATM   14  C3  UNL     1       1.766   5.552  11.673  1.00  0.00     0.038 C
HETATM   15  C4  UNL     1       0.616   4.513   9.792  1.00  0.00     0.038 C
ENDBRANCH   1  12
BRANCH  10  16
HETATM   16  C8  UNL     1      -5.076   3.448  14.896  1.00  0.00     0.279 C
BRANCH  16  17
HETATM   17  C9  UNL     1      -5.319   3.027  16.295  1.00  0.00     0.014 C
HETATM   18  C10 UNL     1      -4.880   1.558  16.416  1.00  0.00     0.006 C
HETATM   19  C11 UNL     1      -5.615   0.851  17.538  1.00  0.00     0.000 C
HETATM   20  C12 UNL     1      -7.099   0.728  17.222  1.00  0.00     0.000 C
HETATM   21  C13 UNL     1      -7.537   1.925  16.410  1.00  0.00     0.000 C
HETATM   22  C14 UNL     1      -6.693   3.107  16.839  1.00  0.00     0.006 C
ENDBRANCH  16  17
ENDBRANCH  10  16
TORSDOF 3
ENDMDL