MODEL 4
REMARK VINA RESULT: -6.106797467      3.263      6.960
REMARK  2 active torsions:
REMARK  status: ('A' for Active; 'I' for Inactive)
REMARK    1  A    between atoms: C2_2  and  N1_4
REMARK       I    between atoms: N1_4  and  C4_6
REMARK       I    between atoms: C4_6  and  N2_8
REMARK    2  A    between atoms: N2_8  and  C5_10
ROOT
HETATM    1  C5  UNL     1      -4.445   5.120  13.919  1.00  0.00     0.086 C
HETATM    2  C6  UNL     1      -3.950   6.395  14.562  1.00  0.00     0.025 C
HETATM    3  C7  UNL     1      -2.465   6.564  14.436  1.00  0.00     0.003 C
HETATM    4  C8  UNL     1      -2.154   6.625  12.950  1.00  0.00     0.010 C
HETATM    5  C9  UNL     1      -2.526   5.327  12.285  1.00  0.00    -0.035 C
HETATM    6  C10 UNL     1      -1.459   4.312  12.643  1.00  0.00     0.040 C
HETATM    7  C11 UNL     1      -0.484   4.084  11.504  1.00  0.00     0.272 C
HETATM    8  N3  UNL     1      -0.033   5.328  10.960  1.00  0.00     0.084 N
HETATM    9  C12 UNL     1       1.031   5.054  10.013  1.00  0.00     0.309 C
HETATM   10  C13 UNL     1      -1.115   6.034  10.331  1.00  0.00     0.272 C
HETATM   11  C14 UNL     1      -2.466   5.593  10.772  1.00  0.00     0.040 C
HETATM   12  C15 UNL     1      -3.906   4.851  12.567  1.00  0.00     0.034 C
ENDROOT
BRANCH   1  13
HETATM   13  N2  UNL     1      -4.287   4.001  14.825  1.00  0.00    -0.338 N
HETATM   14  C4  UNL     1      -5.354   3.458  15.587  1.00  0.00     0.316 C
HETATM   15  N1  UNL     1      -5.153   2.359  16.464  1.00  0.00    -0.339 N
HETATM   16  O1  UNL     1      -6.482   3.996  15.451  1.00  0.00    -0.247 OA
ATOM     17  H1  UNL     1      -4.213   1.966  16.529  1.00  0.00     0.164 HD
ATOM     18  H2  UNL     1      -3.361   3.581  14.919  1.00  0.00     0.164 HD
BRANCH  15  19
HETATM   19  C2  UNL     1      -6.180   1.767  17.260  1.00  0.00     0.078 C
HETATM   20  C1  UNL     1      -6.077   0.253  17.340  1.00  0.00     0.032 C
HETATM   21  C3  UNL     1      -6.263   2.339  18.660  1.00  0.00     0.032 C
ENDBRANCH  15  19
ENDBRANCH   1  13
TORSDOF 2
ENDMDL