MODEL 3
REMARK VINA RESULT: -7.069504965      1.982      5.523
REMARK  4 active torsions:
REMARK  status: ('A' for Active; 'I' for Inactive)
REMARK    1  A    between atoms: C2_2  and  C4_4
REMARK    2  A    between atoms: C4_4  and  C5_5
REMARK    3  A    between atoms: C5_5  and  O1_6
REMARK    4  A    between atoms: C18_20  and  O2_21
ROOT
HETATM    1  C4  UNL     1      -5.388   2.325  15.966  1.00  0.00     0.030 C
HETATM    2  C6  UNL     1      -5.757   3.101  14.724  1.00  0.00     0.024 C
HETATM    3  C7  UNL     1      -4.525   2.983  13.882  1.00  0.00     0.002 C
HETATM    4  C8  UNL     1      -3.444   3.296  14.847  1.00  0.00     0.020 C
HETATM    5  C9  UNL     1      -3.165   4.733  15.018  1.00  0.00     0.008 C
HETATM    6  C10 UNL     1      -3.818   5.642  14.024  1.00  0.00     0.011 C
HETATM    7  C11 UNL     1      -4.259   5.306  12.788  1.00  0.00    -0.030 A
HETATM    8  C12 UNL     1      -5.317   5.940  12.068  1.00  0.00     0.016 C
HETATM    9  C13 UNL     1      -2.949   5.429  11.594  1.00  0.00     0.012 A
HETATM   10  C14 UNL     1      -1.937   6.247  12.260  1.00  0.00     0.015 C
HETATM   11  C15 UNL     1      -3.119   4.187  11.493  1.00  0.00    -0.025 A
HETATM   12  C16 UNL     1      -3.582   3.653  11.778  1.00  0.00    -0.024 A
HETATM   13  C17 UNL     1      -4.554   3.598  12.582  1.00  0.00     0.021 A
HETATM   14  C18 UNL     1      -3.908   2.612  16.115  1.00  0.00     0.137 C
ENDROOT
BRANCH   1  15
HETATM   15  C2  UNL     1      -6.156   2.761  17.140  1.00  0.00    -0.080 C
HETATM   16  C1  UNL     1      -7.020   3.742  17.071  1.00  0.00     0.015 C
HETATM   17  C3  UNL     1      -5.982   2.073  18.466  1.00  0.00     0.043 C
ENDBRANCH   1  15
BRANCH   1  18
HETATM   18  C5  UNL     1      -5.629   0.861  15.682  1.00  0.00     0.180 C
BRANCH  18  19
HETATM   19  O1  UNL     1      -6.828   0.441  16.249  1.00  0.00    -0.400 OA
ATOM     20  H1  UNL     1      -6.894   0.737  17.150  1.00  0.00     0.209 HD
ENDBRANCH  18  19
ENDBRANCH   1  18
BRANCH  14  21
HETATM   21  O2  UNL     1      -3.192   1.430  16.349  1.00  0.00    -0.394 OA
ATOM     22  H2  UNL     1      -2.638   1.518  17.116  1.00  0.00     0.210 HD
ENDBRANCH  14  21
TORSDOF 4
ENDMDL