MODEL 1
REMARK VINA RESULT: -6.463134008      0.000      0.000
REMARK  6 active torsions:
REMARK  status: ('A' for Active; 'I' for Inactive)
REMARK    1  A    between atoms: C2_2  and  C4_4
REMARK    2  A    between atoms: C4_4  and  C5_5
REMARK    3  A    between atoms: C5_5  and  O1_6
REMARK    4  A    between atoms: N1_10  and  C8_11
REMARK    5  A    between atoms: C8_11  and  N2_13
REMARK    6  A    between atoms: N2_13  and  C9_15
ROOT
HETATM    1  C5  UNL     1      -4.533   1.145  15.572  1.00  0.00     0.064 C
HETATM    2  C6  UNL     1      -4.928   2.629  15.711  1.00  0.00     0.058 C
HETATM    3  C7  UNL     1      -5.572   3.039  14.434  1.00  0.00     0.128 C
HETATM    4  N1  UNL     1      -4.596   2.999  13.382  1.00  0.00    -0.358 N
HETATM    5  C13 UNL     1      -3.797   1.802  13.269  1.00  0.00     0.128 C
HETATM    6  C14 UNL     1      -4.423   0.703  14.159  1.00  0.00     0.058 C
ENDROOT
BRANCH   4   7
HETATM    7  C8  UNL     1      -4.439   4.086  12.508  1.00  0.00     0.170 C
HETATM    8  S1  UNL     1      -4.115   3.775  10.924  1.00  0.00    -0.041 SA
BRANCH   7   9
HETATM    9  N2  UNL     1      -4.541   5.443  12.906  1.00  0.00    -0.359 N
ATOM     10  H2  UNL     1      -5.367   5.983  12.645  1.00  0.00     0.162 HD
BRANCH   9  11
HETATM   11  C9  UNL     1      -3.504   6.066  13.669  1.00  0.00     0.021 C
HETATM   12  C10 UNL     1      -2.307   5.185  13.881  1.00  0.00     0.037 C
HETATM   13  C11 UNL     1      -3.998   6.474  15.050  1.00  0.00     0.037 C
HETATM   14  C12 UNL     1      -3.059   7.320  12.959  1.00  0.00     0.037 C
ENDBRANCH   9  11
ENDBRANCH   7   9
ENDBRANCH   4   7
BRANCH   1  15
HETATM   15  C4  UNL     1      -5.595   0.373  16.318  1.00  0.00     0.070 C
BRANCH  15  16
HETATM   16  C2  UNL     1      -6.446   1.218  17.191  1.00  0.00    -0.090 C
HETATM   17  C1  UNL     1      -7.738   1.367  16.855  1.00  0.00     0.014 C
HETATM   18  C3  UNL     1      -5.983   1.904  18.416  1.00  0.00     0.042 C
ENDBRANCH  15  16
ENDBRANCH   1  15
BRANCH   1  19
HETATM   19  O1  UNL     1      -3.352   0.984  16.314  1.00  0.00    -0.389 OA
ATOM     20  H1  UNL     1      -3.208   1.814  16.753  1.00  0.00     0.210 HD
ENDBRANCH   1  19
TORSDOF 6
ENDMDL