MODEL 3
REMARK VINA RESULT: -6.146495047      2.200      3.031
REMARK  4 active torsions:
REMARK  status: ('A' for Active; 'I' for Inactive)
REMARK    1  A    between atoms: N1_2  and  N2_4
REMARK    2  A    between atoms: N2_4  and  C3_6
REMARK    3  A    between atoms: C3_6  and  N3_8
REMARK    4  A    between atoms: N3_8  and  C4_10
ROOT
HETATM    1  C4  UNL     1      -4.198   3.932  13.491  1.00  0.00     0.033 C
HETATM    2  C5  UNL     1      -3.020   4.046  14.454  1.00  0.00     0.035 C
HETATM    3  C6  UNL     1      -1.908   4.904  14.016  1.00  0.00    -0.012 C
HETATM    4  C7  UNL     1      -2.037   6.351  14.442  1.00  0.00     0.005 C
HETATM    5  C8  UNL     1      -3.485   6.768  14.573  1.00  0.00     0.005 C
HETATM    6  C9  UNL     1      -4.302   6.404  13.378  1.00  0.00    -0.012 C
HETATM    7  C10 UNL     1      -3.567   6.358  12.087  1.00  0.00     0.009 C
HETATM    8  C11 UNL     1      -2.881   5.074  11.781  1.00  0.00    -0.012 C
HETATM    9  C12 UNL     1      -1.602   4.877  12.550  1.00  0.00     0.009 C
HETATM   10  C13 UNL     1      -3.753   3.848  12.071  1.00  0.00     0.035 C
HETATM   11  C14 UNL     1      -5.078   5.133  13.657  1.00  0.00     0.035 C
ENDROOT
BRANCH   1  12
HETATM   12  N3  UNL     1      -4.937   2.746  13.838  1.00  0.00    -0.357 N
ATOM     13  H3  UNL     1      -5.948   2.864  13.907  1.00  0.00     0.162 HD
BRANCH  12  14
HETATM   14  C3  UNL     1      -4.462   1.449  14.097  1.00  0.00     0.182 C
HETATM   15  S1  UNL     1      -4.589   0.674  15.515  1.00  0.00    -0.040 SA
BRANCH  14  16
HETATM   16  N2  UNL     1      -3.813   0.737  13.056  1.00  0.00    -0.296 N
ATOM     17  H2  UNL     1      -2.802   0.795  12.933  1.00  0.00     0.183 HD
BRANCH  16  18
HETATM   18  N1  UNL     1      -4.591  -0.046  12.206  1.00  0.00    -0.238 NA
HETATM   19  C1  UNL     1      -4.080  -1.365  12.000  1.00  0.00     0.135 C
HETATM   20  C2  UNL     1      -5.006   0.629  11.014  1.00  0.00     0.135 C
ENDBRANCH  16  18
ENDBRANCH  14  16
ENDBRANCH  12  14
ENDBRANCH   1  12
TORSDOF 4
ENDMDL