MODEL 1
REMARK VINA RESULT: -6.260262203      0.000      0.000
REMARK  5 active torsions:
REMARK  status: ('A' for Active; 'I' for Inactive)
REMARK    1  A    between atoms: C2_2  and  N1_4
REMARK    2  A    between atoms: C6_7  and  N2_8
REMARK    3  A    between atoms: N2_8  and  C7_10
REMARK    4  A    between atoms: C7_10  and  N3_12
REMARK    5  A    between atoms: N3_12  and  C8_14
ROOT
HETATM    1  N1  UNL     1      -3.081   6.191  13.659  1.00  0.00     0.096 N
HETATM    2  C4  UNL     1      -2.200   5.197  14.185  1.00  0.00     0.275 C
HETATM    3  C5  UNL     1      -3.088   4.090  14.777  1.00  0.00     0.055 C
HETATM    4  C6  UNL     1      -3.971   3.527  13.720  1.00  0.00     0.087 C
HETATM    5  C12 UNL     1      -4.619   4.583  12.855  1.00  0.00     0.060 C
HETATM    6  C13 UNL     1      -3.653   5.688  12.448  1.00  0.00     0.221 C
HETATM    7  C14 UNL     1      -4.412   6.698  11.649  1.00  0.00     0.043 C
ENDROOT
BRANCH   4   8
HETATM    8  N2  UNL     1      -5.017   2.741  14.334  1.00  0.00    -0.363 N
ATOM      9  H2  UNL     1      -5.979   2.930  14.052  1.00  0.00     0.162 HD
BRANCH   8  10
HETATM   10  C7  UNL     1      -4.802   1.729  15.298  1.00  0.00     0.168 C
HETATM   11  S1  UNL     1      -4.324   0.252  14.822  1.00  0.00    -0.041 SA
BRANCH  10  12
HETATM   12  N3  UNL     1      -5.018   1.965  16.683  1.00  0.00    -0.359 N
ATOM     13  H3  UNL     1      -4.204   1.987  17.298  1.00  0.00     0.162 HD
BRANCH  12  14
HETATM   14  C8  UNL     1      -6.319   2.175  17.272  1.00  0.00     0.021 C
HETATM   15  C9  UNL     1      -6.894   3.526  16.869  1.00  0.00     0.037 C
HETATM   16  C10 UNL     1      -7.318   1.094  16.919  1.00  0.00     0.037 C
HETATM   17  C11 UNL     1      -6.170   2.166  18.786  1.00  0.00     0.037 C
ENDBRANCH  12  14
ENDBRANCH  10  12
ENDBRANCH   8  10
ENDBRANCH   4   8
BRANCH   1  18
HETATM   18  C2  UNL     1      -2.550   7.512  13.604  1.00  0.00     0.215 C
HETATM   19  C1  UNL     1      -2.618   8.091  15.021  1.00  0.00     0.042 C
HETATM   20  C3  UNL     1      -1.083   7.531  13.204  1.00  0.00     0.042 C
ENDBRANCH   1  18
TORSDOF 5
ENDMDL