MODEL 1
REMARK VINA RESULT: -7.360505864      0.000      0.000
REMARK  3 active torsions:
REMARK  status: ('A' for Active; 'I' for Inactive)
REMARK    1  A    between atoms: C4_4  and  O1_5
REMARK    2  A    between atoms: C4_4  and  C5_7
REMARK    3  A    between atoms: C5_7  and  C6_8
REMARK       I    between atoms: C6_8  and  N1_10
ROOT
HETATM    1  C1  UNL     1      -3.566   7.440  11.779  1.00  0.00     0.011 C
HETATM    2  C2  UNL     1      -2.917   6.054  11.959  1.00  0.00    -0.008 C
HETATM    3  C3  UNL     1      -3.960   4.998  12.053  1.00  0.00     0.043 C
HETATM    4  C4  UNL     1      -3.608   3.863  12.967  1.00  0.00     0.066 C
HETATM    5  C12 UNL     1      -3.258   4.412  14.311  1.00  0.00     0.039 C
HETATM    6  C13 UNL     1      -2.054   5.274  14.219  1.00  0.00     0.012 C
HETATM    7  C14 UNL     1      -1.846   6.047  12.978  1.00  0.00    -0.044 C
HETATM    8  C15 UNL     1      -0.515   5.614  12.341  1.00  0.00     0.015 C
HETATM    9  C16 UNL     1      -1.585   7.505  13.427  1.00  0.00     0.015 C
ENDROOT
BRANCH   4  10
HETATM   10  O1  UNL     1      -2.588   3.114  12.440  1.00  0.00    -0.389 OA
ATOM     11  H1  UNL     1      -2.662   3.063  11.495  1.00  0.00     0.210 HD
ENDBRANCH   4  10
BRANCH   4  12
HETATM   12  C5  UNL     1      -4.856   2.969  13.094  1.00  0.00     0.140 C
BRANCH  12  13
HETATM   13  C6  UNL     1      -4.599   1.864  14.061  1.00  0.00     0.222 C
HETATM   14  O2  UNL     1      -3.744   1.004  13.669  1.00  0.00    -0.273 OA
HETATM   15  N1  UNL     1      -5.259   1.790  15.315  1.00  0.00    -0.352 N
HETATM   16  C7  UNL     1      -6.195   2.843  15.639  1.00  0.00     0.125 C
HETATM   17  C11 UNL     1      -4.950   0.684  16.187  1.00  0.00     0.125 C
HETATM   18  C8  UNL     1      -6.925   2.608  16.926  1.00  0.00     0.020 C
HETATM   19  C9  UNL     1      -7.236   1.142  17.146  1.00  0.00     0.003 C
HETATM   20  C10 UNL     1      -5.937   0.406  17.253  1.00  0.00     0.020 C
ENDBRANCH  12  13
ENDBRANCH   4  12
TORSDOF 3
ENDMDL