MODEL 4
REMARK VINA RESULT: -6.128174230      2.276      5.517
REMARK  4 active torsions:
REMARK  status: ('A' for Active; 'I' for Inactive)
REMARK    1  A    between atoms: C2_2  and  C3_3
REMARK    2  A    between atoms: C3_3  and  N1_4
REMARK    3  A    between atoms: C4_5  and  N2_6
REMARK       I    between atoms: N2_6  and  C5_7
REMARK       I    between atoms: C5_7  and  N4_11
REMARK    4  A    between atoms: N4_11  and  C6_13
ROOT
HETATM    1  N1  UNL     1      -4.403   3.321  13.016  1.00  0.00    -0.346 N
HETATM    2  C4  UNL     1      -3.210   4.157  12.884  1.00  0.00     0.168 C
HETATM    3  C9  UNL     1      -3.309   4.932  14.193  1.00  0.00     0.040 C
HETATM    4  C10 UNL     1      -2.387   5.990  14.437  1.00  0.00     0.025 C
HETATM    5  C11 UNL     1      -3.565   3.822  15.150  1.00  0.00     0.050 C
HETATM    6  C12 UNL     1      -4.867   3.673  14.343  1.00  0.00     0.040 C
HETATM    7  C13 UNL     1      -5.980   3.010  14.951  1.00  0.00     0.039 C
HETATM    8  C14 UNL     1      -4.809   5.185  14.261  1.00  0.00    -0.007 C
HETATM    9  C15 UNL     1      -5.422   5.774  13.024  1.00  0.00     0.018 C
HETATM   10  C16 UNL     1      -5.195   5.903  15.514  1.00  0.00     0.018 C
ENDROOT
BRANCH   2  11
HETATM   11  N2  UNL     1      -2.392   4.224  11.992  1.00  0.00    -0.357 NA
HETATM   12  C5  UNL     1      -1.360   4.340  11.188  1.00  0.00     0.250 C
HETATM   13  N3  UNL     1      -1.487   4.591   9.887  1.00  0.00    -0.360 N
HETATM   14  N4  UNL     1       0.042   4.221  11.548  1.00  0.00    -0.347 N
ATOM     15  H32 UNL     1      -2.472   4.674   9.635  1.00  0.00     0.160 HD
ATOM     16  H31 UNL     1      -0.685   4.682   9.263  1.00  0.00     0.160 HD
ATOM     17  H4  UNL     1       0.294   3.594  12.312  1.00  0.00     0.164 HD
BRANCH  14  18
HETATM   18  C6  UNL     1       1.090   4.937  10.886  1.00  0.00     0.077 C
HETATM   19  C7  UNL     1       2.127   4.037  10.278  1.00  0.00     0.032 C
HETATM   20  C8  UNL     1       1.675   5.986  11.786  1.00  0.00     0.032 C
ENDBRANCH  14  18
ENDBRANCH   2  11
BRANCH   1  21
HETATM   21  C3  UNL     1      -4.966   2.395  12.073  1.00  0.00     0.152 C
BRANCH  21  22
HETATM   22  C2  UNL     1      -4.424   1.046  12.068  1.00  0.00    -0.017 C
HETATM   23  C1  UNL     1      -4.183   0.377  13.164  1.00  0.00     0.008 C
ENDBRANCH  21  22
ENDBRANCH   1  21
TORSDOF 4
ENDMDL