MODEL 2
REMARK VINA RESULT: -6.891778064      2.602      6.592
REMARK  3 active torsions:
REMARK  status: ('A' for Active; 'I' for Inactive)
REMARK       I    between atoms: C2_5  and  N3_6
REMARK       I    between atoms: C2_5  and  N4_13
REMARK    1  A    between atoms: N3_6  and  C3_8
REMARK    2  A    between atoms: C3_8  and  C4_10
REMARK    3  A    between atoms: N4_13  and  C7_15
ROOT
HETATM    1  N1  UNL     1      -4.501  -0.598  15.168  1.00  0.00    -0.171 NA
HETATM    2  C1  UNL     1      -4.367   0.343  14.479  1.00  0.00     0.196 C
HETATM    3  N2  UNL     1      -4.231   1.462  13.653  1.00  0.00    -0.126 N
ATOM      4  H2  UNL     1      -4.031   1.318  12.663  1.00  0.00     0.197 HD
HETATM    5  C2  UNL     1      -4.346   2.649  14.086  1.00  0.00     0.688 C
HETATM    6  N3  UNL     1      -4.625   2.903  15.456  1.00  0.00    -0.185 N
ATOM      7  H3  UNL     1      -3.914   2.651  16.143  1.00  0.00     0.185 HD
HETATM    8  N4  UNL     1      -4.202   3.754  13.218  1.00  0.00    -0.221 N
ATOM      9  H4  UNL     1      -4.824   4.551  13.351  1.00  0.00     0.178 HD
ENDROOT
BRANCH   6  10
HETATM   10  C3  UNL     1      -5.814   3.476  15.923  1.00  0.00     0.098 C
HETATM   11  S1  UNL     1      -6.377   4.877  15.308  1.00  0.00    -0.064 SA
BRANCH  10  12
HETATM   12  C4  UNL     1      -6.604   2.826  16.998  1.00  0.00     0.048 A
HETATM   13  C5  UNL     1      -7.146   1.447  16.773  1.00  0.00     0.012 A
HETATM   14  C6  UNL     1      -6.047   1.646  17.716  1.00  0.00     0.012 A
ENDBRANCH  10  12
ENDBRANCH   6  10
BRANCH   8  15
HETATM   15  C7  UNL     1      -3.229   3.824  12.155  1.00  0.00     0.099 C
HETATM   16  C8  UNL     1      -3.717   4.793  11.135  1.00  0.00     0.026 C
HETATM   17  C9  UNL     1      -3.323   4.444   9.722  1.00  0.00     0.002 C
HETATM   18  C10 UNL     1      -2.177   5.348   9.322  1.00  0.00     0.000 C
HETATM   19  C11 UNL     1      -0.835   4.763   9.611  1.00  0.00     0.000 C
HETATM   20  C12 UNL     1      -0.368   5.026  11.012  1.00  0.00     0.000 C
HETATM   21  C13 UNL     1      -0.728   3.892  11.965  1.00  0.00     0.002 C
HETATM   22  C14 UNL     1      -1.920   4.238  12.789  1.00  0.00     0.026 C
ENDBRANCH   8  15
TORSDOF 3
ENDMDL