MODEL 3
REMARK VINA RESULT: -6.731502595      0.140      1.662
REMARK  4 active torsions:
REMARK  status: ('A' for Active; 'I' for Inactive)
REMARK    1  A    between atoms: C2_2  and  N2_6
REMARK    2  A    between atoms: N2_6  and  C5_8
REMARK    3  A    between atoms: C5_8  and  N3_10
REMARK    4  A    between atoms: N3_10  and  C6_12
ROOT
HETATM    1  C1  UNL     1      -5.883   2.744  15.087  1.00  0.00     0.055 C
HETATM    2  C2  UNL     1      -4.790   1.738  15.274  1.00  0.00     0.114 C
HETATM    3  C3  UNL     1      -3.670   2.347  16.082  1.00  0.00     0.055 C
HETATM    4  C4  UNL     1      -5.360   0.662  16.122  1.00  0.00     0.090 C
HETATM    5  N1  UNL     1      -5.809  -0.179  16.777  1.00  0.00    -0.195 NA
ENDROOT
BRANCH   2   6
HETATM    6  N2  UNL     1      -4.316   1.182  14.029  1.00  0.00    -0.346 N
ATOM      7  H2  UNL     1      -4.205   0.170  13.972  1.00  0.00     0.163 HD
BRANCH   6   8
HETATM    8  C5  UNL     1      -3.994   1.953  12.876  1.00  0.00     0.169 C
HETATM    9  S1  UNL     1      -5.028   1.767  11.618  1.00  0.00    -0.041 SA
BRANCH   8  10
HETATM   10  N3  UNL     1      -2.869   2.784  12.878  1.00  0.00    -0.358 N
ATOM     11  H3  UNL     1      -1.970   2.309  12.798  1.00  0.00     0.162 HD
BRANCH  10  12
HETATM   12  C6  UNL     1      -2.807   4.207  12.975  1.00  0.00     0.033 C
HETATM   13  C7  UNL     1      -1.999   4.732  14.127  1.00  0.00     0.035 C
HETATM   14  C8  UNL     1      -2.063   6.245  14.131  1.00  0.00    -0.012 C
HETATM   15  C9  UNL     1      -1.521   6.842  12.846  1.00  0.00     0.009 C
HETATM   16  C13 UNL     1      -3.455   6.773  14.315  1.00  0.00     0.009 C
HETATM   17  C10 UNL     1      -2.366   6.329  11.693  1.00  0.00    -0.012 C
HETATM   18  C11 UNL     1      -3.796   6.721  11.823  1.00  0.00     0.009 C
HETATM   19  C15 UNL     1      -2.210   4.812  11.705  1.00  0.00     0.035 C
HETATM   20  C12 UNL     1      -4.284   6.247  13.169  1.00  0.00    -0.012 C
HETATM   21  C14 UNL     1      -4.224   4.759  13.191  1.00  0.00     0.035 C
ENDBRANCH  10  12
ENDBRANCH   8  10
ENDBRANCH   6   8
ENDBRANCH   2   6
TORSDOF 4
ENDMDL