MODEL 4
REMARK VINA RESULT: -8.270680484      2.173      4.663
REMARK  5 active torsions:
REMARK  status: ('A' for Active; 'I' for Inactive)
REMARK    1  A    between atoms: C4_5  and  O1_6
REMARK    2  A    between atoms: C7_10  and  C8_11
REMARK    3  A    between atoms: C19_25  and  O5_26
REMARK    4  A    between atoms: C20_28  and  O6_29
REMARK    5  A    between atoms: O6_29  and  C21_30
ROOT
HETATM    1  C8  UNL     1       7.641  -3.197 -13.819  1.00  0.00     0.038 C
HETATM    2  C9  UNL     1       9.141  -3.730 -13.493  1.00  0.00     0.025 C
HETATM    3  C10 UNL     1       7.467  -2.492 -12.492  1.00  0.00     0.037 C
HETATM    4  C11 UNL     1       8.645  -1.727 -11.983  1.00  0.00     0.025 C
HETATM    5  C12 UNL     1       6.093  -1.972 -12.129  1.00  0.00     0.013 A
HETATM    6  C13 UNL     1       5.428  -1.968 -10.857  1.00  0.00     0.018 A
HETATM    7  C14 UNL     1       5.226  -3.180 -11.786  1.00  0.00    -0.012 A
HETATM    8  C15 UNL     1       3.754  -3.270 -12.113  1.00  0.00     0.017 C
HETATM    9  C16 UNL     1       6.218  -4.150 -12.071  1.00  0.00     0.153 C
HETATM   10  C17 UNL     1       6.013  -5.459 -11.481  1.00  0.00     0.281 C
HETATM   11  O2  UNL     1       5.046  -5.739 -10.762  1.00  0.00    -0.264 OA
HETATM   12  O3  UNL     1       7.039  -6.188 -11.882  1.00  0.00    -0.285 OA
HETATM   13  C18 UNL     1       7.504  -5.657 -13.155  1.00  0.00     0.310 C
HETATM   14  O4  UNL     1       7.347  -6.818 -13.888  1.00  0.00    -0.323 OA
HETATM   15  C19 UNL     1       6.050  -7.103 -14.121  1.00  0.00     0.316 C
HETATM   16  C20 UNL     1       5.176  -5.893 -14.350  1.00  0.00     0.325 C
HETATM   17  O8  UNL     1       5.673  -4.671 -14.166  1.00  0.00    -0.337 OA
HETATM   18  C23 UNL     1       6.826  -4.403 -13.488  1.00  0.00     0.151 C
HETATM   19  C24 UNL     1       7.417  -3.583 -11.425  1.00  0.00     0.159 C
HETATM   20  O9  UNL     1       8.287  -4.392 -10.944  1.00  0.00    -0.296 OA
ENDROOT
BRANCH   1  21
HETATM   21  C7  UNL     1       7.984  -2.637 -15.045  1.00  0.00    -0.021 C
HETATM   22  C2  UNL     1       9.186  -3.049 -15.769  1.00  0.00     0.003 C
HETATM   23  C1  UNL     1       9.544  -4.257 -15.888  1.00  0.00     0.032 C
HETATM   24  S1  UNL     1      10.286  -2.111 -16.836  1.00  0.00    -0.100 SA
HETATM   25  C3  UNL     1       9.141  -0.863 -17.357  1.00  0.00     0.087 C
HETATM   26  C4  UNL     1       8.029  -0.767 -16.675  1.00  0.00     0.078 C
HETATM   27  C5  UNL     1       7.452  -1.532 -15.586  1.00  0.00    -0.020 C
HETATM   28  C6  UNL     1       6.141  -1.112 -15.238  1.00  0.00     0.052 C
BRANCH  26  29
HETATM   29  O1  UNL     1       7.242   0.327 -17.206  1.00  0.00    -0.360 OA
ATOM     30  H1  UNL     1       6.643  -0.012 -17.860  1.00  0.00     0.217 HD
ENDBRANCH  26  29
ENDBRANCH   1  21
BRANCH  16  31
HETATM   31  O6  UNL     1       3.925  -6.279 -13.908  1.00  0.00    -0.285 OA
BRANCH  31  32
HETATM   32  C21 UNL     1       2.709  -6.106 -14.506  1.00  0.00     0.257 C
HETATM   33  C22 UNL     1       1.484  -5.788 -13.766  1.00  0.00     0.126 C
HETATM   34  O7  UNL     1       2.675  -6.234 -15.762  1.00  0.00    -0.266 OA
ENDBRANCH  31  32
ENDBRANCH  16  31
BRANCH  15  35
HETATM   35  O5  UNL     1       5.547  -7.993 -13.172  1.00  0.00    -0.367 OA
ATOM     36  H5  UNL     1       4.598  -7.960 -13.134  1.00  0.00     0.212 HD
ENDBRANCH  15  35
TORSDOF 5
ENDMDL