MODEL 4
REMARK VINA RESULT: -7.127180809      2.520      5.177
REMARK  4 active torsions:
REMARK  status: ('A' for Active; 'I' for Inactive)
REMARK    1  A    between atoms: C4_4  and  C6_6
REMARK    2  A    between atoms: C13_17  and  O5_18
REMARK    3  A    between atoms: C20_27  and  N1_28
REMARK    4  A    between atoms: N1_28  and  O7_30
ROOT
HETATM    1  C1  UNL     1       1.303  -9.197 -10.775  1.00  0.00     0.013 C
HETATM    2  C2  UNL     1       2.593  -8.607 -11.408  1.00  0.00     0.020 C
HETATM    3  C3  UNL     1       2.155  -7.224 -11.803  1.00  0.00     0.032 C
HETATM    4  C4  UNL     1       3.113  -6.433 -12.718  1.00  0.00     0.075 C
HETATM    5  C5  UNL     1       2.834  -4.972 -12.505  1.00  0.00     0.032 C
HETATM    6  C7  UNL     1       4.493  -6.884 -12.373  1.00  0.00     0.006 C
HETATM    7  C8  UNL     1       4.725  -6.511 -10.976  1.00  0.00     0.135 C
HETATM    8  O3  UNL     1       5.065  -5.178 -10.918  1.00  0.00    -0.274 OA
HETATM    9  C9  UNL     1       6.219  -4.894 -11.708  1.00  0.00     0.277 C
HETATM   10  O4  UNL     1       6.714  -3.718 -11.543  1.00  0.00    -0.264 OA
HETATM   11  C10 UNL     1       6.799  -5.886 -12.651  1.00  0.00     0.075 C
HETATM   12  C11 UNL     1       7.164  -4.933 -13.854  1.00  0.00     0.031 C
HETATM   13  C12 UNL     1       8.060  -6.518 -12.339  1.00  0.00     0.059 C
HETATM   14  C13 UNL     1       8.501  -7.125 -11.093  1.00  0.00     0.153 C
HETATM   15  C14 UNL     1       8.175  -8.606 -10.832  1.00  0.00     0.083 C
HETATM   16  C15 UNL     1       9.454  -9.389 -11.197  1.00  0.00     0.048 C
HETATM   17  C16 UNL     1       8.167  -8.714  -9.288  1.00  0.00     0.048 C
HETATM   18  O6  UNL     1       7.148  -9.133 -11.308  1.00  0.00    -0.342 OA
HETATM   19  C17 UNL     1       5.991  -9.687 -11.121  1.00  0.00     0.167 C
HETATM   20  C18 UNL     1       6.241 -10.985 -10.297  1.00  0.00     0.079 C
HETATM   21  C19 UNL     1       5.753 -10.110 -12.614  1.00  0.00     0.127 C
HETATM   22  C20 UNL     1       6.339  -9.219 -13.608  1.00  0.00     0.037 C
HETATM   23  C21 UNL     1       6.108  -7.888 -14.047  1.00  0.00     0.036 C
HETATM   24  C22 UNL     1       5.659  -6.729 -13.265  1.00  0.00    -0.028 C
HETATM   25  O8  UNL     1       4.866  -9.284 -10.684  1.00  0.00    -0.342 OA
HETATM   26  C23 UNL     1       3.743  -8.756 -10.464  1.00  0.00     0.205 C
HETATM   27  C24 UNL     1       3.891  -7.265 -10.073  1.00  0.00     0.212 C
HETATM   28  O9  UNL     1       3.357  -6.839  -9.121  1.00  0.00    -0.287 OA
ENDROOT
BRANCH   4  29
HETATM   29  C6  UNL     1       2.715  -6.753 -14.114  1.00  0.00     0.186 C
HETATM   30  O1  UNL     1       3.031  -5.997 -15.067  1.00  0.00    -0.647 OA
HETATM   31  O2  UNL     1       1.981  -7.886 -14.453  1.00  0.00    -0.647 OA
ENDBRANCH   4  29
BRANCH  22  32
HETATM   32  N1  UNL     1       7.328  -9.797 -14.290  1.00  0.00    -0.273 N
ATOM     33  H1  UNL     1       8.230  -9.904 -13.825  1.00  0.00     0.193 HD
BRANCH  32  34
HETATM   34  O7  UNL     1       7.212 -10.249 -15.551  1.00  0.00    -0.290 OA
ATOM     35  H7  UNL     1       7.719  -9.920 -16.284  1.00  0.00     0.244 HD
ENDBRANCH  32  34
ENDBRANCH  22  32
BRANCH  14  36
HETATM   36  O5  UNL     1       9.872  -6.977 -10.810  1.00  0.00    -0.393 OA
ATOM     37  H5  UNL     1      10.195  -7.515 -10.096  1.00  0.00     0.210 HD
ENDBRANCH  14  36
TORSDOF 4
ENDMDL