MODEL 4
REMARK VINA RESULT: -8.526890269      2.157      5.444
REMARK  4 active torsions:
REMARK  status: ('A' for Active; 'I' for Inactive)
REMARK    1  A    between atoms: O1_2  and  C2_3
REMARK    2  A    between atoms: C6_7  and  O2_8
REMARK    3  A    between atoms: C9_12  and  O3_13
REMARK    4  A    between atoms: C11_16  and  O4_17
ROOT
HETATM    1  C2  UNL     1       4.712  -5.908 -13.467  1.00  0.00     0.116 A
HETATM    2  C3  UNL     1       5.372  -6.935 -12.849  1.00  0.00     0.054 A
HETATM    3  C4  UNL     1       4.701  -7.927 -12.171  1.00  0.00    -0.022 A
HETATM    4  C5  UNL     1       3.319  -7.814 -12.159  1.00  0.00     0.022 A
HETATM    5  C6  UNL     1       2.567  -8.773 -11.519  1.00  0.00     0.095 A
HETATM    6  C7  UNL     1       1.185  -8.769 -11.458  1.00  0.00     0.093 A
HETATM    7  C8  UNL     1       0.532  -7.739 -12.078  1.00  0.00     0.093 A
HETATM    8  C9  UNL     1       1.252  -6.741 -12.740  1.00  0.00     0.097 A
HETATM    9  C10 UNL     1       2.636  -6.777 -12.782  1.00  0.00     0.048 A
HETATM   10  C11 UNL     1       3.305  -5.785 -13.459  1.00  0.00     0.114 A
HETATM   11  C12 UNL     1      -0.887  -8.002 -11.844  1.00  0.00     0.305 A
HETATM   12  O5  UNL     1      -1.817  -7.278 -12.256  1.00  0.00    -0.259 OA
HETATM   13  O6  UNL     1      -1.061  -9.161 -11.103  1.00  0.00    -0.237 OA
HETATM   14  C13 UNL     1       0.206  -9.659 -10.849  1.00  0.00     0.305 A
HETATM   15  O7  UNL     1       0.483 -10.693 -10.208  1.00  0.00    -0.259 OA
HETATM   16  C14 UNL     1       5.654  -8.886 -11.603  1.00  0.00     0.040 C
HETATM   17  C15 UNL     1       5.925 -10.033 -12.508  1.00  0.00     0.027 C
HETATM   18  C16 UNL     1       6.884 -11.013 -11.860  1.00  0.00     0.016 C
HETATM   19  C17 UNL     1       7.163 -12.082 -12.923  1.00  0.00     0.023 C
HETATM   20  C18 UNL     1       6.261 -11.756 -10.698  1.00  0.00     0.023 C
HETATM   21  C19 UNL     1       8.094 -10.274 -11.465  1.00  0.00     0.160 C
HETATM   22  O8  UNL     1       9.090 -10.934 -11.203  1.00  0.00    -0.295 OA
HETATM   23  C20 UNL     1       8.178  -8.821 -11.370  1.00  0.00     0.172 A
HETATM   24  C21 UNL     1       9.112  -8.353 -10.260  1.00  0.00     0.221 A
HETATM   25  O9  UNL     1       9.241  -8.323  -9.015  1.00  0.00    -0.287 OA
HETATM   26  C22 UNL     1       9.440  -8.134 -11.646  1.00  0.00     0.221 A
HETATM   27  O10 UNL     1      10.244  -7.675 -12.497  1.00  0.00    -0.287 OA
HETATM   28  C23 UNL     1       6.941  -8.045 -11.542  1.00  0.00     0.059 C
HETATM   29  C24 UNL     1       6.791  -7.078 -10.364  1.00  0.00     0.027 C
HETATM   30  C25 UNL     1       6.809  -7.252 -12.754  1.00  0.00     0.174 C
HETATM   31  O11 UNL     1       7.700  -6.905 -13.551  1.00  0.00    -0.291 OA
ENDROOT
BRANCH   1  32
HETATM   32  O1  UNL     1       5.414  -4.904 -14.155  1.00  0.00    -0.352 OA
HETATM   33  C1  UNL     1       5.890  -3.836 -13.347  1.00  0.00     0.210 C
ENDBRANCH   1  32
BRANCH   5  34
HETATM   34  O2  UNL     1       3.236  -9.794 -10.906  1.00  0.00    -0.359 OA
ATOM     35  H2  UNL     1       2.734 -10.370 -10.340  1.00  0.00     0.217 HD
ENDBRANCH   5  34
BRANCH  10  36
HETATM   36  O4  UNL     1       2.730  -4.749 -14.086  1.00  0.00    -0.357 OA
ATOM     37  H4  UNL     1       3.007  -4.522 -14.966  1.00  0.00     0.217 HD
ENDBRANCH  10  36
BRANCH   8  38
HETATM   38  O3  UNL     1       0.496  -5.763 -13.321  1.00  0.00    -0.359 OA
ATOM     39  H3  UNL     1       0.476  -5.775 -14.271  1.00  0.00     0.217 HD
ENDBRANCH   8  38
TORSDOF 4
ENDMDL