MODEL 2
REMARK VINA RESULT: -8.423369100      1.720      3.287
REMARK  5 active torsions:
REMARK  status: ('A' for Active; 'I' for Inactive)
REMARK    1  A    between atoms: C9_11  and  O3_13
REMARK    2  A    between atoms: C11_15  and  O4_16
REMARK    3  A    between atoms: C11_15  and  O5_18
REMARK    4  A    between atoms: O5_18  and  C12_19
REMARK    5  A    between atoms: C22_33  and  O10_34
ROOT
HETATM    1  C1  UNL     1       6.545  -5.613 -11.324  1.00  0.00     0.020 C
HETATM    2  C2  UNL     1       6.018  -5.824 -12.553  1.00  0.00    -0.018 C
HETATM    3  C3  UNL     1       6.927  -6.369 -13.547  1.00  0.00     0.028 C
HETATM    4  C4  UNL     1       6.776  -6.088 -14.961  1.00  0.00     0.042 C
HETATM    5  C5  UNL     1       7.594  -4.786 -14.778  1.00  0.00     0.130 C
HETATM    6  O1  UNL     1       6.863  -3.709 -14.803  1.00  0.00    -0.350 OA
HETATM    7  C6  UNL     1       6.490  -2.925 -13.784  1.00  0.00     0.161 C
HETATM    8  C7  UNL     1       5.727  -1.753 -14.443  1.00  0.00     0.078 C
HETATM    9  C8  UNL     1       7.752  -2.270 -13.201  1.00  0.00     0.078 C
HETATM   10  O2  UNL     1       5.816  -3.446 -12.735  1.00  0.00    -0.315 OA
HETATM   11  C9  UNL     1       4.559  -3.877 -12.808  1.00  0.00     0.223 C
HETATM   12  C10 UNL     1       3.806  -3.305 -11.628  1.00  0.00     0.085 C
HETATM   13  C11 UNL     1       4.604  -5.444 -12.731  1.00  0.00     0.249 C
HETATM   14  C23 UNL     1       8.145  -5.407 -13.559  1.00  0.00     0.019 C
HETATM   15  C24 UNL     1       9.395  -6.243 -13.803  1.00  0.00     0.013 C
ENDROOT
BRANCH  13  16
HETATM   16  O4  UNL     1       4.009  -5.919 -13.902  1.00  0.00    -0.357 OA
ATOM     17  H4  UNL     1       3.976  -6.866 -13.979  1.00  0.00     0.213 HD
ENDBRANCH  13  16
BRANCH  13  18
HETATM   18  O5  UNL     1       3.832  -5.799 -11.686  1.00  0.00    -0.282 OA
BRANCH  18  19
HETATM   19  C12 UNL     1       3.085  -6.942 -11.708  1.00  0.00     0.345 C
HETATM   20  O6  UNL     1       3.832  -7.976 -12.267  1.00  0.00    -0.168 OA
HETATM   21  O7  UNL     1       3.864  -9.076 -11.614  1.00  0.00    -0.231 OA
HETATM   22  C13 UNL     1       3.115 -10.141 -12.010  1.00  0.00     0.156 C
HETATM   23  C14 UNL     1       4.138 -11.298 -12.169  1.00  0.00     0.042 C
HETATM   24  C15 UNL     1       2.132 -10.679 -11.017  1.00  0.00     0.035 C
HETATM   25  C16 UNL     1       0.741 -10.036 -11.047  1.00  0.00     0.010 C
HETATM   26  C17 UNL     1       0.959  -8.619 -11.312  1.00  0.00     0.027 C
HETATM   27  C18 UNL     1      -0.190  -7.745 -11.806  1.00  0.00     0.068 C
HETATM   28  C20 UNL     1       1.433  -7.775 -10.191  1.00  0.00     0.098 C
HETATM   29  C19 UNL     1       0.740  -6.484 -11.732  1.00  0.00     0.267 C
HETATM   30  O8  UNL     1       1.911  -6.671 -12.357  1.00  0.00    -0.298 OA
HETATM   31  O9  UNL     1       0.792  -6.505 -10.314  1.00  0.00    -0.347 OA
HETATM   32  C21 UNL     1       1.039  -8.287  -8.834  1.00  0.00     0.049 C
HETATM   33  C22 UNL     1       2.880  -7.352 -10.257  1.00  0.00     0.248 C
BRANCH  33  34
HETATM   34  O10 UNL     1       3.024  -6.279  -9.380  1.00  0.00    -0.384 OA
ATOM     35  H10 UNL     1       2.205  -5.823  -9.233  1.00  0.00     0.210 HD
ENDBRANCH  33  34
ENDBRANCH  18  19
ENDBRANCH  13  18
BRANCH  11  36
HETATM   36  O3  UNL     1       3.825  -3.505 -13.924  1.00  0.00    -0.361 OA
ATOM     37  H3  UNL     1       2.983  -3.091 -13.773  1.00  0.00     0.213 HD
ENDBRANCH  11  36
TORSDOF 5
ENDMDL