MODEL 2
REMARK VINA RESULT: -7.719222166      2.269      5.253
REMARK  5 active torsions:
REMARK  status: ('A' for Active; 'I' for Inactive)
REMARK    1  A    between atoms: C3_4  and  O2_6
REMARK    2  A    between atoms: C7_10  and  O3_11
REMARK    3  A    between atoms: O3_11  and  C8_12
REMARK    4  A    between atoms: C11_17  and  O6_18
REMARK    5  A    between atoms: C17_25  and  O7_26
ROOT
HETATM    1  C1  UNL     1       6.043  -9.821 -10.160  1.00  0.00     0.047 C
HETATM    2  C2  UNL     1       5.180  -9.673 -11.109  1.00  0.00     0.051 C
HETATM    3  O1  UNL     1       4.020 -10.510 -11.153  1.00  0.00    -0.318 OA
HETATM    4  C3  UNL     1       2.932  -9.763 -11.768  1.00  0.00     0.174 C
HETATM    5  C4  UNL     1       1.757  -9.923 -10.854  1.00  0.00     0.080 C
HETATM    6  C5  UNL     1       3.574  -8.413 -11.712  1.00  0.00     0.056 C
HETATM    7  C6  UNL     1       3.663  -8.125 -10.223  1.00  0.00     0.025 C
HETATM    8  C7  UNL     1       3.014  -7.255 -12.371  1.00  0.00     0.178 C
HETATM    9  C10 UNL     1       4.076  -6.201 -12.042  1.00  0.00     0.188 C
HETATM   10  O5  UNL     1       5.349  -6.607 -12.169  1.00  0.00    -0.343 OA
HETATM   11  C11 UNL     1       5.641  -7.774 -12.845  1.00  0.00     0.183 C
HETATM   12  C12 UNL     1       4.941  -8.866 -12.279  1.00  0.00     0.121 C
HETATM   13  C13 UNL     1       7.097  -7.867 -13.219  1.00  0.00     0.030 C
HETATM   14  C14 UNL     1       7.584  -9.337 -13.096  1.00  0.00     0.025 C
HETATM   15  C15 UNL     1       7.394  -7.602 -14.682  1.00  0.00     0.025 C
HETATM   16  C16 UNL     1       7.970  -6.953 -12.433  1.00  0.00     0.024 C
HETATM   17  C17 UNL     1       8.195  -5.721 -12.307  1.00  0.00     0.067 C
HETATM   18  C18 UNL     1       7.801  -4.405 -12.795  1.00  0.00    -0.018 C
HETATM   19  C19 UNL     1       7.169  -3.561 -11.697  1.00  0.00     0.043 C
HETATM   20  C20 UNL     1       5.795  -3.972 -11.257  1.00  0.00     0.056 C
HETATM   21  C21 UNL     1       4.765  -3.890 -12.307  1.00  0.00     0.177 A
HETATM   22  O8  UNL     1       3.435  -3.785 -11.855  1.00  0.00    -0.355 OA
HETATM   23  C22 UNL     1       3.844  -4.876 -12.622  1.00  0.00     0.199 A
HETATM   24  C23 UNL     1       5.236  -2.808 -13.246  1.00  0.00     0.297 C
HETATM   25  O9  UNL     1       4.538  -1.811 -13.364  1.00  0.00    -0.262 OA
HETATM   26  O10 UNL     1       6.411  -2.903 -13.966  1.00  0.00    -0.309 OA
HETATM   27  C24 UNL     1       7.164  -4.153 -14.077  1.00  0.00     0.159 C
HETATM   28  C25 UNL     1       8.140  -3.828 -15.224  1.00  0.00     0.045 C
ENDROOT
BRANCH   8  29
HETATM   29  O3  UNL     1       1.808  -6.897 -11.662  1.00  0.00    -0.313 OA
BRANCH  29  30
HETATM   30  C8  UNL     1       0.567  -6.845 -12.261  1.00  0.00     0.255 C
HETATM   31  C9  UNL     1      -0.692  -7.207 -11.568  1.00  0.00     0.126 C
HETATM   32  O4  UNL     1       0.553  -6.457 -13.479  1.00  0.00    -0.266 OA
ENDBRANCH  29  30
ENDBRANCH   8  29
BRANCH   4  33
HETATM   33  O2  UNL     1       2.662 -10.220 -13.031  1.00  0.00    -0.364 OA
ATOM     34  H2  UNL     1       2.727 -11.166 -13.080  1.00  0.00     0.213 HD
ENDBRANCH   4  33
BRANCH  11  35
HETATM   35  O6  UNL     1       5.020  -7.518 -14.114  1.00  0.00    -0.364 OA
ATOM     36  H6  UNL     1       4.191  -7.969 -14.006  1.00  0.00     0.213 HD
ENDBRANCH  11  35
BRANCH  17  37
HETATM   37  O7  UNL     1       9.236  -5.454 -11.303  1.00  0.00    -0.361 OA
ATOM     38  H7  UNL     1      10.013  -5.980 -11.451  1.00  0.00     0.217 HD
ENDBRANCH  17  37
TORSDOF 5
ENDMDL