MODEL 3
REMARK VINA RESULT: -7.345150209      3.478      5.957
REMARK  7 active torsions:
REMARK  status: ('A' for Active; 'I' for Inactive)
REMARK    1  A    between atoms: C4_4  and  S1_5
REMARK    2  A    between atoms: S1_5  and  S2_6
REMARK    3  A    between atoms: S2_6  and  C5_7
REMARK    4  A    between atoms: C5_7  and  N1_9
REMARK    5  A    between atoms: C11_16  and  O2_17
REMARK    6  A    between atoms: C12_20  and  O4_21
REMARK    7  A    between atoms: C19_30  and  O6_31
ROOT
HETATM    1  C1  UNL     1       6.880  -5.849 -11.052  1.00  0.00     0.040 C
HETATM    2  C2  UNL     1       6.313  -6.644 -12.176  1.00  0.00     0.122 C
HETATM    3  C3  UNL     1       5.940  -5.878 -13.406  1.00  0.00     0.048 C
HETATM    4  C4  UNL     1       5.862  -4.421 -13.312  1.00  0.00     0.072 C
HETATM    5  C8  UNL     1       4.930  -3.760 -12.390  1.00  0.00     0.071 C
HETATM    6  C9  UNL     1       4.595  -2.332 -12.878  1.00  0.00     0.019 C
HETATM    7  C10 UNL     1       3.663  -4.361 -12.043  1.00  0.00     0.186 C
HETATM    8  O1  UNL     1       3.412  -4.663 -10.857  1.00  0.00    -0.292 OA
HETATM    9  C11 UNL     1       2.522  -4.706 -12.935  1.00  0.00     0.331 C
HETATM   10  O3  UNL     1       2.332  -6.078 -12.857  1.00  0.00    -0.325 OA
HETATM   11  C12 UNL     1       1.130  -6.443 -12.277  1.00  0.00     0.261 C
HETATM   12  C13 UNL     1       1.132  -7.947 -12.145  1.00  0.00     0.069 C
HETATM   13  C14 UNL     1       1.600  -8.448 -10.829  1.00  0.00    -0.037 C
HETATM   14  C15 UNL     1       0.959  -9.823 -10.601  1.00  0.00     0.015 C
HETATM   15  C16 UNL     1       1.036  -7.561  -9.724  1.00  0.00     0.015 C
HETATM   16  C17 UNL     1       3.068  -8.536 -10.628  1.00  0.00     0.092 C
HETATM   17  C18 UNL     1       3.832  -9.193 -11.698  1.00  0.00     0.181 C
HETATM   18  O5  UNL     1       3.347 -10.070 -12.366  1.00  0.00    -0.293 OA
HETATM   19  C19 UNL     1       5.250  -8.709 -11.909  1.00  0.00     0.328 C
HETATM   20  O7  UNL     1       5.242  -7.366 -11.716  1.00  0.00    -0.349 OA
ENDROOT
BRANCH   4  21
HETATM   21  S1  UNL     1       5.600  -3.740 -14.983  1.00  0.00    -0.084 SA
BRANCH  21  22
HETATM   22  S2  UNL     1       6.056  -5.105 -16.505  1.00  0.00    -0.028 SA
BRANCH  22  23
HETATM   23  C5  UNL     1       5.713  -4.470 -18.106  1.00  0.00     0.146 C
HETATM   24  S3  UNL     1       6.901  -3.762 -18.967  1.00  0.00    -0.052 SA
BRANCH  23  25
HETATM   25  N1  UNL     1       4.422  -4.581 -18.666  1.00  0.00    -0.375 N
HETATM   26  C6  UNL     1       4.154  -3.943 -19.933  1.00  0.00     0.150 C
HETATM   27  C7  UNL     1       3.412  -5.331 -17.950  1.00  0.00     0.150 C
ENDBRANCH  23  25
ENDBRANCH  22  23
ENDBRANCH  21  22
ENDBRANCH   4  21
BRANCH   9  28
HETATM   28  O2  UNL     1       2.630  -4.307 -14.230  1.00  0.00    -0.365 OA
ATOM     29  H2  UNL     1       3.095  -4.896 -14.813  1.00  0.00     0.213 HD
ENDBRANCH   9  28
BRANCH  19  30
HETATM   30  O6  UNL     1       5.767  -9.148 -13.105  1.00  0.00    -0.365 OA
ATOM     31  H6  UNL     1       5.307  -8.773 -13.847  1.00  0.00     0.213 HD
ENDBRANCH  19  30
BRANCH  11  32
HETATM   32  O4  UNL     1       0.038  -6.125 -13.103  1.00  0.00    -0.371 OA
ATOM     33  H4  UNL     1      -0.378  -5.314 -12.835  1.00  0.00     0.212 HD
ENDBRANCH  11  32
TORSDOF 7
ENDMDL