MODEL 2
REMARK VINA RESULT: -7.006994971      2.145      5.596
REMARK  5 active torsions:
REMARK  status: ('A' for Active; 'I' for Inactive)
REMARK    1  A    between atoms: C2_2  and  O2_4
REMARK    2  A    between atoms: O2_4  and  C3_5
REMARK    3  A    between atoms: C13_18  and  O6_19
REMARK    4  A    between atoms: C15_22  and  O7_23
REMARK    5  A    between atoms: C21_31  and  O9_33
ROOT
HETATM    1  C3  UNL     1       5.130  -9.214 -12.417  1.00  0.00     0.236 C
HETATM    2  C4  UNL     1       4.311 -10.435 -12.872  1.00  0.00     0.086 C
HETATM    3  O3  UNL     1       5.841  -9.557 -11.335  1.00  0.00    -0.254 OA
HETATM    4  C5  UNL     1       6.164 -10.144 -10.235  1.00  0.00     0.410 C
HETATM    5  O4  UNL     1       6.310 -11.391  -9.978  1.00  0.00    -0.229 OA
HETATM    6  O5  UNL     1       6.417  -9.400  -9.076  1.00  0.00    -0.283 OA
HETATM    7  C6  UNL     1       7.045  -8.118  -9.048  1.00  0.00     0.083 C
HETATM    8  C7  UNL     1       8.553  -8.516  -9.031  1.00  0.00     0.051 C
HETATM    9  C8  UNL     1       6.828  -7.470  -7.759  1.00  0.00     0.051 C
HETATM   10  C9  UNL     1       6.762  -7.422 -10.335  1.00  0.00     0.007 C
HETATM   11  C10 UNL     1       5.907  -6.618 -10.821  1.00  0.00    -0.015 C
HETATM   12  C11 UNL     1       5.644  -5.941 -12.125  1.00  0.00     0.009 C
HETATM   13  C12 UNL     1       6.733  -5.535 -13.011  1.00  0.00     0.023 C
HETATM   14  C13 UNL     1       4.996  -4.550 -11.821  1.00  0.00     0.133 C
HETATM   15  C14 UNL     1       4.478  -3.972 -13.097  1.00  0.00     0.064 C
HETATM   16  C15 UNL     1       4.071  -4.845 -14.191  1.00  0.00     0.121 C
HETATM   17  C16 UNL     1       4.390  -6.307 -14.147  1.00  0.00     0.043 C
HETATM   18  C17 UNL     1       4.499  -6.717 -12.720  1.00  0.00     0.071 C
HETATM   19  C18 UNL     1       4.166  -8.072 -12.308  1.00  0.00     0.228 C
HETATM   20  O8  UNL     1       3.062  -8.405 -13.144  1.00  0.00    -0.342 OA
HETATM   21  C19 UNL     1       1.999  -8.663 -12.414  1.00  0.00     0.157 C
HETATM   22  C20 UNL     1       0.660  -8.049 -12.675  1.00  0.00     0.072 C
HETATM   23  C21 UNL     1       0.033  -8.260 -11.277  1.00  0.00     0.059 C
HETATM   24  C22 UNL     1      -0.792  -7.074 -10.890  1.00  0.00     0.046 C
HETATM   25  C23 UNL     1       1.236  -8.441 -10.321  1.00  0.00     0.072 C
HETATM   26  C24 UNL     1       2.298  -7.815 -11.164  1.00  0.00     0.157 C
HETATM   27  O10 UNL     1       3.585  -8.076 -11.001  1.00  0.00    -0.342 OA
ENDROOT
BRANCH   1  28
HETATM   28  O2  UNL     1       6.007  -8.857 -13.468  1.00  0.00    -0.278 OA
BRANCH  28  29
HETATM   29  C2  UNL     1       7.239  -9.362 -13.738  1.00  0.00     0.257 C
HETATM   30  C1  UNL     1       8.484  -8.636 -13.310  1.00  0.00     0.126 C
HETATM   31  O1  UNL     1       7.344 -10.440 -14.348  1.00  0.00    -0.266 OA
ENDBRANCH  28  29
ENDBRANCH   1  28
BRANCH  14  32
HETATM   32  O6  UNL     1       4.041  -4.665 -10.824  1.00  0.00    -0.394 OA
ATOM     33  H6  UNL     1       4.419  -4.472  -9.974  1.00  0.00     0.210 HD
ENDBRANCH  14  32
BRANCH  16  34
HETATM   34  O7  UNL     1       4.583  -4.328 -15.412  1.00  0.00    -0.395 OA
ATOM     35  H7  UNL     1       5.348  -4.831 -15.664  1.00  0.00     0.210 HD
ENDBRANCH  16  34
BRANCH  23  36
HETATM   36  O9  UNL     1      -0.706  -9.432 -11.300  1.00  0.00    -0.390 OA
ATOM     37  H9  UNL     1      -0.352  -9.998 -11.976  1.00  0.00     0.210 HD
ENDBRANCH  23  36
TORSDOF 5
ENDMDL