MODEL 3
REMARK VINA RESULT: -6.815347027      1.941      4.889
REMARK  7 active torsions:
REMARK  status: ('A' for Active; 'I' for Inactive)
REMARK    1  A    between atoms: O1_2  and  C2_3
REMARK    2  A    between atoms: C2_3  and  C3_5
REMARK    3  A    between atoms: C6_8  and  O3_9
REMARK    4  A    between atoms: C11_15  and  O4_16
REMARK    5  A    between atoms: O4_16  and  C12_17
REMARK    6  A    between atoms: C23_30  and  O7_31
REMARK    7  A    between atoms: C25_34  and  O8_35
ROOT
HETATM    1  C3  UNL     1       4.813  -5.092 -15.772  1.00  0.00     0.174 C
HETATM    2  C4  UNL     1       4.585  -3.614 -15.817  1.00  0.00     0.054 C
HETATM    3  C5  UNL     1       5.365  -2.739 -14.944  1.00  0.00     0.036 C
HETATM    4  C6  UNL     1       5.308  -2.921 -13.504  1.00  0.00     0.132 C
HETATM    5  C7  UNL     1       5.285  -4.228 -12.837  1.00  0.00     0.039 C
HETATM    6  C8  UNL     1       4.634  -3.904 -11.471  1.00  0.00     0.024 C
HETATM    7  C9  UNL     1       4.244  -5.176 -13.485  1.00  0.00     0.139 C
HETATM    8  C10 UNL     1       3.572  -6.015 -12.476  1.00  0.00     0.066 C
HETATM    9  C11 UNL     1       3.217  -7.437 -12.760  1.00  0.00     0.142 C
HETATM   10  C14 UNL     1       3.967  -8.406 -11.820  1.00  0.00    -0.021 C
HETATM   11  C15 UNL     1       3.638  -8.159 -10.380  1.00  0.00     0.017 C
HETATM   12  C16 UNL     1       3.335  -9.772 -12.114  1.00  0.00     0.017 C
HETATM   13  C17 UNL     1       5.403  -8.560 -12.141  1.00  0.00     0.013 C
HETATM   14  C18 UNL     1       6.388  -8.042 -11.144  1.00  0.00     0.027 C
HETATM   15  C19 UNL     1       7.267  -7.047 -11.924  1.00  0.00     0.168 C
HETATM   16  O6  UNL     1       6.375  -6.262 -12.591  1.00  0.00    -0.380 OA
HETATM   17  C20 UNL     1       6.606  -4.921 -12.624  1.00  0.00     0.071 C
HETATM   18  C21 UNL     1       7.034  -4.553 -11.182  1.00  0.00     0.047 C
HETATM   19  C22 UNL     1       7.729  -4.586 -13.516  1.00  0.00     0.070 C
HETATM   20  C23 UNL     1       8.049  -5.348 -14.700  1.00  0.00     0.123 C
HETATM   21  C24 UNL     1       7.083  -6.130 -15.472  1.00  0.00     0.067 C
HETATM   22  C25 UNL     1       6.187  -5.389 -16.414  1.00  0.00     0.165 C
HETATM   23  O9  UNL     1       4.774  -5.719 -14.583  1.00  0.00    -0.361 OA
ENDROOT
BRANCH   1  24
HETATM   24  C2  UNL     1       3.745  -5.627 -16.657  1.00  0.00     0.296 C
HETATM   25  O2  UNL     1       2.689  -6.028 -16.188  1.00  0.00    -0.262 OA
BRANCH  24  26
HETATM   26  O1  UNL     1       3.945  -5.676 -18.021  1.00  0.00    -0.324 OA
HETATM   27  C1  UNL     1       2.921  -5.285 -18.950  1.00  0.00     0.213 C
ENDBRANCH  24  26
ENDBRANCH   1  24
BRANCH  22  28
HETATM   28  O8  UNL     1       6.744  -4.325 -17.053  1.00  0.00    -0.392 OA
ATOM     29  H8  UNL     1       7.508  -3.966 -16.615  1.00  0.00     0.210 HD
ENDBRANCH  22  28
BRANCH   4  30
HETATM   30  O3  UNL     1       4.165  -2.180 -13.063  1.00  0.00    -0.395 OA
ATOM     31  H3  UNL     1       4.425  -1.762 -12.250  1.00  0.00     0.210 HD
ENDBRANCH   4  30
BRANCH  20  32
HETATM   32  O7  UNL     1       8.649  -4.449 -15.632  1.00  0.00    -0.395 OA
ATOM     33  H7  UNL     1       7.963  -3.874 -15.950  1.00  0.00     0.210 HD
ENDBRANCH  20  32
BRANCH   9  34
HETATM   34  O4  UNL     1       1.855  -7.706 -12.417  1.00  0.00    -0.315 OA
BRANCH  34  35
HETATM   35  C12 UNL     1       0.799  -7.763 -13.288  1.00  0.00     0.255 C
HETATM   36  C13 UNL     1      -0.566  -7.264 -12.932  1.00  0.00     0.126 C
HETATM   37  O5  UNL     1       1.002  -8.252 -14.415  1.00  0.00    -0.266 OA
ENDBRANCH  34  35
ENDBRANCH   9  34
TORSDOF 7
ENDMDL