MODEL 2
REMARK VINA RESULT: -7.391664633      1.928      4.254
REMARK  8 active torsions:
REMARK  status: ('A' for Active; 'I' for Inactive)
REMARK    1  A    between atoms: C2_2  and  O2_4
REMARK    2  A    between atoms: O2_4  and  C3_5
REMARK    3  A    between atoms: C5_7  and  C7_9
REMARK    4  A    between atoms: C12_16  and  C13_17
REMARK    5  A    between atoms: C13_17  and  O5_20
REMARK    6  A    between atoms: C16_22  and  C21_28
REMARK    7  A    between atoms: C21_28  and  O7_29
REMARK    8  A    between atoms: C22_33  and  O8_34
ROOT
HETATM    1  C7  UNL     1       5.108  -5.334 -14.658  1.00  0.00     0.103 A
HETATM    2  C8  UNL     1       6.215  -5.500 -15.578  1.00  0.00     0.043 C
HETATM    3  C9  UNL     1       6.036  -4.449 -16.701  1.00  0.00     0.022 C
HETATM    4  C10 UNL     1       6.032  -3.102 -16.032  1.00  0.00     0.117 C
HETATM    5  C11 UNL     1       7.465  -3.406 -15.224  1.00  0.00     0.272 C
HETATM    6  O3  UNL     1       8.305  -3.419 -15.957  1.00  0.00    -0.264 OA
HETATM    7  O4  UNL     1       7.378  -3.585 -13.834  1.00  0.00    -0.279 OA
HETATM    8  C12 UNL     1       6.814  -3.293 -12.610  1.00  0.00     0.097 C
HETATM    9  C16 UNL     1       5.500  -3.766 -12.089  1.00  0.00     0.002 C
HETATM   10  C17 UNL     1       4.424  -2.619 -12.454  1.00  0.00     0.068 C
HETATM   11  C18 UNL     1       5.235  -2.186 -13.763  1.00  0.00    -0.016 C
HETATM   12  C19 UNL     1       5.288  -3.081 -14.746  1.00  0.00    -0.038 C
HETATM   13  C20 UNL     1       4.213  -4.189 -14.830  1.00  0.00     0.188 A
HETATM   14  O6  UNL     1       4.043  -5.235 -15.542  1.00  0.00    -0.363 OA
ENDROOT
BRANCH   8  15
HETATM   15  C13 UNL     1       7.996  -3.355 -11.623  1.00  0.00     0.100 C
HETATM   16  C14 UNL     1       8.660  -2.022 -11.385  1.00  0.00     0.053 C
HETATM   17  C15 UNL     1       9.002  -4.386 -11.843  1.00  0.00     0.053 C
BRANCH  15  18
HETATM   18  O5  UNL     1       7.437  -3.629 -10.323  1.00  0.00    -0.384 OA
ATOM     19  H5  UNL     1       6.572  -3.236 -10.308  1.00  0.00     0.211 HD
ENDBRANCH  15  18
ENDBRANCH   8  15
BRANCH   9  20
HETATM   20  C21 UNL     1       5.058  -5.140 -12.175  1.00  0.00     0.153 C
HETATM   21  C5  UNL     1       5.311  -6.169 -13.151  1.00  0.00     0.038 C
HETATM   22  C4  UNL     1       4.297  -7.036 -13.761  1.00  0.00     0.052 C
HETATM   23  C6  UNL     1       6.331  -7.177 -12.565  1.00  0.00     0.023 C
HETATM   24  C3  UNL     1       3.367  -7.937 -13.097  1.00  0.00     0.172 C
HETATM   25  C22 UNL     1       1.911  -7.418 -13.375  1.00  0.00     0.220 C
HETATM   26  S2  UNL     1       2.102  -5.592 -13.311  1.00  0.00    -0.060 SA
HETATM   27  S1  UNL     1       3.319  -5.251 -11.619  1.00  0.00    -0.051 SA
BRANCH  24  28
HETATM   28  O2  UNL     1       3.430  -8.077 -11.721  1.00  0.00    -0.313 OA
BRANCH  28  29
HETATM   29  C2  UNL     1       2.656  -8.952 -10.987  1.00  0.00     0.255 C
HETATM   30  C1  UNL     1       2.578 -10.385 -11.378  1.00  0.00     0.126 C
HETATM   31  O1  UNL     1       2.040  -8.481  -9.997  1.00  0.00    -0.266 OA
ENDBRANCH  28  29
ENDBRANCH  24  28
BRANCH  25  32
HETATM   32  O8  UNL     1       1.556  -7.883 -14.600  1.00  0.00    -0.382 OA
ATOM     33  H8  UNL     1       1.099  -8.704 -14.459  1.00  0.00     0.211 HD
ENDBRANCH  25  32
BRANCH  20  34
HETATM   34  O7  UNL     1       5.699  -5.627 -10.949  1.00  0.00    -0.373 OA
ATOM     35  H7  UNL     1       5.818  -4.850 -10.416  1.00  0.00     0.212 HD
ENDBRANCH  20  34
ENDBRANCH   9  20
TORSDOF 8
ENDMDL