MODEL 1
REMARK VINA RESULT: -9.592219442      0.000      0.000
REMARK  5 active torsions:
REMARK  status: ('A' for Active; 'I' for Inactive)
REMARK    1  A    between atoms: C6_8  and  C7_9
REMARK    2  A    between atoms: C10_12  and  O3_13
REMARK    3  A    between atoms: C11_16  and  C12_17
REMARK    4  A    between atoms: C24_32  and  O8_33
REMARK    5  A    between atoms: C25_35  and  O9_36
ROOT
HETATM    1  C12 UNL     1       3.779  -7.128 -12.275  1.00  0.00     0.088 C
HETATM    2  C13 UNL     1       4.791  -8.189 -12.468  1.00  0.00     0.130 C
HETATM    3  C14 UNL     1       6.049  -8.186 -11.642  1.00  0.00     0.040 C
HETATM    4  O5  UNL     1       4.228  -9.509 -12.442  1.00  0.00    -0.350 OA
HETATM    5  C15 UNL     1       3.180  -9.367 -11.541  1.00  0.00     0.325 C
HETATM    6  O6  UNL     1       3.811  -8.809 -10.465  1.00  0.00    -0.354 OA
HETATM    7  C16 UNL     1       3.299  -7.648  -9.800  1.00  0.00     0.187 C
HETATM    8  C17 UNL     1       2.014  -7.629 -10.338  1.00  0.00     0.032 C
HETATM    9  C18 UNL     1       1.542  -8.824  -9.604  1.00  0.00     0.025 C
HETATM   10  C19 UNL     1       0.756  -6.909 -10.232  1.00  0.00    -0.013 C
HETATM   11  C20 UNL     1      -0.267  -7.242 -11.076  1.00  0.00     0.007 C
HETATM   12  C21 UNL     1      -0.293  -8.306 -12.170  1.00  0.00     0.075 C
HETATM   13  C22 UNL     1      -1.542  -9.137 -11.876  1.00  0.00     0.050 C
HETATM   14  C23 UNL     1      -0.638  -7.714 -13.514  1.00  0.00     0.050 C
HETATM   15  O7  UNL     1       0.796  -9.106 -12.121  1.00  0.00    -0.334 OA
HETATM   16  C24 UNL     1       2.049  -8.695 -12.269  1.00  0.00     0.247 C
HETATM   17  C25 UNL     1       2.411  -7.335 -11.728  1.00  0.00     0.140 C
ENDROOT
BRANCH   1  18
HETATM   18  C11 UNL     1       4.353  -5.748 -12.318  1.00  0.00     0.173 C
HETATM   19  C6  UNL     1       3.679  -4.695 -13.118  1.00  0.00     0.214 C
HETATM   20  O2  UNL     1       4.280  -3.495 -12.628  1.00  0.00    -0.318 OA
HETATM   21  C5  UNL     1       4.997  -3.851 -11.513  1.00  0.00     0.283 C
HETATM   22  C4  UNL     1       6.480  -3.926 -11.687  1.00  0.00     0.105 C
HETATM   23  O1  UNL     1       4.835  -2.913 -10.489  1.00  0.00    -0.328 OA
HETATM   24  O10 UNL     1       4.548  -5.106 -11.148  1.00  0.00    -0.324 OA
HETATM   25  C3  UNL     1       6.898  -2.476 -11.513  1.00  0.00     0.040 C
HETATM   26  C2  UNL     1       5.641  -1.859 -10.961  1.00  0.00     0.123 C
HETATM   27  C1  UNL     1       5.950  -0.860  -9.880  1.00  0.00     0.040 C
BRANCH  19  28
HETATM   28  C7  UNL     1       3.862  -4.650 -14.558  1.00  0.00     0.087 A
HETATM   29  C8  UNL     1       4.801  -3.951 -15.259  1.00  0.00     0.040 A
HETATM   30  C9  UNL     1       4.585  -4.210 -16.592  1.00  0.00     0.066 A
HETATM   31  C10 UNL     1       3.508  -5.068 -16.647  1.00  0.00     0.183 A
HETATM   32  O4  UNL     1       3.130  -5.288 -15.436  1.00  0.00    -0.290 OA
BRANCH  31  33
HETATM   33  O3  UNL     1       2.930  -5.602 -17.783  1.00  0.00    -0.341 OA
ATOM     34  H3  UNL     1       2.844  -6.523 -18.000  1.00  0.00     0.220 HD
ENDBRANCH  31  33
ENDBRANCH  19  28
ENDBRANCH   1  18
BRANCH  17  35
HETATM   35  O9  UNL     1       1.749  -6.255 -12.310  1.00  0.00    -0.382 OA
ATOM     36  H9  UNL     1       1.814  -6.495 -13.226  1.00  0.00     0.210 HD
ENDBRANCH  17  35
BRANCH  16  37
HETATM   37  O8  UNL     1       2.327  -8.785 -13.658  1.00  0.00    -0.359 OA
ATOM     38  H8  UNL     1       1.872  -8.068 -14.085  1.00  0.00     0.213 HD
ENDBRANCH  16  37
TORSDOF 5
ENDMDL