MODEL 3
REMARK VINA RESULT: -6.020580333      1.921      4.833
REMARK  3 active torsions:
REMARK  status: ('A' for Active; 'I' for Inactive)
REMARK    1  A    between atoms: C2_2  and  C3_3
REMARK    2  A    between atoms: C6_7  and  O1_9
REMARK    3  A    between atoms: C8_11  and  C9_12
ROOT
HETATM    1  C3  UNL     1      -4.539   0.912  12.184  1.00  0.00     0.117 C
HETATM    2  C4  UNL     1      -3.726   1.999  11.565  1.00  0.00     0.083 C
HETATM    3  N1  UNL     1      -3.665   3.214  12.245  1.00  0.00    -0.381 N
HETATM    4  C5  UNL     1      -2.418   3.862  12.357  1.00  0.00     0.160 C
HETATM    5  C6  UNL     1      -2.677   5.044  13.268  1.00  0.00     0.076 C
HETATM    6  C7  UNL     1      -1.383   5.297  14.036  1.00  0.00     0.048 C
HETATM    7  C8  UNL     1      -3.767   4.521  14.157  1.00  0.00     0.046 C
HETATM    8  C11 UNL     1      -4.450   3.409  13.397  1.00  0.00     0.113 C
HETATM    9  C12 UNL     1      -4.756   2.211  14.212  1.00  0.00     0.103 C
HETATM   10  C13 UNL     1      -3.829   2.048  15.416  1.00  0.00     0.028 C
HETATM   11  C14 UNL     1      -4.129   0.576  15.753  1.00  0.00     0.021 C
HETATM   12  C15 UNL     1      -3.984   0.015  14.350  1.00  0.00     0.118 C
HETATM   13  N2  UNL     1      -4.693   0.965  13.580  1.00  0.00    -0.397 N
ENDROOT
BRANCH   5  14
HETATM   14  O1  UNL     1      -3.016   6.158  12.547  1.00  0.00    -0.388 OA
ATOM     15  H1  UNL     1      -3.931   6.136  12.293  1.00  0.00     0.210 HD
ENDBRANCH   5  14
BRANCH   7  16
HETATM   16  C9  UNL     1      -4.718   5.582  14.627  1.00  0.00     0.005 C
HETATM   17  C10 UNL     1      -6.016   5.083  15.132  1.00  0.00     0.005 C
ENDBRANCH   7  16
BRANCH   1  18
HETATM   18  C2  UNL     1      -3.922  -0.434  11.801  1.00  0.00     0.026 C
HETATM   19  C1  UNL     1      -3.234  -0.360  10.454  1.00  0.00     0.007 C
ENDBRANCH   1  18
TORSDOF 3
ENDMDL