MODEL 1
REMARK VINA RESULT: -7.055635396      0.000      0.000
REMARK  3 active torsions:
REMARK  status: ('A' for Active; 'I' for Inactive)
REMARK    1  A    between atoms: C9_9  and  O1_10
REMARK    2  A    between atoms: C10_12  and  C11_13
REMARK    3  A    between atoms: C11_13  and  N1_14
ROOT
HETATM    1  C1  UNL     1      -5.405   4.679  14.011  1.00  0.00     0.015 C
HETATM    2  C2  UNL     1      -5.160   3.899  15.285  1.00  0.00     0.014 C
HETATM    3  C3  UNL     1      -6.415   3.919  16.048  1.00  0.00     0.014 C
HETATM    4  C4  UNL     1      -6.914   2.652  16.614  1.00  0.00    -0.007 C
HETATM    5  C5  UNL     1      -6.791   2.675  18.146  1.00  0.00     0.005 C
HETATM    6  C6  UNL     1      -5.658   1.764  18.462  1.00  0.00     0.001 C
HETATM    7  C7  UNL     1      -5.742   0.726  17.375  1.00  0.00     0.008 C
HETATM    8  C8  UNL     1      -6.332   1.388  16.173  1.00  0.00     0.023 C
HETATM    9  C9  UNL     1      -5.402   1.445  14.969  1.00  0.00     0.153 C
HETATM   10  C10 UNL     1      -4.476   2.581  15.096  1.00  0.00    -0.037 C
ENDROOT
BRANCH  10  11
HETATM   11  C11 UNL     1      -3.318   2.697  14.181  1.00  0.00     0.065 C
BRANCH  11  12
HETATM   12  N1  UNL     1      -3.479   2.601  12.786  1.00  0.00    -0.288 NA
HETATM   13  C12 UNL     1      -2.447   3.418  12.111  1.00  0.00     0.121 C
HETATM   14  C13 UNL     1      -2.669   3.347  10.605  1.00  0.00     0.182 C
HETATM   15  O2  UNL     1      -2.343   2.097  10.109  1.00  0.00    -0.389 OA
HETATM   16  C14 UNL     1      -2.118   1.263  11.175  1.00  0.00     0.182 C
HETATM   17  C15 UNL     1      -3.165   1.262  12.242  1.00  0.00     0.121 C
ENDBRANCH  11  12
ENDBRANCH  10  11
BRANCH   9  18
HETATM   18  O1  UNL     1      -4.779   0.194  15.058  1.00  0.00    -0.391 OA
ATOM     19  H1  UNL     1      -4.858  -0.109  14.161  1.00  0.00     0.210 HD
ENDBRANCH   9  18
TORSDOF 3
ENDMDL