MODEL 1
REMARK VINA RESULT: -5.796575738      0.000      0.000
REMARK  5 active torsions:
REMARK  status: ('A' for Active; 'I' for Inactive)
REMARK    1  A    between atoms: O1_2  and  C2_3
REMARK    2  A    between atoms: C2_3  and  C3_4
REMARK    3  A    between atoms: N1_10  and  C9_11
REMARK    4  A    between atoms: C9_11  and  N2_13
REMARK    5  A    between atoms: N2_13  and  C10_15
ROOT
HETATM    1  C3  UNL     1      -3.859   1.279  13.879  1.00  0.00     0.110 C
HETATM    2  C4  UNL     1      -4.257  -0.065  13.263  1.00  0.00     0.031 C
HETATM    3  C5  UNL     1      -3.741  -0.128  11.843  1.00  0.00    -0.015 C
HETATM    4  C6  UNL     1      -3.861  -1.558  11.378  1.00  0.00     0.010 C
HETATM    5  C7  UNL     1      -4.608   0.808  11.007  1.00  0.00     0.024 C
HETATM    6  C8  UNL     1      -4.990   2.038  11.839  1.00  0.00     0.126 C
HETATM    7  N1  UNL     1      -3.995   2.304  12.845  1.00  0.00    -0.351 N
ENDROOT
BRANCH   7   8
HETATM    8  C9  UNL     1      -3.186   3.458  12.868  1.00  0.00     0.170 C
HETATM    9  S1  UNL     1      -3.857   4.932  13.261  1.00  0.00    -0.041 SA
BRANCH   8  10
HETATM   10  N2  UNL     1      -1.802   3.433  12.568  1.00  0.00    -0.359 N
ATOM     11  H2  UNL     1      -1.135   3.491  13.339  1.00  0.00     0.162 HD
BRANCH  10  12
HETATM   12  C10 UNL     1      -1.294   3.330  11.226  1.00  0.00     0.021 C
HETATM   13  C11 UNL     1       0.022   4.068  11.135  1.00  0.00     0.037 C
HETATM   14  C12 UNL     1      -1.003   1.865  10.881  1.00  0.00     0.037 C
HETATM   15  C13 UNL     1      -2.222   3.935  10.200  1.00  0.00     0.037 C
ENDBRANCH  10  12
ENDBRANCH   8  10
ENDBRANCH   7   8
BRANCH   1  16
HETATM   16  C2  UNL     1      -4.831   1.522  15.015  1.00  0.00     0.192 C
BRANCH  16  17
HETATM   17  O1  UNL     1      -5.278   0.353  15.602  1.00  0.00    -0.394 OA
HETATM   18  C1  UNL     1      -5.758   0.679  16.866  1.00  0.00     0.201 C
ENDBRANCH  16  17
ENDBRANCH   1  16
TORSDOF 5
ENDMDL