MODEL 4
REMARK VINA RESULT: -6.362696142      2.414      6.466
REMARK  3 active torsions:
REMARK  status: ('A' for Active; 'I' for Inactive)
REMARK    1  A    between atoms: C7_8  and  O1_9
REMARK    2  A    between atoms: O1_9  and  C8_10
REMARK    3  A    between atoms: C8_10  and  C9_12
ROOT
HETATM    1  O1  UNL     1      -2.602   1.600  12.605  1.00  0.00    -0.314 OA
ENDROOT
BRANCH   1   2
HETATM    2  C7  UNL     1      -2.623   2.065  11.245  1.00  0.00     0.136 C
HETATM    3  C6  UNL     1      -3.025   3.499  11.172  1.00  0.00     0.068 C
HETATM    4  C5  UNL     1      -1.986   4.410  10.604  1.00  0.00     0.225 C
HETATM    5  N1  UNL     1      -0.729   4.052  11.281  1.00  0.00     0.093 N
HETATM    6  C4  UNL     1      -1.745   4.139   9.138  1.00  0.00     0.038 C
HETATM    7  C1  UNL     1       0.273   5.074  11.067  1.00  0.00     0.310 C
HETATM    8  C2  UNL     1      -0.351   2.880  10.533  1.00  0.00     0.225 C
HETATM    9  C3  UNL     1      -0.411   3.420   9.100  1.00  0.00     0.038 C
HETATM   10  C14 UNL     1      -1.303   1.745  10.642  1.00  0.00     0.068 C
ENDBRANCH   1   2
BRANCH   1  11
HETATM   11  C8  UNL     1      -3.768   1.527  13.357  1.00  0.00     0.295 C
HETATM   12  O2  UNL     1      -4.623   0.701  12.948  1.00  0.00    -0.262 OA
BRANCH  11  13
HETATM   13  C9  UNL     1      -4.021   2.344  14.555  1.00  0.00     0.208 C
HETATM   14  C10 UNL     1      -3.924   1.541  15.833  1.00  0.00     0.057 C
HETATM   15  C11 UNL     1      -3.106   3.541  14.662  1.00  0.00     0.051 C
HETATM   16  C12 UNL     1      -4.066   4.728  14.760  1.00  0.00     0.030 C
HETATM   17  C13 UNL     1      -5.300   4.221  14.048  1.00  0.00     0.234 C
HETATM   18  N2  UNL     1      -5.370   2.858  14.474  1.00  0.00    -0.057 N
ATOM     19  H22 UNL     1      -5.973   2.290  13.880  1.00  0.00     0.278 HD
ATOM     20  H21 UNL     1      -5.889   2.743  15.345  1.00  0.00     0.278 HD
ENDBRANCH  11  13
ENDBRANCH   1  11
TORSDOF 3
ENDMDL