MODEL 5
REMARK VINA RESULT: -5.748916189      4.095      7.201
REMARK  1 active torsions:
REMARK  status: ('A' for Active; 'I' for Inactive)
REMARK       I    between atoms: N1_4  and  C4_5
REMARK    1  A    between atoms: N3_7  and  N4_9
ROOT
HETATM    1  C1  UNL     1      -6.683   3.800  16.589  1.00  0.00     0.041 C
HETATM    2  C2  UNL     1      -6.420   3.401  15.153  1.00  0.00     0.136 C
HETATM    3  C3  UNL     1      -5.900   4.537  14.321  1.00  0.00     0.157 C
HETATM    4  N1  UNL     1      -4.695   4.215  13.603  1.00  0.00    -0.350 N
HETATM    5  C4  UNL     1      -4.368   4.925  12.409  1.00  0.00     0.205 C
HETATM    6  N2  UNL     1      -3.364   4.476  11.507  1.00  0.00    -0.062 NA
HETATM    7  N3  UNL     1      -4.987   6.019  12.109  1.00  0.00    -0.276 N
ATOM      8  H3  UNL     1      -5.710   6.359  12.744  1.00  0.00     0.189 HD
HETATM    9  C11 UNL     1      -3.767   3.184  14.030  1.00  0.00     0.157 C
HETATM   10  C12 UNL     1      -4.286   2.687  15.378  1.00  0.00     0.136 C
HETATM   11  C13 UNL     1      -3.424   1.541  15.845  1.00  0.00     0.041 C
HETATM   12  O1  UNL     1      -5.589   2.298  15.169  1.00  0.00    -0.378 OA
ENDROOT
BRANCH   7  13
HETATM   13  N4  UNL     1      -4.716   6.747  10.971  1.00  0.00    -0.326 N
HETATM   14  C5  UNL     1      -5.419   6.379   9.749  1.00  0.00     0.142 C
HETATM   15  C6  UNL     1      -6.355   7.479   9.310  1.00  0.00     0.021 C
HETATM   16  C7  UNL     1      -6.282   8.683  10.214  1.00  0.00     0.002 C
HETATM   17  C8  UNL     1      -5.081   9.538   9.987  1.00  0.00     0.002 C
HETATM   18  C9  UNL     1      -3.804   8.752   9.899  1.00  0.00     0.021 C
HETATM   19  C10 UNL     1      -3.755   7.810  11.090  1.00  0.00     0.142 C
ENDBRANCH   7  13
TORSDOF 1
ENDMDL