MODEL 4
REMARK VINA RESULT: -6.965029371      1.609      2.682
REMARK  2 active torsions:
REMARK  status: ('A' for Active; 'I' for Inactive)
REMARK    1  A    between atoms: C7_9  and  C8_10
REMARK       I    between atoms: C8_10  and  N2_12
REMARK    2  A    between atoms: N2_12  and  C9_14
ROOT
HETATM    1  C1  UNL     1      -0.070   4.067  10.398  1.00  0.00     0.314 C
HETATM    2  N1  UNL     1      -1.212   3.660  11.142  1.00  0.00     0.117 N
HETATM    3  C2  UNL     1      -1.541   4.519  12.245  1.00  0.00     0.228 C
HETATM    4  C3  UNL     1      -2.236   5.786  11.800  1.00  0.00     0.036 C
HETATM    5  C4  UNL     1      -3.412   5.491  10.895  1.00  0.00     0.007 C
HETATM    6  C5  UNL     1      -2.997   4.589   9.765  1.00  0.00     0.064 C
HETATM    7  C6  UNL     1      -2.367   3.342  10.357  1.00  0.00     0.359 C
HETATM    8  O1  UNL     1      -3.306   2.743  11.165  1.00  0.00    -0.342 OA
HETATM    9  C7  UNL     1      -2.867   2.489  12.445  1.00  0.00     0.218 C
HETATM   10  C15 UNL     1      -2.425   3.717  13.191  1.00  0.00     0.077 C
ENDROOT
BRANCH   9  11
HETATM   11  C8  UNL     1      -4.015   1.898  13.207  1.00  0.00     0.247 C
HETATM   12  O2  UNL     1      -4.738   0.998  12.726  1.00  0.00    -0.271 OA
HETATM   13  N2  UNL     1      -4.258   2.404  14.517  1.00  0.00    -0.354 N
ATOM     14  H2  UNL     1      -3.665   3.137  14.904  1.00  0.00     0.162 HD
BRANCH  13  15
HETATM   15  C9  UNL     1      -5.352   1.867  15.290  1.00  0.00     0.084 C
HETATM   16  C10 UNL     1      -6.173   3.017  15.852  1.00  0.00     0.025 C
HETATM   17  C11 UNL     1      -7.030   2.603  17.011  1.00  0.00     0.002 C
HETATM   18  C12 UNL     1      -7.198   1.104  16.965  1.00  0.00     0.000 C
HETATM   19  C13 UNL     1      -5.849   0.469  17.304  1.00  0.00     0.002 C
HETATM   20  C14 UNL     1      -4.787   1.000  16.375  1.00  0.00     0.025 C
ENDBRANCH  13  15
ENDBRANCH   9  11
TORSDOF 2
ENDMDL