MODEL 5
REMARK VINA RESULT: -5.802110333      1.179      1.619
REMARK  3 active torsions:
REMARK  status: ('A' for Active; 'I' for Inactive)
REMARK    1  A    between atoms: O1_2  and  C2_3
REMARK    2  A    between atoms: C5_6  and  C6_7
REMARK    3  A    between atoms: N2_16  and  C13_17
ROOT
HETATM    1  C2  UNL     1      -3.970   2.624  12.232  1.00  0.00     0.358 C
HETATM    2  C3  UNL     1      -3.242   3.313  11.108  1.00  0.00     0.065 C
HETATM    3  C4  UNL     1      -1.811   2.895  10.992  1.00  0.00     0.011 C
HETATM    4  C5  UNL     1      -0.763   3.697  11.614  1.00  0.00     0.010 C
HETATM    5  C10 UNL     1      -1.132   4.814  12.512  1.00  0.00     0.119 C
HETATM    6  N1  UNL     1      -1.130   4.458  13.918  1.00  0.00    -0.419 N
ATOM      7  H1  UNL     1      -0.293   4.124  14.397  1.00  0.00     0.153 HD
HETATM    8  C11 UNL     1      -2.380   4.609  14.579  1.00  0.00     0.144 C
HETATM    9  C12 UNL     1      -3.153   3.302  14.413  1.00  0.00     0.295 C
HETATM   10  N2  UNL     1      -4.141   3.344  13.415  1.00  0.00     0.123 N
ENDROOT
BRANCH   4  11
HETATM   11  C6  UNL     1       0.236   4.204  10.555  1.00  0.00    -0.046 C
HETATM   12  C7  UNL     1      -0.107   5.636  10.292  1.00  0.00     0.015 C
HETATM   13  C8  UNL     1       0.043   3.399   9.265  1.00  0.00     0.015 C
HETATM   14  C9  UNL     1       1.656   4.042  10.984  1.00  0.00     0.015 C
ENDBRANCH   4  11
BRANCH   1  15
HETATM   15  O1  UNL     1      -5.205   2.187  11.782  1.00  0.00    -0.362 OA
HETATM   16  C1  UNL     1      -5.151   1.163  10.865  1.00  0.00     0.204 C
ENDBRANCH   1  15
BRANCH  10  17
HETATM   17  C13 UNL     1      -5.433   3.050  13.980  1.00  0.00     0.226 A
HETATM   18  C14 UNL     1      -6.199   3.963  14.833  1.00  0.00     0.038 A
HETATM   19  C15 UNL     1      -5.592   2.648  15.412  1.00  0.00     0.038 A
ENDBRANCH  10  17
TORSDOF 3
ENDMDL