MODEL 1
REMARK VINA RESULT: -7.022376409      0.000      0.000
REMARK  2 active torsions:
REMARK  status: ('A' for Active; 'I' for Inactive)
REMARK    1  A    between atoms: C2_2  and  N1_3
REMARK    2  A    between atoms: N3_10  and  C7_11
ROOT
HETATM    1  N1  UNL     1      -2.240   3.622  10.295  1.00  0.00    -0.352 N
HETATM    2  C3  UNL     1      -1.250   2.792   9.749  1.00  0.00     0.178 C
HETATM    3  N2  UNL     1      -1.364   1.463  10.303  1.00  0.00    -0.385 N
ATOM      4  H2  UNL     1      -0.634   0.753  10.229  1.00  0.00     0.160 HD
HETATM    5  C4  UNL     1      -2.635   1.248  10.978  1.00  0.00     0.128 C
HETATM    6  C5  UNL     1      -2.679   2.162  12.157  1.00  0.00     0.044 C
HETATM    7  C6  UNL     1      -4.037   2.114  12.877  1.00  0.00     0.125 C
HETATM    8  N3  UNL     1      -4.090   3.046  13.929  1.00  0.00    -0.408 N
HETATM    9  C14 UNL     1      -3.480   4.298  13.744  1.00  0.00     0.119 C
HETATM   10  C15 UNL     1      -3.416   4.547  12.227  1.00  0.00     0.045 C
HETATM   11  C16 UNL     1      -2.414   3.596  11.683  1.00  0.00     0.098 C
ENDROOT
BRANCH   8  12
HETATM   12  C7  UNL     1      -4.726   2.731  15.125  1.00  0.00     0.079 C
HETATM   13  C8  UNL     1      -6.171   3.255  15.145  1.00  0.00     0.025 C
HETATM   14  C9  UNL     1      -6.556   3.276  16.614  1.00  0.00     0.006 C
HETATM   15  C10 UNL     1      -6.468   1.927  17.245  1.00  0.00    -0.019 C
HETATM   16  C11 UNL     1      -6.394   2.151  18.762  1.00  0.00     0.010 C
HETATM   17  C12 UNL     1      -5.266   1.132  16.869  1.00  0.00     0.006 C
HETATM   18  C13 UNL     1      -4.863   1.252  15.416  1.00  0.00     0.025 C
ENDBRANCH   8  12
BRANCH   1  19
HETATM   19  C2  UNL     1      -2.758   4.666   9.513  1.00  0.00     0.061 C
HETATM   20  C1  UNL     1      -1.964   4.900   8.246  1.00  0.00     0.055 C
ENDBRANCH   1  19
TORSDOF 2
ENDMDL