MODEL 1
REMARK VINA RESULT: -6.497092823      0.000      0.000
REMARK  2 active torsions:
REMARK  status: ('A' for Active; 'I' for Inactive)
REMARK    1  A    between atoms: C4_4  and  C5_5
REMARK       I    between atoms: C5_5  and  N1_7
REMARK    2  A    between atoms: N1_7  and  N2_9
ROOT
HETATM    1  C1  UNL     1      -3.782   7.274  10.921  1.00  0.00     0.016 C
HETATM    2  C2  UNL     1      -3.450   6.345  12.076  1.00  0.00    -0.026 A
HETATM    3  C3  UNL     1      -4.654   5.732  12.738  1.00  0.00     0.016 C
HETATM    4  C4  UNL     1      -2.195   5.507  11.853  1.00  0.00     0.097 A
HETATM    5  C10 UNL     1      -2.225   6.570  12.876  1.00  0.00    -0.020 A
HETATM    6  C11 UNL     1      -1.344   7.776  12.586  1.00  0.00     0.011 C
HETATM    7  C12 UNL     1      -1.657   8.964  13.424  1.00  0.00     0.001 C
HETATM    8  C13 UNL     1      -1.598   8.600  14.877  1.00  0.00     0.000 C
HETATM    9  C14 UNL     1      -2.665   7.537  15.109  1.00  0.00     0.001 C
HETATM   10  C15 UNL     1      -2.203   6.313  14.328  1.00  0.00     0.011 C
ENDROOT
BRANCH   4  11
HETATM   11  C5  UNL     1      -2.334   4.067  12.146  1.00  0.00     0.237 C
HETATM   12  O1  UNL     1      -1.992   3.539  13.233  1.00  0.00    -0.272 OA
HETATM   13  N1  UNL     1      -2.880   3.218  11.160  1.00  0.00    -0.289 N
ATOM     14  H1  UNL     1      -3.160   3.624  10.266  1.00  0.00     0.184 HD
BRANCH  13  15
HETATM   15  N2  UNL     1      -3.052   1.869  11.354  1.00  0.00    -0.225 NA
HETATM   16  C6  UNL     1      -2.102   0.999  10.761  1.00  0.00     0.140 C
HETATM   17  C7  UNL     1      -2.570  -0.442  11.046  1.00  0.00     0.183 C
HETATM   18  O2  UNL     1      -3.654  -0.631  10.188  1.00  0.00    -0.389 OA
HETATM   19  C8  UNL     1      -4.703   0.100  10.718  1.00  0.00     0.183 C
HETATM   20  C9  UNL     1      -4.431   1.468  11.149  1.00  0.00     0.140 C
ENDBRANCH  13  15
ENDBRANCH   4  11
TORSDOF 2
ENDMDL