MODEL 2
REMARK VINA RESULT: -6.388517017      0.587      1.297
REMARK  3 active torsions:
REMARK  status: ('A' for Active; 'I' for Inactive)
REMARK    1  A    between atoms: C5_5  and  N1_6
REMARK    2  A    between atoms: N2_9  and  N3_10
REMARK    3  A    between atoms: N3_10  and  C8_12
ROOT
HETATM    1  N1  UNL     1      -4.151   2.446  12.393  1.00  0.00    -0.406 N
HETATM    2  C6  UNL     1      -4.211   1.109  12.875  1.00  0.00     0.133 C
HETATM    3  C7  UNL     1      -4.230   1.141  14.400  1.00  0.00     0.132 C
HETATM    4  N2  UNL     1      -5.334   1.894  14.925  1.00  0.00    -0.232 NA
HETATM    5  C12 UNL     1      -5.467   3.177  14.217  1.00  0.00     0.132 C
HETATM    6  C13 UNL     1      -4.181   3.439  13.420  1.00  0.00     0.133 C
ENDROOT
BRANCH   1   7
HETATM    7  C5  UNL     1      -3.258   2.688  11.313  1.00  0.00     0.079 C
HETATM    8  C4  UNL     1      -2.556   4.012  11.573  1.00  0.00     0.025 C
HETATM    9  C3  UNL     1      -1.709   4.392  10.389  1.00  0.00     0.006 C
HETATM   10  C2  UNL     1      -1.176   3.175   9.674  1.00  0.00    -0.019 C
HETATM   11  C1  UNL     1       0.180   3.478   9.025  1.00  0.00     0.010 C
HETATM   12  C15 UNL     1      -0.921   2.068  10.675  1.00  0.00     0.006 C
HETATM   13  C14 UNL     1      -2.171   1.609  11.361  1.00  0.00     0.025 C
ENDBRANCH   1   7
BRANCH   4  14
HETATM   14  N3  UNL     1      -5.133   2.192  16.251  1.00  0.00    -0.346 N
ATOM     15  H3  UNL     1      -4.212   2.424  16.624  1.00  0.00     0.175 HD
BRANCH  14  16
HETATM   16  C8  UNL     1      -6.301   2.155  17.068  1.00  0.00     0.030 C
HETATM   17  C9  UNL     1      -6.994   3.517  17.036  1.00  0.00     0.039 C
HETATM   18  C10 UNL     1      -5.855   1.939  18.514  1.00  0.00     0.039 C
HETATM   19  C11 UNL     1      -7.311   1.125  16.695  1.00  0.00     0.039 C
ENDBRANCH  14  16
ENDBRANCH   4  14
TORSDOF 3
ENDMDL