MODEL 4
REMARK VINA RESULT: -6.131809433      2.744      3.599
REMARK  2 active torsions:
REMARK  status: ('A' for Active; 'I' for Inactive)
REMARK    1  A    between atoms: N1_4  and  C4_5
REMARK    2  A    between atoms: N2_8  and  C7_9
ROOT
HETATM    1  C4  UNL     1      -5.246   3.744  13.842  1.00  0.00     0.226 C
HETATM    2  C5  UNL     1      -3.881   3.516  13.265  1.00  0.00     0.066 C
HETATM    3  C6  UNL     1      -3.221   4.760  12.755  1.00  0.00     0.275 C
HETATM    4  N2  UNL     1      -3.688   5.971  13.359  1.00  0.00     0.095 N
HETATM    5  C11 UNL     1      -4.108   5.800  14.731  1.00  0.00     0.275 C
HETATM    6  C12 UNL     1      -5.349   4.956  14.718  1.00  0.00     0.066 C
ENDROOT
BRANCH   4   7
HETATM    7  C7  UNL     1      -2.758   7.058  13.337  1.00  0.00     0.250 C
HETATM    8  C8  UNL     1      -2.438   7.634  14.685  1.00  0.00     0.065 C
HETATM    9  C9  UNL     1      -1.168   8.402  14.387  1.00  0.00     0.234 C
HETATM   10  N3  UNL     1      -0.587   7.823  13.206  1.00  0.00    -0.073 N
HETATM   11  C10 UNL     1      -1.398   6.697  12.814  1.00  0.00     0.268 C
ATOM     12  H32 UNL     1      -0.465   8.502  12.455  1.00  0.00     0.277 HD
ATOM     13  H31 UNL     1       0.395   7.578  13.330  1.00  0.00     0.277 HD
ENDBRANCH   4   7
BRANCH   1  14
HETATM   14  N1  UNL     1      -5.655   2.604  14.647  1.00  0.00     0.093 N
HETATM   15  C3  UNL     1      -4.594   1.688  14.907  1.00  0.00     0.273 C
HETATM   16  C2  UNL     1      -4.408   1.285  16.328  1.00  0.00     0.030 C
HETATM   17  C1  UNL     1      -5.662   1.096  17.114  1.00  0.00     0.003 C
HETATM   18  C14 UNL     1      -6.825   1.911  16.643  1.00  0.00     0.030 C
HETATM   19  C13 UNL     1      -6.363   3.064  15.802  1.00  0.00     0.273 C
ENDBRANCH   1  14
TORSDOF 2
ENDMDL