MODEL 1
REMARK VINA RESULT: -6.292311081      0.000      0.000
REMARK  3 active torsions:
REMARK  status: ('A' for Active; 'I' for Inactive)
REMARK    1  A    between atoms: C2_2  and  N1_4
REMARK    2  A    between atoms: N1_4  and  C5_6
REMARK    3  A    between atoms: C8_9  and  O1_10
ROOT
HETATM    1  C5  UNL     1      -4.004   2.143  13.464  1.00  0.00     0.112 C
HETATM    2  C6  UNL     1      -4.089   0.660  13.783  1.00  0.00     0.032 C
HETATM    3  C7  UNL     1      -4.998   0.438  14.987  1.00  0.00     0.073 C
HETATM    4  C8  UNL     1      -4.600   1.469  16.007  1.00  0.00     0.259 C
HETATM    5  C9  UNL     1      -5.178   1.194  17.368  1.00  0.00     0.073 C
HETATM    6  C10 UNL     1      -6.374   2.098  17.455  1.00  0.00     0.035 C
HETATM    7  C11 UNL     1      -6.457   2.720  16.072  1.00  0.00     0.277 C
HETATM    8  N2  UNL     1      -5.086   2.746  15.569  1.00  0.00     0.129 N
HETATM    9  C12 UNL     1      -5.069   2.942  14.150  1.00  0.00     0.245 C
HETATM   10  C13 UNL     1      -4.742   4.413  13.919  1.00  0.00     0.045 C
ENDROOT
BRANCH   1  11
HETATM   11  N1  UNL     1      -3.857   2.422  12.078  1.00  0.00    -0.407 N
HETATM   12  C4  UNL     1      -4.781   1.833  11.186  1.00  0.00     0.144 C
BRANCH  11  13
HETATM   13  C2  UNL     1      -2.528   2.556  11.606  1.00  0.00     0.071 C
HETATM   14  C1  UNL     1      -2.377   3.724  10.637  1.00  0.00     0.031 C
HETATM   15  C3  UNL     1      -1.932   1.352  10.955  1.00  0.00     0.031 C
ENDBRANCH  11  13
ENDBRANCH   1  11
BRANCH   4  16
HETATM   16  O1  UNL     1      -3.208   1.527  16.185  1.00  0.00    -0.363 OA
ATOM     17  H1  UNL     1      -2.779   2.012  15.490  1.00  0.00     0.212 HD
ENDBRANCH   4  16
TORSDOF 3
ENDMDL