MODEL 5
REMARK VINA RESULT: -6.022451918      1.637      2.560
REMARK  4 active torsions:
REMARK  status: ('A' for Active; 'I' for Inactive)
REMARK    1  A    between atoms: C2_2  and  C4_4
REMARK    2  A    between atoms: C4_4  and  N1_5
REMARK    3  A    between atoms: C8_10  and  C10_12
REMARK    4  A    between atoms: C10_12  and  O1_13
ROOT
HETATM    1  N1  UNL     1      -5.267   3.253  15.356  1.00  0.00    -0.408 N
HETATM    2  C5  UNL     1      -5.236   4.480  14.640  1.00  0.00     0.147 C
HETATM    3  C6  UNL     1      -3.953   4.772  13.947  1.00  0.00     0.292 C
HETATM    4  N2  UNL     1      -3.052   3.666  13.845  1.00  0.00     0.097 N
HETATM    5  C7  UNL     1      -2.263   3.782  12.630  1.00  0.00     0.284 C
HETATM    6  C8  UNL     1      -2.948   2.998  11.563  1.00  0.00     0.006 C
HETATM    7  C9  UNL     1      -2.135   1.794  11.115  1.00  0.00     0.019 C
HETATM    8  C11 UNL     1      -4.184   2.480  12.237  1.00  0.00     0.050 C
HETATM    9  C12 UNL     1      -3.691   2.389  13.688  1.00  0.00     0.241 C
HETATM   10  C13 UNL     1      -4.785   2.114  14.650  1.00  0.00     0.152 C
ENDROOT
BRANCH   1  11
HETATM   11  C4  UNL     1      -6.448   3.033  16.121  1.00  0.00     0.120 C
BRANCH  11  12
HETATM   12  C2  UNL     1      -6.338   1.824  17.032  1.00  0.00    -0.005 C
HETATM   13  C1  UNL     1      -7.541   0.921  16.899  1.00  0.00     0.011 C
HETATM   14  C3  UNL     1      -6.316   2.301  18.481  1.00  0.00     0.011 C
ENDBRANCH  11  12
ENDBRANCH   1  11
BRANCH   6  15
HETATM   15  C10 UNL     1      -3.222   3.836  10.356  1.00  0.00     0.175 C
BRANCH  15  16
HETATM   16  O1  UNL     1      -4.462   3.463   9.841  1.00  0.00    -0.400 OA
ATOM     17  H1  UNL     1      -5.029   4.225   9.855  1.00  0.00     0.209 HD
ENDBRANCH  15  16
ENDBRANCH   6  15
TORSDOF 4
ENDMDL