MODEL 4
REMARK VINA RESULT: -6.017871105      1.429      1.518
REMARK  4 active torsions:
REMARK  status: ('A' for Active; 'I' for Inactive)
REMARK    1  A    between atoms: C2_2  and  N1_3
REMARK    2  A    between atoms: N2_7  and  C6_8
REMARK    3  A    between atoms: C6_8  and  N3_10
REMARK    4  A    between atoms: N3_10  and  C7_12
ROOT
HETATM    1  C6  UNL     1      -4.285   3.599  14.167  1.00  0.00     0.175 C
HETATM    2  S1  UNL     1      -4.965   5.060  13.867  1.00  0.00    -0.041 SA
ENDROOT
BRANCH   1   3
HETATM    3  N2  UNL     1      -3.417   3.055  13.163  1.00  0.00    -0.320 N
HETATM    4  C5  UNL     1      -2.429   3.963  12.605  1.00  0.00     0.134 C
HETATM    5  C4  UNL     1      -1.510   3.220  11.678  1.00  0.00     0.040 C
HETATM    6  C3  UNL     1      -2.381   2.351  10.788  1.00  0.00     0.125 C
HETATM    7  N1  UNL     1      -2.941   1.312  11.572  1.00  0.00    -0.377 N
HETATM    8  C11 UNL     1      -3.566   1.692  12.778  1.00  0.00     0.183 C
BRANCH   7   9
HETATM    9  C2  UNL     1      -3.598   0.283  10.821  1.00  0.00     0.119 C
HETATM   10  C1  UNL     1      -3.240  -1.101  11.216  1.00  0.00     0.026 C
ENDBRANCH   7   9
ENDBRANCH   1   3
BRANCH   1  11
HETATM   11  N3  UNL     1      -4.572   2.947  15.365  1.00  0.00    -0.360 N
ATOM     12  H3  UNL     1      -3.960   3.086  16.170  1.00  0.00     0.162 HD
BRANCH  11  13
HETATM   13  C7  UNL     1      -5.715   2.082  15.489  1.00  0.00     0.109 C
HETATM   14  C8  UNL     1      -6.707   2.487  16.525  1.00  0.00     0.053 C
HETATM   15  C9  UNL     1      -7.135   1.197  17.142  1.00  0.00     0.169 C
HETATM   16  O1  UNL     1      -6.437   0.168  16.579  1.00  0.00    -0.389 OA
HETATM   17  C10 UNL     1      -5.315   0.696  15.961  1.00  0.00     0.192 C
ENDBRANCH  11  13
ENDBRANCH   1  11
TORSDOF 4
ENDMDL