MODEL 1
REMARK VINA RESULT: -6.675378560      0.000      0.000
REMARK  3 active torsions:
REMARK  status: ('A' for Active; 'I' for Inactive)
REMARK    1  A    between atoms: O1_1  and  C1_3
REMARK    2  A    between atoms: C4_6  and  C5_7
REMARK    3  A    between atoms: C5_7  and  N1_8
ROOT
HETATM    1  C5  UNL     1      -4.708   3.496  14.264  1.00  0.00     0.038 A
HETATM    2  C13 UNL     1      -5.646   3.023  15.378  1.00  0.00     0.034 A
HETATM    3  C14 UNL     1      -6.179   3.838  14.258  1.00  0.00     0.034 A
ENDROOT
BRANCH   1   4
HETATM    4  C4  UNL     1      -3.712   4.500  14.750  1.00  0.00     0.043 C
HETATM    5  C1  UNL     1      -2.282   4.309  14.281  1.00  0.00     0.124 C
HETATM    6  C2  UNL     1      -2.166   5.839  14.318  1.00  0.00     0.033 C
HETATM    7  C3  UNL     1      -3.680   5.837  14.042  1.00  0.00     0.012 C
BRANCH   5   8
HETATM    8  O1  UNL     1      -1.433   3.736  15.194  1.00  0.00    -0.395 OA
ATOM      9  H1  UNL     1      -0.708   3.307  14.755  1.00  0.00     0.210 HD
ENDBRANCH   5   8
ENDBRANCH   1   4
BRANCH   1  10
HETATM   10  N1  UNL     1      -4.202   2.525  13.370  1.00  0.00    -0.376 N
HETATM   11  C6  UNL     1      -3.808   1.277  13.860  1.00  0.00     0.089 C
HETATM   12  C7  UNL     1      -4.471   0.158  13.088  1.00  0.00     0.316 C
HETATM   13  N2  UNL     1      -4.633   0.412  11.698  1.00  0.00     0.095 N
HETATM   14  C8  UNL     1      -3.449   0.172  10.914  1.00  0.00     0.273 C
HETATM   15  C12 UNL     1      -5.166   1.696  11.349  1.00  0.00     0.297 C
HETATM   16  C9  UNL     1      -2.546   1.316  10.743  1.00  0.00     0.032 C
HETATM   17  C10 UNL     1      -2.869   2.583  11.405  1.00  0.00     0.029 C
HETATM   18  C11 UNL     1      -4.247   2.730  11.990  1.00  0.00     0.112 C
ENDBRANCH   1  10
TORSDOF 3
ENDMDL