MODEL 5
REMARK VINA RESULT: -6.208555882      2.020      5.208
REMARK  2 active torsions:
REMARK  status: ('A' for Active; 'I' for Inactive)
REMARK    1  A    between atoms: C3_3  and  C4_4
REMARK    2  A    between atoms: C4_4  and  O1_5
ROOT
HETATM    1  C1  UNL     1      -6.258   1.954  18.797  1.00  0.00     0.012 C
HETATM    2  C2  UNL     1      -6.465   2.533  17.762  1.00  0.00    -0.114 C
HETATM    3  C3  UNL     1      -6.693   3.244  16.480  1.00  0.00     0.131 C
ENDROOT
BRANCH   3   4
HETATM    4  C4  UNL     1      -5.754   2.640  15.481  1.00  0.00     0.077 C
HETATM    5  C5  UNL     1      -4.336   2.573  15.947  1.00  0.00     0.083 C
HETATM    6  C6  UNL     1      -3.643   1.648  14.969  1.00  0.00     0.061 C
HETATM    7  N1  UNL     1      -3.769   2.001  13.619  1.00  0.00    -0.388 N
HETATM    8  C7  UNL     1      -3.544   0.855  12.774  1.00  0.00     0.126 C
HETATM    9  C12 UNL     1      -4.756   2.893  13.207  1.00  0.00     0.090 C
HETATM   10  C8  UNL     1      -3.411   1.194  11.322  1.00  0.00    -0.001 C
HETATM   11  C9  UNL     1      -3.503  -0.098  10.535  1.00  0.00     0.011 C
HETATM   12  C10 UNL     1      -4.530   2.093  10.848  1.00  0.00     0.008 C
HETATM   13  C11 UNL     1      -5.488   2.278  12.003  1.00  0.00     0.026 C
HETATM   14  C13 UNL     1      -5.771   3.356  14.165  1.00  0.00     0.040 C
HETATM   15  C14 UNL     1      -5.633   4.857  14.454  1.00  0.00     0.015 C
BRANCH   4  16
HETATM   16  O1  UNL     1      -6.191   1.325  15.238  1.00  0.00    -0.388 OA
ATOM     17  H1  UNL     1      -5.985   1.121  14.333  1.00  0.00     0.210 HD
ENDBRANCH   4  16
ENDBRANCH   3   4
TORSDOF 2
ENDMDL