MODEL 1
REMARK VINA RESULT: -7.019077916      0.000      0.000
REMARK  4 active torsions:
REMARK  status: ('A' for Active; 'I' for Inactive)
REMARK    1  A    between atoms: C1_1  and  C7_9
REMARK    2  A    between atoms: C2_2  and  C3_3
REMARK    3  A    between atoms: C7_9  and  N1_10
REMARK    4  A    between atoms: N1_10  and  C8_12
ROOT
HETATM    1  C7  UNL     1      -3.282   3.598  13.522  1.00  0.00     0.209 C
ENDROOT
BRANCH   1   2
HETATM    2  C1  UNL     1      -4.080   3.300  14.703  1.00  0.00    -0.085 C
HETATM    3  C2  UNL     1      -4.754   3.025  15.666  1.00  0.00    -0.073 C
BRANCH   3   4
HETATM    4  C3  UNL     1      -5.575   2.656  16.824  1.00  0.00     0.205 C
HETATM    5  C4  UNL     1      -7.024   2.388  16.395  1.00  0.00     0.071 C
HETATM    6  C5  UNL     1      -7.517   1.119  17.055  1.00  0.00     0.174 C
HETATM    7  O1  UNL     1      -6.737   0.050  16.625  1.00  0.00    -0.367 OA
HETATM    8  C6  UNL     1      -5.393   0.385  16.539  1.00  0.00     0.339 C
HETATM    9  O2  UNL     1      -5.080   1.466  17.374  1.00  0.00    -0.349 OA
ENDBRANCH   3   4
ENDBRANCH   1   2
BRANCH   1  10
HETATM   10  N1  UNL     1      -2.810   2.503  12.768  1.00  0.00    -0.407 N
ATOM     11  H1  UNL     1      -1.816   2.330  12.616  1.00  0.00     0.154 HD
BRANCH  10  12
HETATM   12  C8  UNL     1      -3.796   1.680  12.248  1.00  0.00     0.081 C
HETATM   13  C9  UNL     1      -4.069   0.360  12.929  1.00  0.00     0.029 C
HETATM   14  C10 UNL     1      -4.481  -0.598  11.821  1.00  0.00    -0.012 C
HETATM   15  C11 UNL     1      -3.205  -1.134  11.217  1.00  0.00     0.005 C
HETATM   16  C14 UNL     1      -4.880   0.385  10.713  1.00  0.00     0.011 C
HETATM   17  C12 UNL     1      -2.546   0.171  10.746  1.00  0.00     0.007 C
HETATM   18  C13 UNL     1      -3.591   1.228  10.812  1.00  0.00     0.008 C
ENDBRANCH  10  12
ENDBRANCH   1  10
TORSDOF 4
ENDMDL