MODEL 1
REMARK VINA RESULT: -6.187340396      0.000      0.000
REMARK  3 active torsions:
REMARK  status: ('A' for Active; 'I' for Inactive)
REMARK    1  A    between atoms: C7_7  and  C8_8
REMARK    2  A    between atoms: C7_7  and  N1_11
REMARK    3  A    between atoms: C8_8  and  O1_9
ROOT
HETATM    1  C1  UNL     1      -1.452   6.387  13.319  1.00  0.00     0.010 C
HETATM    2  C2  UNL     1      -2.282   5.494  14.227  1.00  0.00    -0.015 C
HETATM    3  C3  UNL     1      -3.641   6.025  14.524  1.00  0.00     0.015 C
HETATM    4  C4  UNL     1      -4.659   5.063  13.901  1.00  0.00    -0.009 C
HETATM    5  C5  UNL     1      -5.166   5.798  12.695  1.00  0.00     0.018 C
HETATM    6  C6  UNL     1      -5.821   5.008  14.866  1.00  0.00     0.018 C
HETATM    7  C7  UNL     1      -3.927   3.805  13.695  1.00  0.00     0.188 C
HETATM    8  C14 UNL     1      -2.495   4.202  13.463  1.00  0.00     0.049 C
ENDROOT
BRANCH   7   9
HETATM    9  C8  UNL     1      -3.950   3.129  15.089  1.00  0.00     0.206 C
BRANCH   9  10
HETATM   10  O1  UNL     1      -2.697   2.719  15.494  1.00  0.00    -0.398 OA
ATOM     11  H1  UNL     1      -2.307   3.317  16.121  1.00  0.00     0.209 HD
ENDBRANCH   9  10
ENDBRANCH   7   9
BRANCH   7  12
HETATM   12  N1  UNL     1      -4.391   2.819  12.816  1.00  0.00     0.104 N
HETATM   13  C9  UNL     1      -3.552   2.281  11.806  1.00  0.00     0.303 C
HETATM   14  C10 UNL     1      -4.319   1.166  11.065  1.00  0.00     0.302 C
HETATM   15  N2  UNL     1      -4.475   0.001  11.875  1.00  0.00     0.087 N
HETATM   16  C11 UNL     1      -3.677  -1.119  11.408  1.00  0.00     0.310 C
HETATM   17  C12 UNL     1      -4.142   0.370  13.206  1.00  0.00     0.302 C
HETATM   18  C13 UNL     1      -4.880   1.669  13.550  1.00  0.00     0.303 C
ENDBRANCH   7  12
TORSDOF 3
ENDMDL