MODEL 5
REMARK VINA RESULT: -5.726027238      1.874      3.654
REMARK  2 active torsions:
REMARK  status: ('A' for Active; 'I' for Inactive)
REMARK    1  A    between atoms: C3_3  and  C4_4
REMARK    2  A    between atoms: N2_11  and  C8_12
ROOT
HETATM    1  C1  UNL     1      -5.467   4.624  13.922  1.00  0.00     0.032 C
HETATM    2  C2  UNL     1      -4.686   4.143  15.140  1.00  0.00     0.038 C
HETATM    3  C3  UNL     1      -4.555   2.658  14.820  1.00  0.00     0.229 C
HETATM    4  N2  UNL     1      -4.653   2.538  13.411  1.00  0.00     0.099 N
HETATM    5  C12 UNL     1      -4.807   3.841  12.826  1.00  0.00     0.273 C
ENDROOT
BRANCH   3   6
HETATM    6  C4  UNL     1      -5.748   2.012  15.518  1.00  0.00     0.046 C
HETATM    7  C5  UNL     1      -6.173   2.851  16.720  1.00  0.00     0.036 C
HETATM    8  C6  UNL     1      -6.258   1.881  17.888  1.00  0.00     0.232 C
HETATM    9  N1  UNL     1      -6.453   0.615  17.183  1.00  0.00    -0.075 N
HETATM   10  C7  UNL     1      -5.392   0.715  16.182  1.00  0.00     0.239 C
ATOM     11  H12 UNL     1      -6.439  -0.224  17.763  1.00  0.00     0.277 HD
ATOM     12  H11 UNL     1      -7.392   0.448  16.820  1.00  0.00     0.277 HD
ENDBRANCH   3   6
BRANCH   4  13
HETATM   13  C8  UNL     1      -3.748   1.700  12.737  1.00  0.00     0.233 C
HETATM   14  C9  UNL     1      -4.516   0.762  11.815  1.00  0.00     0.047 C
HETATM   15  C10 UNL     1      -3.462  -0.262  11.408  1.00  0.00     0.076 C
HETATM   16  S1  UNL     1      -2.131   0.894  10.924  1.00  0.00    -0.167 SA
HETATM   17  C11 UNL     1      -2.686   2.337  11.909  1.00  0.00     0.109 C
ENDBRANCH   4  13
TORSDOF 2
ENDMDL