MODEL 3
REMARK VINA RESULT: -6.688222318      1.852      2.552
REMARK  4 active torsions:
REMARK  status: ('A' for Active; 'I' for Inactive)
REMARK    1  A    between atoms: C2_2  and  C4_4
REMARK    2  A    between atoms: C4_4  and  N1_5
REMARK    3  A    between atoms: N2_9  and  C8_10
REMARK    4  A    between atoms: C13_15  and  O1_16
ROOT
HETATM    1  N1  UNL     1      -4.518   1.830  15.114  1.00  0.00    -0.374 N
HETATM    2  C5  UNL     1      -3.312   2.228  15.773  1.00  0.00     0.125 C
HETATM    3  C6  UNL     1      -3.043   3.649  15.256  1.00  0.00     0.039 C
HETATM    4  C7  UNL     1      -3.636   3.795  13.850  1.00  0.00     0.120 C
HETATM    5  N2  UNL     1      -3.668   2.600  13.126  1.00  0.00    -0.390 N
HETATM    6  C14 UNL     1      -4.341   1.497  13.735  1.00  0.00     0.243 C
ENDROOT
BRANCH   5   7
HETATM    7  C8  UNL     1      -3.214   2.481  11.825  1.00  0.00     0.109 C
HETATM    8  C9  UNL     1      -1.967   3.295  11.626  1.00  0.00     0.032 C
HETATM    9  C10 UNL     1      -1.054   2.467  10.748  1.00  0.00    -0.014 C
HETATM   10  C11 UNL     1      -1.213   2.767   9.295  1.00  0.00     0.010 C
HETATM   11  C12 UNL     1      -1.435   1.032  11.022  1.00  0.00     0.038 C
HETATM   12  C13 UNL     1      -2.894   1.103  11.326  1.00  0.00     0.141 C
BRANCH  12  13
HETATM   13  O1  UNL     1      -3.574   0.883  10.127  1.00  0.00    -0.394 OA
ATOM     14  H1  UNL     1      -3.900  -0.010  10.115  1.00  0.00     0.210 HD
ENDBRANCH  12  13
ENDBRANCH   5   7
BRANCH   1  15
HETATM   15  C4  UNL     1      -5.542   1.252  15.845  1.00  0.00     0.093 C
BRANCH  15  16
HETATM   16  C2  UNL     1      -6.222   2.055  16.871  1.00  0.00    -0.056 C
HETATM   17  C1  UNL     1      -6.266   1.692  18.145  1.00  0.00     0.020 C
HETATM   18  C3  UNL     1      -6.875   3.326  16.480  1.00  0.00     0.049 C
ENDBRANCH  15  16
ENDBRANCH   1  15
TORSDOF 4
ENDMDL