MODEL 3
REMARK VINA RESULT: -8.262458998      1.571      1.798
REMARK  14 active torsions:
REMARK  status: ('A' for Active; 'I' for Inactive)
REMARK    1  A    between atoms: C2_2  and  C3_3
REMARK    2  A    between atoms: C3_3  and  O1_5
REMARK    3  A    between atoms: C3_3  and  C16_26
REMARK    4  A    between atoms: O1_5  and  N1_6
REMARK    5  A    between atoms: N2_9  and  C7_10
REMARK    6  A    between atoms: C7_10  and  C8_11
REMARK    7  A    between atoms: C8_11  and  C9_12
REMARK    8  A    between atoms: C9_12  and  C10_13
REMARK    9  A    between atoms: C10_13  and  C11_14
REMARK   10  A    between atoms: C11_14  and  C12_15
REMARK   11  A    between atoms: C12_15  and  C13_16
REMARK   12  A    between atoms: C13_16  and  C14_17
REMARK   13  A    between atoms: C14_17  and  O2_18
REMARK   14  A    between atoms: N3_20  and  O3_22
REMARK       I    between atoms: C16_26  and  N4_28
ROOT
HETATM    1  N1  UNL     1      -0.251   9.871 -25.141  1.00  0.00    -0.205 N
HETATM    2  C5  UNL     1      -0.990   8.551 -25.197  1.00  0.00     0.181 C
HETATM    3  C6  UNL     1      -1.299   8.398 -23.716  1.00  0.00     0.150 C
HETATM    4  N2  UNL     1      -1.721   9.772 -23.344  1.00  0.00    -0.331 N
HETATM    5  C15 UNL     1      -1.134  10.614 -24.297  1.00  0.00     0.344 C
HETATM    6  O4  UNL     1      -1.356  11.829 -24.384  1.00  0.00    -0.245 OA
ENDROOT
BRANCH   1   7
HETATM    7  O1  UNL     1       0.875  10.095 -25.727  1.00  0.00    -0.253 OA
BRANCH   7   8
HETATM    8  C3  UNL     1       1.115  10.700 -26.881  1.00  0.00     0.165 C
HETATM    9  C4  UNL     1       2.287  10.013 -27.631  1.00  0.00     0.059 C
BRANCH   8  10
HETATM   10  C2  UNL     1       0.048  10.853 -27.908  1.00  0.00     0.046 C
HETATM   11  C1  UNL     1       0.201   9.949 -29.110  1.00  0.00     0.009 C
ENDBRANCH   8  10
BRANCH   8  12
HETATM   12  C16 UNL     1       1.650  12.092 -26.617  1.00  0.00     0.258 C
HETATM   13  O5  UNL     1       2.904  12.231 -26.875  1.00  0.00    -0.270 OA
HETATM   14  N4  UNL     1       0.956  13.140 -26.152  1.00  0.00    -0.332 N
HETATM   15  C17 UNL     1       0.203  14.067 -26.402  1.00  0.00    -0.011 C
ATOM     16  H4  UNL     1       1.136  13.179 -25.149  1.00  0.00     0.168 HD
HETATM   17  C18 UNL     1      -0.326  14.400 -27.733  1.00  0.00     0.053 C
HETATM   18  C23 UNL     1      -0.237  14.965 -25.271  1.00  0.00     0.053 C
HETATM   19  C19 UNL     1      -0.817  15.829 -27.738  1.00  0.00     0.010 C
HETATM   20  C20 UNL     1      -1.831  16.139 -26.687  1.00  0.00    -0.018 C
HETATM   21  C21 UNL     1      -1.594  17.550 -26.200  1.00  0.00     0.010 C
HETATM   22  C22 UNL     1      -1.713  15.228 -25.480  1.00  0.00     0.010 C
ENDBRANCH   8  12
ENDBRANCH   7   8
ENDBRANCH   1   7
BRANCH   4  23
HETATM   23  C7  UNL     1      -2.579   9.976 -22.212  1.00  0.00     0.127 C
BRANCH  23  24
HETATM   24  C8  UNL     1      -3.993  10.263 -22.529  1.00  0.00     0.020 C
BRANCH  24  25
HETATM   25  C9  UNL     1      -4.347  11.635 -22.971  1.00  0.00     0.002 C
BRANCH  25  26
HETATM   26  C10 UNL     1      -5.487  12.188 -22.174  1.00  0.00     0.000 C
BRANCH  26  27
HETATM   27  C11 UNL     1      -6.719  12.502 -23.035  1.00  0.00     0.000 C
BRANCH  27  28
HETATM   28  C12 UNL     1      -7.664  11.315 -22.927  1.00  0.00     0.008 C
BRANCH  28  29
HETATM   29  C13 UNL     1      -8.694  11.452 -21.861  1.00  0.00     0.086 C
BRANCH  29  30
HETATM   30  C14 UNL     1      -8.554  10.561 -20.708  1.00  0.00     0.135 C
HETATM   31  N3  UNL     1      -7.441   9.963 -20.504  1.00  0.00    -0.251 N
ATOM     32  H3  UNL     1      -6.678  10.129 -21.160  1.00  0.00     0.196 HD
BRANCH  30  33
HETATM   33  O2  UNL     1      -9.572  10.310 -19.794  1.00  0.00    -0.348 OA
ATOM     34  H2  UNL     1      -9.972   9.457 -19.668  1.00  0.00     0.219 HD
ENDBRANCH  30  33
BRANCH  31  35
HETATM   35  O3  UNL     1      -7.218   9.120 -19.465  1.00  0.00    -0.288 OA
ATOM     36  H3  UNL     1      -6.471   8.536 -19.410  1.00  0.00     0.244 HD
ENDBRANCH  31  35
ENDBRANCH  29  30
ENDBRANCH  28  29
ENDBRANCH  27  28
ENDBRANCH  26  27
ENDBRANCH  25  26
ENDBRANCH  24  25
ENDBRANCH  23  24
ENDBRANCH   4  23
TORSDOF 14
ENDMDL