MODEL 4
REMARK VINA RESULT: -6.882977797      1.874      2.679
REMARK  13 active torsions:
REMARK  status: ('A' for Active; 'I' for Inactive)
REMARK    1  A    between atoms: C2_2  and  O2_4
REMARK    2  A    between atoms: O2_4  and  C3_5
REMARK    3  A    between atoms: C7_9  and  C8_10
REMARK    4  A    between atoms: C8_10  and  C9_11
REMARK    5  A    between atoms: C9_11  and  C10_12
REMARK    6  A    between atoms: C10_12  and  C11_13
REMARK    7  A    between atoms: C11_13  and  C13_15
REMARK    8  A    between atoms: C11_13  and  C21_23
REMARK    9  A    between atoms: C13_15  and  C14_16
REMARK   10  A    between atoms: C14_16  and  C15_17
REMARK   11  A    between atoms: C22_26  and  C23_27
REMARK   12  A    between atoms: C23_27  and  C24_28
REMARK   13  A    between atoms: C25_30  and  O5_32
ROOT
HETATM    1  C3  UNL     1       0.016  15.514 -26.729  1.00  0.00     0.170 C
HETATM    2  C4  UNL     1       0.535  14.377 -25.952  1.00  0.00     0.044 C
HETATM    3  C5  UNL     1       0.645  13.043 -26.610  1.00  0.00     0.013 C
HETATM    4  C6  UNL     1       2.070  12.561 -26.386  1.00  0.00     0.015 C
HETATM    5  C7  UNL     1       0.155  12.949 -28.001  1.00  0.00    -0.070 C
HETATM    6  C22 UNL     1       0.174  14.160 -28.846  1.00  0.00    -0.035 C
HETATM    7  C25 UNL     1      -0.460  15.304 -28.102  1.00  0.00     0.105 C
HETATM    8  C26 UNL     1      -0.423  16.590 -28.900  1.00  0.00     0.053 C
ENDROOT
BRANCH   5   9
HETATM    9  C8  UNL     1       0.610  11.695 -28.772  1.00  0.00     0.035 C
BRANCH   9  10
HETATM   10  C9  UNL     1      -0.220  10.505 -28.398  1.00  0.00     0.006 C
BRANCH  10  11
HETATM   11  C10 UNL     1       0.383   9.219 -28.131  1.00  0.00     0.018 C
BRANCH  11  12
HETATM   12  C11 UNL     1       0.528   8.649 -26.752  1.00  0.00     0.035 C
HETATM   13  C12 UNL     1      -0.183   7.334 -26.674  1.00  0.00     0.025 C
BRANCH  12  14
HETATM   14  C13 UNL     1       0.207   9.647 -25.696  1.00  0.00     0.018 C
BRANCH  14  15
HETATM   15  C14 UNL     1      -0.601   9.286 -24.533  1.00  0.00     0.006 C
BRANCH  15  16
HETATM   16  C15 UNL     1      -1.867   9.991 -24.231  1.00  0.00    -0.014 C
HETATM   17  C16 UNL     1      -1.644  11.501 -24.043  1.00  0.00     0.004 C
HETATM   18  C17 UNL     1      -3.005  12.124 -23.959  1.00  0.00     0.000 C
HETATM   19  C18 UNL     1      -3.999  11.214 -23.293  1.00  0.00     0.000 C
HETATM   20  C19 UNL     1      -3.296  10.440 -22.215  1.00  0.00     0.000 C
HETATM   21  C20 UNL     1      -2.286   9.520 -22.816  1.00  0.00     0.004 C
ENDBRANCH  15  16
ENDBRANCH  14  15
ENDBRANCH  12  14
BRANCH  12  22
HETATM   22  C21 UNL     1       2.020   8.341 -26.666  1.00  0.00     0.239 C
HETATM   23  N1  UNL     1       2.861   8.667 -27.744  1.00  0.00    -0.061 NA
HETATM   24  O3  UNL     1       2.459   7.813 -25.649  1.00  0.00    -0.276 OA
ENDBRANCH  12  22
ENDBRANCH  11  12
ENDBRANCH  10  11
ENDBRANCH   9  10
ENDBRANCH   5   9
BRANCH   6  25
HETATM   25  C23 UNL     1       1.369  14.479 -29.646  1.00  0.00     0.106 C
BRANCH  25  26
HETATM   26  C24 UNL     1       1.366  14.348 -31.077  1.00  0.00     0.235 C
HETATM   27  O4  UNL     1       0.530  13.776 -31.751  1.00  0.00    -0.307 OA
ENDBRANCH  25  26
ENDBRANCH   6  25
BRANCH   7  28
HETATM   28  O5  UNL     1      -1.844  14.984 -28.012  1.00  0.00    -0.383 OA
ATOM     29  H5  UNL     1      -2.145  14.823 -28.898  1.00  0.00     0.211 HD
ENDBRANCH   7  28
BRANCH   1  30
HETATM   30  O2  UNL     1      -1.057  16.183 -26.037  1.00  0.00    -0.313 OA
BRANCH  30  31
HETATM   31  C2  UNL     1      -0.903  17.257 -25.216  1.00  0.00     0.255 C
HETATM   32  C1  UNL     1      -0.214  18.462 -25.762  1.00  0.00     0.126 C
HETATM   33  O1  UNL     1      -1.345  17.189 -24.043  1.00  0.00    -0.266 OA
ENDBRANCH  30  31
ENDBRANCH   1  30
TORSDOF 13
ENDMDL