MODEL 1
REMARK VINA RESULT: -9.557644415      0.000      0.000
REMARK  12 active torsions:
REMARK  status: ('A' for Active; 'I' for Inactive)
REMARK    1  A    between atoms: C6_9  and  N3_10
REMARK       I    between atoms: N3_10  and  C7_12
REMARK    2  A    between atoms: C7_12  and  C8_14
REMARK    3  A    between atoms: C8_14  and  C9_15
REMARK    4  A    between atoms: C9_15  and  C10_16
REMARK    5  A    between atoms: C10_16  and  C11_17
REMARK    6  A    between atoms: C12_18  and  C13_19
REMARK    7  A    between atoms: C14_20  and  C15_21
REMARK    8  A    between atoms: C15_21  and  C16_22
REMARK    9  A    between atoms: C16_22  and  C17_23
REMARK   10  A    between atoms: C18_24  and  C19_25
REMARK   11  A    between atoms: C20_26  and  C21_27
REMARK   12  A    between atoms: C22_28  and  C23_29
ROOT
HETATM    1  N1  UNL     1     -12.678  10.060 -24.038  1.00  0.00    -0.196 NA
HETATM    2  C1  UNL     1     -12.171  10.822 -23.323  1.00  0.00     0.071 C
HETATM    3  C2  UNL     1     -11.504  11.776 -22.399  1.00  0.00     0.154 C
HETATM    4  C3  UNL     1     -12.529  12.215 -21.402  1.00  0.00     0.081 C
HETATM    5  N2  UNL     1     -12.031  12.866 -20.255  1.00  0.00    -0.381 N
ATOM      6  H2  UNL     1     -12.591  13.581 -19.790  1.00  0.00     0.164 HD
HETATM    7  C4  UNL     1     -10.762  12.529 -19.754  1.00  0.00     0.062 C
HETATM    8  C5  UNL     1     -10.321  11.170 -20.251  1.00  0.00     0.071 C
HETATM    9  C6  UNL     1     -10.362  11.059 -21.736  1.00  0.00     0.111 C
ENDROOT
BRANCH   9  10
HETATM   10  N3  UNL     1      -9.158  11.503 -22.430  1.00  0.00    -0.354 N
HETATM   11  C7  UNL     1      -7.848  11.209 -22.108  1.00  0.00     0.217 C
HETATM   12  O1  UNL     1      -7.489  10.537 -21.065  1.00  0.00    -0.274 OA
ATOM     13  H3  UNL     1      -9.300  12.098 -23.246  1.00  0.00     0.162 HD
BRANCH  11  14
HETATM   14  C8  UNL     1      -6.690  11.613 -22.944  1.00  0.00     0.103 C
BRANCH  14  15
HETATM   15  C9  UNL     1      -5.463  11.883 -21.991  1.00  0.00     0.013 C
BRANCH  15  16
HETATM   16  C10 UNL     1      -4.371  11.061 -22.599  1.00  0.00     0.027 C
BRANCH  16  17
HETATM   17  C11 UNL     1      -3.514  11.648 -23.618  1.00  0.00    -0.027 C
HETATM   18  C12 UNL     1      -2.315  11.012 -23.832  1.00  0.00    -0.003 C
BRANCH  18  19
HETATM   19  C13 UNL     1      -2.084   9.859 -22.973  1.00  0.00     0.008 C
HETATM   20  C14 UNL     1      -1.358   8.815 -23.409  1.00  0.00     0.055 C
BRANCH  20  21
HETATM   21  C15 UNL     1      -0.843   8.829 -24.680  1.00  0.00    -0.128 C
BRANCH  21  22
HETATM   22  C16 UNL     1      -0.387   8.833 -25.830  1.00  0.00     0.055 C
BRANCH  22  23
HETATM   23  C17 UNL     1      -0.835   9.665 -26.953  1.00  0.00     0.008 C
HETATM   24  C18 UNL     1       0.020  10.226 -27.694  1.00  0.00     0.001 C
BRANCH  24  25
HETATM   25  C19 UNL     1       0.071  11.077 -28.810  1.00  0.00     0.000 C
HETATM   26  C20 UNL     1       0.136  12.412 -28.659  1.00  0.00    -0.000 C
BRANCH  26  27
HETATM   27  C21 UNL     1       0.167  12.985 -27.359  1.00  0.00    -0.004 C
HETATM   28  C22 UNL     1       0.061  14.254 -27.011  1.00  0.00    -0.020 C
BRANCH  28  29
HETATM   29  C23 UNL     1       0.129  14.555 -25.510  1.00  0.00     0.033 C
HETATM   30  C24 UNL     1      -1.321  14.567 -25.102  1.00  0.00     0.020 C
HETATM   31  C25 UNL     1      -1.991  15.761 -25.710  1.00  0.00     0.112 C
HETATM   32  C26 UNL     1      -1.147  16.991 -25.551  1.00  0.00     0.258 C
HETATM   33  O2  UNL     1      -1.647  18.094 -25.820  1.00  0.00    -0.265 OA
HETATM   34  O3  UNL     1       0.148  16.920 -25.119  1.00  0.00    -0.321 OA
HETATM   35  C27 UNL     1       0.917  15.773 -25.220  1.00  0.00     0.187 C
ENDBRANCH  28  29
ENDBRANCH  26  27
ENDBRANCH  24  25
ENDBRANCH  22  23
ENDBRANCH  21  22
ENDBRANCH  20  21
ENDBRANCH  18  19
ENDBRANCH  16  17
ENDBRANCH  15  16
ENDBRANCH  14  15
ENDBRANCH  11  14
ENDBRANCH   9  10
TORSDOF 12
ENDMDL