MODEL 3
REMARK VINA RESULT: -7.433381917      0.994      1.436
REMARK  13 active torsions:
REMARK  status: ('A' for Active; 'I' for Inactive)
REMARK    1  A    between atoms: C2_2  and  C3_3
REMARK    2  A    between atoms: C3_3  and  C4_4
REMARK    3  A    between atoms: C4_4  and  C5_5
REMARK    4  A    between atoms: C9_12  and  C10_13
REMARK    5  A    between atoms: C10_13  and  C11_14
REMARK    6  A    between atoms: C11_14  and  C12_15
REMARK    7  A    between atoms: C12_15  and  O4_16
REMARK    8  A    between atoms: C12_15  and  C13_18
REMARK    9  A    between atoms: C13_18  and  C14_19
REMARK   10  A    between atoms: C13_18  and  C21_26
REMARK   11  A    between atoms: C14_19  and  C15_20
REMARK   12  A    between atoms: C21_26  and  N1_28
REMARK   13  A    between atoms: N1_28  and  C22_30
ROOT
HETATM    1  C12 UNL     1      -0.558  11.323 -25.974  1.00  0.00     0.056 C
ENDROOT
BRANCH   1   2
HETATM    2  C11 UNL     1       0.386  12.432 -25.885  1.00  0.00     0.068 C
BRANCH   2   3
HETATM    3  C10 UNL     1       0.793  13.157 -27.122  1.00  0.00     0.039 C
BRANCH   3   4
HETATM    4  C9  UNL     1       0.458  14.674 -27.065  1.00  0.00     0.133 C
HETATM    5  O3  UNL     1       1.601  15.289 -27.501  1.00  0.00    -0.383 OA
HETATM    6  C8  UNL     1       2.255  15.853 -26.466  1.00  0.00     0.201 C
HETATM    7  C7  UNL     1       1.427  15.801 -25.238  1.00  0.00     0.167 C
HETATM    8  O2  UNL     1       0.986  17.021 -24.729  1.00  0.00    -0.309 OA
HETATM    9  C25 UNL     1       0.169  15.029 -25.679  1.00  0.00     0.085 C
HETATM   10  C6  UNL     1      -0.400  17.053 -24.652  1.00  0.00     0.290 C
HETATM   11  C5  UNL     1      -0.975  15.857 -25.319  1.00  0.00     0.026 C
HETATM   12  O1  UNL     1      -1.047  17.969 -24.094  1.00  0.00    -0.260 OA
BRANCH  11  13
HETATM   13  C4  UNL     1      -2.109  16.094 -26.196  1.00  0.00     0.013 C
BRANCH  13  14
HETATM   14  C3  UNL     1      -2.208  17.264 -27.037  1.00  0.00    -0.004 C
BRANCH  14  15
HETATM   15  C2  UNL     1      -1.568  17.583 -28.131  1.00  0.00    -0.031 C
HETATM   16  C1  UNL     1      -0.245  18.295 -28.126  1.00  0.00     0.036 C
ENDBRANCH  14  15
ENDBRANCH  13  14
ENDBRANCH  11  13
ENDBRANCH   3   4
ENDBRANCH   2   3
ENDBRANCH   1   2
BRANCH   1  17
HETATM   17  O4  UNL     1      -0.735  10.866 -27.277  1.00  0.00    -0.364 OA
ATOM     18  H4  UNL     1      -0.820   9.921 -27.329  1.00  0.00     0.217 HD
ENDBRANCH   1  17
BRANCH   1  19
HETATM   19  C13 UNL     1      -0.677  10.257 -24.980  1.00  0.00     0.027 C
BRANCH  19  20
HETATM   20  C14 UNL     1      -1.450  10.397 -23.742  1.00  0.00    -0.005 C
BRANCH  20  21
HETATM   21  C15 UNL     1      -2.885  10.797 -23.742  1.00  0.00     0.009 C
HETATM   22  C16 UNL     1      -2.821  12.383 -23.691  1.00  0.00     0.008 C
HETATM   23  C17 UNL     1      -4.187  12.946 -23.809  1.00  0.00     0.001 C
HETATM   24  C18 UNL     1      -4.979  12.536 -22.569  1.00  0.00     0.000 C
HETATM   25  C19 UNL     1      -5.071  11.029 -22.633  1.00  0.00     0.001 C
HETATM   26  C20 UNL     1      -3.648  10.489 -22.499  1.00  0.00     0.008 C
ENDBRANCH  20  21
ENDBRANCH  19  20
BRANCH  19  27
HETATM   27  C21 UNL     1      -0.541   8.875 -25.494  1.00  0.00     0.109 C
HETATM   28  S1  UNL     1       0.864   8.348 -26.069  1.00  0.00    -0.060 SA
BRANCH  27  29
HETATM   29  N1  UNL     1      -1.622   7.993 -25.447  1.00  0.00    -0.376 N
ATOM     30  H1  UNL     1      -2.466   8.232 -25.967  1.00  0.00     0.160 HD
BRANCH  29  31
HETATM   31  C22 UNL     1      -1.605   6.748 -24.693  1.00  0.00     0.074 C
HETATM   32  C23 UNL     1      -1.878   5.618 -25.647  1.00  0.00     0.031 C
HETATM   33  C24 UNL     1      -2.564   6.789 -23.531  1.00  0.00     0.031 C
ENDBRANCH  29  31
ENDBRANCH  27  29
ENDBRANCH  19  27
ENDBRANCH   1  19
TORSDOF 13
ENDMDL