MODEL 2
REMARK VINA RESULT: -9.135685497      1.311      1.766
REMARK  12 active torsions:
REMARK  status: ('A' for Active; 'I' for Inactive)
REMARK       I    between atoms: C2_2  and  N1_4
REMARK    1  A    between atoms: C3_6  and  S1_7
REMARK    2  A    between atoms: C3_6  and  C7_14
REMARK    3  A    between atoms: S1_7  and  C4_8
REMARK    4  A    between atoms: C4_8  and  C5_9
REMARK    5  A    between atoms: C5_9  and  C6_11
REMARK    6  A    between atoms: C7_14  and  C21_28
REMARK    7  A    between atoms: C8_15  and  C9_16
REMARK    8  A    between atoms: C9_16  and  C10_17
REMARK    9  A    between atoms: C10_17  and  C12_19
REMARK   10  A    between atoms: C13_20  and  C14_21
REMARK   11  A    between atoms: C21_28  and  C22_29
REMARK   12  A    between atoms: C22_29  and  C23_30
ROOT
HETATM    1  C7  UNL     1      -1.236  10.416 -24.807  1.00  0.00    -0.028 C
HETATM    2  C8  UNL     1      -2.302  11.074 -24.437  1.00  0.00    -0.016 C
ENDROOT
BRANCH   1   3
HETATM    3  C3  UNL     1      -0.358  10.771 -25.907  1.00  0.00     0.078 C
HETATM    4  N1  UNL     1      -0.397   9.904 -26.922  1.00  0.00    -0.321 N
HETATM    5  C2  UNL     1       0.392  10.063 -28.070  1.00  0.00     0.218 C
ATOM      6  H1  UNL     1      -1.022   9.100 -26.862  1.00  0.00     0.169 HD
HETATM    7  C1  UNL     1      -0.081  10.800 -29.257  1.00  0.00     0.117 C
HETATM    8  O1  UNL     1       1.538   9.562 -28.088  1.00  0.00    -0.274 OA
BRANCH   3   9
HETATM    9  S1  UNL     1       0.741  12.084 -26.141  1.00  0.00    -0.104 SA
BRANCH   9  10
HETATM   10  C4  UNL     1       0.116  13.649 -26.622  1.00  0.00     0.171 C
BRANCH  10  11
HETATM   11  C5  UNL     1      -0.024  14.579 -25.432  1.00  0.00     0.234 C
HETATM   12  O2  UNL     1       0.818  14.470 -24.511  1.00  0.00    -0.285 OA
BRANCH  11  13
HETATM   13  C6  UNL     1      -1.109  15.539 -25.410  1.00  0.00     0.247 C
HETATM   14  O3  UNL     1      -2.125  15.332 -26.117  1.00  0.00    -0.642 OA
HETATM   15  O4  UNL     1      -1.091  16.686 -24.644  1.00  0.00    -0.642 OA
ENDBRANCH  11  13
ENDBRANCH  10  11
ENDBRANCH   9  10
ENDBRANCH   3   9
ENDBRANCH   1   3
BRANCH   1  16
HETATM   16  C21 UNL     1      -0.880   9.235 -23.938  1.00  0.00     0.051 C
BRANCH  16  17
HETATM   17  C22 UNL     1      -1.276   7.952 -24.570  1.00  0.00     0.118 C
BRANCH  17  18
HETATM   18  C23 UNL     1      -0.065   7.115 -24.846  1.00  0.00     0.172 C
HETATM   19  O5  UNL     1      -0.127   5.865 -24.859  1.00  0.00    -0.648 OA
HETATM   20  O6  UNL     1       1.118   7.801 -25.088  1.00  0.00    -0.648 OA
ENDBRANCH  17  18
ENDBRANCH  16  17
ENDBRANCH   1  16
BRANCH   2  21
HETATM   21  C9  UNL     1      -3.213  10.745 -23.335  1.00  0.00     0.036 C
BRANCH  21  22
HETATM   22  C10 UNL     1      -3.958  12.004 -22.935  1.00  0.00     0.007 C
HETATM   23  C11 UNL     1      -3.598  13.206 -23.745  1.00  0.00     0.014 C
BRANCH  22  24
HETATM   24  C12 UNL     1      -5.416  11.850 -22.865  1.00  0.00    -0.022 C
HETATM   25  C13 UNL     1      -6.054  11.304 -21.850  1.00  0.00     0.004 C
BRANCH  25  26
HETATM   26  C14 UNL     1      -7.491  11.140 -21.754  1.00  0.00    -0.056 C
HETATM   27  C15 UNL     1      -7.992  10.255 -20.903  1.00  0.00    -0.077 C
HETATM   28  C16 UNL     1      -7.069   9.445 -20.057  1.00  0.00     0.044 C
HETATM   29  C17 UNL     1      -9.449  10.025 -20.747  1.00  0.00     0.034 C
HETATM   30  C18 UNL     1     -10.267  10.671 -21.822  1.00  0.00     0.005 C
HETATM   31  C19 UNL     1      -9.762  12.046 -22.112  1.00  0.00     0.005 C
HETATM   32  C20 UNL     1      -8.331  11.987 -22.625  1.00  0.00     0.039 C
ENDBRANCH  25  26
ENDBRANCH  22  24
ENDBRANCH  21  22
ENDBRANCH   2  21
TORSDOF 12
ENDMDL