MODEL 1
REMARK VINA RESULT: -9.924607761      0.000      0.000
REMARK  12 active torsions:
REMARK  status: ('A' for Active; 'I' for Inactive)
REMARK    1  A    between atoms: C2_2  and  C3_3
REMARK    2  A    between atoms: C2_2  and  C26_31
REMARK    3  A    between atoms: C3_3  and  C4_4
REMARK    4  A    between atoms: C5_5  and  C6_6
REMARK    5  A    between atoms: C8_8  and  O1_9
REMARK    6  A    between atoms: C11_14  and  C12_15
REMARK    7  A    between atoms: C12_15  and  C13_16
REMARK    8  A    between atoms: C13_16  and  C14_17
REMARK    9  A    between atoms: C14_17  and  C15_19
REMARK   10  A    between atoms: C16_20  and  C17_21
REMARK   11  A    between atoms: C17_21  and  C18_23
REMARK   12  A    between atoms: C26_31  and  C27_32
ROOT
HETATM    1  C6  UNL     1      -0.610  11.768 -25.201  1.00  0.00     0.021 C
HETATM    2  C7  UNL     1       0.446  10.940 -25.788  1.00  0.00     0.041 C
HETATM    3  C8  UNL     1      -0.074   9.729 -26.549  1.00  0.00     0.125 C
HETATM    4  C9  UNL     1      -1.348   9.252 -25.923  1.00  0.00     0.110 C
HETATM    5  C10 UNL     1      -1.331   9.592 -24.483  1.00  0.00     0.134 C
HETATM    6  O2  UNL     1      -1.272   8.711 -23.661  1.00  0.00    -0.297 OA
HETATM    7  C11 UNL     1      -1.379  11.003 -24.093  1.00  0.00     0.063 C
ENDROOT
BRANCH   7   8
HETATM    8  C12 UNL     1      -2.748  11.568 -24.045  1.00  0.00     0.020 C
BRANCH   8   9
HETATM    9  C13 UNL     1      -3.674  11.135 -22.976  1.00  0.00     0.084 C
BRANCH   9  10
HETATM   10  C14 UNL     1      -4.919  11.831 -22.743  1.00  0.00     0.149 C
HETATM   11  O3  UNL     1      -4.862  13.048 -22.386  1.00  0.00    -0.293 OA
BRANCH  10  12
HETATM   12  C15 UNL     1      -6.237  11.200 -22.901  1.00  0.00     0.054 C
HETATM   13  C16 UNL     1      -7.384  11.802 -22.900  1.00  0.00     0.054 C
BRANCH  13  14
HETATM   14  C17 UNL     1      -8.694  11.238 -23.051  1.00  0.00     0.153 C
HETATM   15  O4  UNL     1      -9.431  11.565 -24.046  1.00  0.00    -0.293 OA
BRANCH  14  16
HETATM   16  C18 UNL     1      -9.274  10.247 -22.084  1.00  0.00     0.064 C
HETATM   17  C19 UNL     1      -9.086  10.752 -20.676  1.00  0.00     0.017 C
HETATM   18  C20 UNL     1     -10.297  11.194 -19.955  1.00  0.00     0.034 C
HETATM   19  C21 UNL     1     -11.377  11.686 -20.835  1.00  0.00    -0.082 C
HETATM   20  C22 UNL     1     -12.222  12.810 -20.377  1.00  0.00     0.043 C
HETATM   21  C23 UNL     1     -11.556  11.112 -21.991  1.00  0.00    -0.081 C
HETATM   22  C24 UNL     1     -12.640  11.608 -22.874  1.00  0.00     0.043 C
HETATM   23  C25 UNL     1     -10.708   9.974 -22.424  1.00  0.00     0.046 C
ENDBRANCH  14  16
ENDBRANCH  13  14
ENDBRANCH  10  12
ENDBRANCH   9  10
ENDBRANCH   8   9
ENDBRANCH   7   8
BRANCH   1  24
HETATM   24  C5  UNL     1      -0.216  13.078 -24.687  1.00  0.00    -0.025 C
HETATM   25  C4  UNL     1       0.110  14.210 -25.202  1.00  0.00    -0.026 C
BRANCH  25  26
HETATM   26  C3  UNL     1       0.237  14.706 -26.577  1.00  0.00     0.060 C
BRANCH  26  27
HETATM   27  C2  UNL     1      -0.906  15.627 -26.922  1.00  0.00    -0.076 C
HETATM   28  C1  UNL     1      -1.128  15.879 -28.200  1.00  0.00     0.015 C
BRANCH  27  29
HETATM   29  C26 UNL     1      -1.762  16.274 -25.906  1.00  0.00     0.146 C
BRANCH  29  30
HETATM   30  C27 UNL     1      -1.218  17.500 -25.323  1.00  0.00     0.176 C
HETATM   31  O5  UNL     1      -1.065  17.610 -24.090  1.00  0.00    -0.648 OA
HETATM   32  O6  UNL     1      -0.861  18.561 -26.132  1.00  0.00    -0.648 OA
ENDBRANCH  29  30
ENDBRANCH  27  29
ENDBRANCH  26  27
ENDBRANCH  25  26
ENDBRANCH   1  24
BRANCH   3  33
HETATM   33  O1  UNL     1       0.872   8.712 -26.408  1.00  0.00    -0.395 OA
ATOM     34  H1  UNL     1       0.629   8.015 -27.006  1.00  0.00     0.210 HD
ENDBRANCH   3  33
TORSDOF 12
ENDMDL