MODEL 3
REMARK VINA RESULT: -7.542145116      2.348      8.392
REMARK  14 active torsions:
REMARK  status: ('A' for Active; 'I' for Inactive)
REMARK    1  A    between atoms: C2_2  and  C3_3
REMARK    2  A    between atoms: C4_4  and  C5_5
REMARK    3  A    between atoms: C7_7  and  O1_8
REMARK    4  A    between atoms: O1_8  and  C8_9
REMARK    5  A    between atoms: C8_9  and  C9_11
REMARK    6  A    between atoms: C9_11  and  O3_12
REMARK    7  A    between atoms: C9_11  and  C10_14
REMARK    8  A    between atoms: C10_14  and  C11_15
REMARK    9  A    between atoms: C11_15  and  C12_16
REMARK   10  A    between atoms: C14_18  and  C15_19
REMARK   11  A    between atoms: C15_19  and  C17_21
REMARK   12  A    between atoms: C19_25  and  C20_26
REMARK   13  A    between atoms: C20_26  and  C21_27
REMARK   14  A    between atoms: C26_32  and  O6_33
ROOT
HETATM    1  C5  UNL     1      -2.218  13.867 -25.282  1.00  0.00     0.017 C
HETATM    2  C6  UNL     1      -2.334  15.200 -25.984  1.00  0.00     0.042 C
HETATM    3  C7  UNL     1      -0.920  15.491 -25.595  1.00  0.00     0.137 C
HETATM    4  C14 UNL     1      -0.756  14.061 -25.137  1.00  0.00     0.029 C
ENDROOT
BRANCH   4   5
HETATM    5  C15 UNL     1       0.036  13.169 -26.068  1.00  0.00     0.021 C
HETATM    6  C16 UNL     1       1.271  13.803 -26.619  1.00  0.00     0.013 C
BRANCH   5   7
HETATM    7  C17 UNL     1       0.295  11.815 -25.446  1.00  0.00     0.164 C
HETATM    8  O4  UNL     1       1.211  11.078 -26.224  1.00  0.00    -0.313 OA
HETATM    9  C18 UNL     1       1.282   9.709 -26.183  1.00  0.00     0.263 C
HETATM   10  O5  UNL     1       2.400   9.149 -26.173  1.00  0.00    -0.265 OA
HETATM   11  C19 UNL     1       0.061   8.918 -26.150  1.00  0.00     0.091 C
HETATM   12  C25 UNL     1      -1.119   9.827 -26.103  1.00  0.00     0.049 C
HETATM   13  C26 UNL     1      -0.937  11.024 -25.203  1.00  0.00     0.148 C
BRANCH  11  14
HETATM   14  C20 UNL     1       0.027   7.838 -25.103  1.00  0.00     0.042 C
BRANCH  14  15
HETATM   15  C21 UNL     1      -0.763   6.665 -25.487  1.00  0.00    -0.024 C
HETATM   16  C22 UNL     1      -1.834   6.331 -24.775  1.00  0.00    -0.091 C
HETATM   17  C23 UNL     1      -2.222   7.148 -23.592  1.00  0.00     0.042 C
HETATM   18  C24 UNL     1      -2.683   5.155 -25.108  1.00  0.00     0.042 C
ENDBRANCH  14  15
ENDBRANCH  11  14
BRANCH  13  19
HETATM   19  O6  UNL     1      -0.990  10.536 -23.874  1.00  0.00    -0.393 OA
ATOM     20  H6  UNL     1      -0.988   9.586 -23.849  1.00  0.00     0.210 HD
ENDBRANCH  13  19
ENDBRANCH   5   7
ENDBRANCH   4   5
BRANCH   1  21
HETATM   21  C4  UNL     1      -3.053  13.702 -24.090  1.00  0.00    -0.026 C
HETATM   22  C3  UNL     1      -3.922  12.735 -23.857  1.00  0.00    -0.031 C
BRANCH  22  23
HETATM   23  C2  UNL     1      -4.707  12.682 -22.605  1.00  0.00     0.022 C
HETATM   24  C1  UNL     1      -5.206  11.285 -22.420  1.00  0.00     0.009 C
ENDBRANCH  22  23
ENDBRANCH   1  21
BRANCH   3  25
HETATM   25  O1  UNL     1      -0.741  16.469 -24.596  1.00  0.00    -0.314 OA
BRANCH  25  26
HETATM   26  C8  UNL     1      -0.317  17.767 -24.863  1.00  0.00     0.288 C
HETATM   27  O2  UNL     1      -1.238  18.577 -25.150  1.00  0.00    -0.262 OA
BRANCH  26  28
HETATM   28  C9  UNL     1       1.098  18.178 -24.819  1.00  0.00     0.217 C
BRANCH  28  29
HETATM   29  O3  UNL     1       1.130  19.552 -25.151  1.00  0.00    -0.386 OA
ATOM     30  H3  UNL     1       1.549  19.998 -24.424  1.00  0.00     0.210 HD
ENDBRANCH  28  29
BRANCH  28  31
HETATM   31  C10 UNL     1       1.927  17.486 -25.879  1.00  0.00     0.042 C
BRANCH  31  32
HETATM   32  C11 UNL     1       1.742  18.089 -27.232  1.00  0.00     0.003 C
BRANCH  32  33
HETATM   33  C12 UNL     1       0.976  17.205 -28.179  1.00  0.00    -0.004 C
HETATM   34  C13 UNL     1      -0.315  17.861 -28.630  1.00  0.00     0.005 C
ENDBRANCH  32  33
ENDBRANCH  31  32
ENDBRANCH  28  31
ENDBRANCH  26  28
ENDBRANCH  25  26
ENDBRANCH   3  25
TORSDOF 14
ENDMDL