MODEL 2
REMARK VINA RESULT: -8.162515196      1.245      1.419
REMARK  12 active torsions:
REMARK  status: ('A' for Active; 'I' for Inactive)
REMARK    1  A    between atoms: C2_2  and  C3_3
REMARK    2  A    between atoms: C3_3  and  C4_4
REMARK    3  A    between atoms: C4_4  and  O1_5
REMARK    4  A    between atoms: O1_5  and  C5_6
REMARK    5  A    between atoms: C5_6  and  C6_8
REMARK    6  A    between atoms: C6_8  and  C7_9
REMARK    7  A    between atoms: C6_8  and  N3_21
REMARK    8  A    between atoms: C7_9  and  C8_10
REMARK    9  A    between atoms: C8_10  and  C9_11
REMARK   10  A    between atoms: C9_11  and  C10_12
REMARK   11  A    between atoms: N2_17  and  C13_18
REMARK       I    between atoms: N3_21  and  C16_23
REMARK       I    between atoms: C16_23  and  N4_25
REMARK   12  A    between atoms: N4_25  and  C17_27
ROOT
HETATM    1  C6  UNL     1      -3.452  11.651 -23.698  1.00  0.00     0.186 C
ENDROOT
BRANCH   1   2
HETATM    2  C5  UNL     1      -2.450  12.672 -24.178  1.00  0.00     0.281 C
HETATM    3  O2  UNL     1      -2.732  13.870 -24.219  1.00  0.00    -0.263 OA
BRANCH   2   4
HETATM    4  O1  UNL     1      -1.215  12.215 -24.568  1.00  0.00    -0.320 OA
BRANCH   4   5
HETATM    5  C4  UNL     1      -0.131  13.067 -24.865  1.00  0.00     0.178 C
BRANCH   5   6
HETATM    6  C3  UNL     1       0.139  13.060 -26.356  1.00  0.00     0.026 C
BRANCH   6   7
HETATM    7  C2  UNL     1       1.255  14.056 -26.652  1.00  0.00    -0.002 C
HETATM    8  C1  UNL     1       1.327  15.012 -25.491  1.00  0.00     0.005 C
ENDBRANCH   6   7
ENDBRANCH   5   6
ENDBRANCH   4   5
ENDBRANCH   2   4
ENDBRANCH   1   2
BRANCH   1   9
HETATM    9  C7  UNL     1      -2.795  10.819 -22.648  1.00  0.00     0.036 C
BRANCH   9  10
HETATM   10  C8  UNL     1      -2.612   9.400 -22.974  1.00  0.00     0.010 C
BRANCH  10  11
HETATM   11  C9  UNL     1      -1.243   8.817 -23.039  1.00  0.00     0.076 C
BRANCH  11  12
HETATM   12  C10 UNL     1      -0.909   8.597 -24.485  1.00  0.00     0.083 A
HETATM   13  N1  UNL     1      -0.556   9.581 -25.323  1.00  0.00    -0.354 N
HETATM   14  C11 UNL     1      -0.337   9.011 -26.538  1.00  0.00     0.106 A
ATOM     15  H1  UNL     1      -0.469  10.571 -25.093  1.00  0.00     0.166 HD
HETATM   16  C12 UNL     1      -0.573   7.675 -26.379  1.00  0.00     0.110 A
HETATM   17  N2  UNL     1      -0.928   7.407 -25.108  1.00  0.00    -0.341 N
BRANCH  17  18
HETATM   18  C13 UNL     1      -1.248   6.108 -24.619  1.00  0.00     0.091 A
HETATM   19  C14 UNL     1      -2.757   5.867 -24.361  1.00  0.00     0.028 A
HETATM   20  C15 UNL     1      -1.984   5.072 -25.324  1.00  0.00     0.028 A
ENDBRANCH  17  18
ENDBRANCH  11  12
ENDBRANCH  10  11
ENDBRANCH   9  10
ENDBRANCH   1   9
BRANCH   1  21
HETATM   21  N3  UNL     1      -4.668  12.304 -23.331  1.00  0.00    -0.329 N
HETATM   22  C16 UNL     1      -5.830  11.600 -22.902  1.00  0.00     0.317 C
HETATM   23  O3  UNL     1      -5.787  10.347 -22.864  1.00  0.00    -0.247 OA
HETATM   24  N4  UNL     1      -7.023  12.298 -22.523  1.00  0.00    -0.334 N
ATOM     25  H4  UNL     1      -7.014  13.316 -22.573  1.00  0.00     0.165 HD
ATOM     26  H3  UNL     1      -4.706  13.322 -23.377  1.00  0.00     0.165 HD
BRANCH  24  27
HETATM   27  C17 UNL     1      -8.224  11.660 -22.081  1.00  0.00     0.035 C
HETATM   28  C18 UNL     1      -7.997  10.658 -20.982  1.00  0.00     0.035 C
HETATM   29  C19 UNL     1      -9.313  10.011 -20.609  1.00  0.00    -0.012 C
HETATM   30  C20 UNL     1     -10.355  11.020 -20.182  1.00  0.00     0.009 C
HETATM   31  C24 UNL     1      -9.892   9.244 -21.777  1.00  0.00     0.009 C
HETATM   32  C21 UNL     1     -10.554  12.012 -21.303  1.00  0.00    -0.012 C
HETATM   33  C22 UNL     1     -11.125  11.289 -22.480  1.00  0.00     0.009 C
HETATM   34  C26 UNL     1      -9.229  12.677 -21.583  1.00  0.00     0.035 C
HETATM   35  C23 UNL     1     -10.128  10.225 -22.895  1.00  0.00    -0.012 C
HETATM   36  C25 UNL     1      -8.851  10.930 -23.255  1.00  0.00     0.035 C
ENDBRANCH  24  27
ENDBRANCH   1  21
TORSDOF 12
ENDMDL