MODEL 5
REMARK VINA RESULT: -6.610791757      2.862      9.087
REMARK  11 active torsions:
REMARK  status: ('A' for Active; 'I' for Inactive)
REMARK    1  A    between atoms: C2_2  and  C3_3
REMARK    2  A    between atoms: C3_3  and  C5_5
REMARK    3  A    between atoms: C5_5  and  O1_6
REMARK    4  A    between atoms: C5_5  and  O2_8
REMARK    5  A    between atoms: O2_8  and  C6_9
REMARK    6  A    between atoms: C16_19  and  C17_20
REMARK    7  A    between atoms: C16_19  and  C20_25
REMARK    8  A    between atoms: C17_20  and  C18_21
REMARK    9  A    between atoms: C18_21  and  C19_22
REMARK   10  A    between atoms: C20_25  and  C21_26
REMARK   11  A    between atoms: C21_26  and  C23_28
ROOT
HETATM    1  C6  UNL     1       0.877   9.680 -26.808  1.00  0.00     0.128 C
HETATM    2  C7  UNL     1       2.289  10.078 -26.966  1.00  0.00     0.033 C
HETATM    3  C8  UNL     1       2.502  11.461 -26.337  1.00  0.00     0.016 C
HETATM    4  C9  UNL     1       1.996  12.417 -27.393  1.00  0.00    -0.016 C
HETATM    5  C10 UNL     1       2.846  12.242 -28.607  1.00  0.00     0.020 C
HETATM    6  C11 UNL     1       0.562  12.054 -27.596  1.00  0.00    -0.072 C
HETATM    7  C12 UNL     1      -0.188  13.050 -28.046  1.00  0.00    -0.022 C
HETATM    8  C13 UNL     1       0.240  14.408 -28.348  1.00  0.00     0.036 C
HETATM    9  C14 UNL     1       1.584  14.851 -27.914  1.00  0.00     0.023 C
HETATM   10  C15 UNL     1       1.635  16.053 -27.012  1.00  0.00    -0.073 C
HETATM   11  C16 UNL     1       1.669  17.387 -27.494  1.00  0.00    -0.076 C
HETATM   12  C24 UNL     1       0.715  15.587 -25.920  1.00  0.00     0.035 C
HETATM   13  C25 UNL     1       1.223  14.132 -25.730  1.00  0.00     0.010 C
HETATM   14  C26 UNL     1       2.096  13.814 -26.889  1.00  0.00     0.007 C
HETATM   15  C27 UNL     1      -0.038  10.746 -27.330  1.00  0.00     0.066 C
ENDROOT
BRANCH  11  16
HETATM   16  C17 UNL     1       1.686  18.531 -26.513  1.00  0.00     0.045 C
BRANCH  16  17
HETATM   17  C18 UNL     1       2.826  18.699 -25.603  1.00  0.00     0.117 C
BRANCH  17  18
HETATM   18  C19 UNL     1       2.462  18.751 -24.142  1.00  0.00     0.172 C
HETATM   19  O3  UNL     1       3.258  19.362 -23.392  1.00  0.00    -0.648 OA
HETATM   20  O4  UNL     1       1.320  18.166 -23.642  1.00  0.00    -0.648 OA
ENDBRANCH  17  18
ENDBRANCH  16  17
ENDBRANCH  11  16
BRANCH  11  21
HETATM   21  C20 UNL     1       1.074  17.882 -28.756  1.00  0.00     0.045 C
BRANCH  21  22
HETATM   22  C21 UNL     1      -0.215  18.643 -28.698  1.00  0.00     0.047 C
HETATM   23  C22 UNL     1      -0.602  19.018 -30.160  1.00  0.00     0.017 C
BRANCH  22  24
HETATM   24  C23 UNL     1      -1.351  17.787 -28.232  1.00  0.00     0.235 C
HETATM   25  O5  UNL     1      -1.929  17.930 -27.175  1.00  0.00    -0.306 OA
ENDBRANCH  22  24
ENDBRANCH  21  22
ENDBRANCH  11  21
BRANCH   1  26
HETATM   26  O2  UNL     1       0.488   9.344 -25.522  1.00  0.00    -0.356 OA
BRANCH  26  27
HETATM   27  C5  UNL     1      -0.684   8.636 -25.451  1.00  0.00     0.261 C
BRANCH  27  28
HETATM   28  C3  UNL     1      -0.603   7.255 -24.905  1.00  0.00     0.036 C
HETATM   29  C4  UNL     1       0.808   6.678 -24.901  1.00  0.00     0.015 C
BRANCH  28  30
HETATM   30  C2  UNL     1      -1.592   6.277 -25.494  1.00  0.00     0.004 C
HETATM   31  C1  UNL     1      -2.556   5.899 -24.371  1.00  0.00     0.005 C
ENDBRANCH  28  30
ENDBRANCH  27  28
BRANCH  27  32
HETATM   32  O1  UNL     1      -1.688   9.307 -24.747  1.00  0.00    -0.371 OA
ATOM     33  H1  UNL     1      -1.320  10.126 -24.435  1.00  0.00     0.212 HD
ENDBRANCH  27  32
ENDBRANCH  26  27
ENDBRANCH   1  26
TORSDOF 11
ENDMDL