MODEL 5
REMARK VINA RESULT: -7.955678470      2.228      3.376
REMARK  12 active torsions:
REMARK  status: ('A' for Active; 'I' for Inactive)
REMARK    1  A    between atoms: C2_2  and  C3_3
REMARK    2  A    between atoms: C3_3  and  O1_4
REMARK    3  A    between atoms: C3_3  and  C4_6
REMARK    4  A    between atoms: C4_6  and  C7_9
REMARK    5  A    between atoms: C11_13  and  C12_14
REMARK    6  A    between atoms: C13_15  and  C14_16
REMARK    7  A    between atoms: C14_16  and  C15_17
REMARK    8  A    between atoms: C15_17  and  O2_18
REMARK    9  A    between atoms: O2_18  and  C16_19
REMARK   10  A    between atoms: C16_19  and  C17_21
REMARK   11  A    between atoms: C18_22  and  C19_23
REMARK   12  A    between atoms: C20_26  and  N1_27
ROOT
HETATM    1  C7  UNL     1       0.566   9.876 -25.868  1.00  0.00    -0.042 C
HETATM    2  C8  UNL     1      -0.667  10.684 -26.145  1.00  0.00     0.042 C
HETATM    3  C9  UNL     1      -1.131  10.846 -24.684  1.00  0.00     0.045 C
HETATM    4  C10 UNL     1      -0.956   9.486 -24.117  1.00  0.00    -0.031 C
HETATM    5  C11 UNL     1      -1.622   9.070 -23.084  1.00  0.00     0.009 C
HETATM    6  C20 UNL     1       0.115   8.824 -24.968  1.00  0.00     0.039 C
ENDROOT
BRANCH   5   7
HETATM    7  C12 UNL     1      -2.613   9.695 -22.244  1.00  0.00     0.000 C
HETATM    8  C13 UNL     1      -3.892  10.266 -22.450  1.00  0.00    -0.002 C
BRANCH   8   9
HETATM    9  C14 UNL     1      -4.224  11.547 -23.084  1.00  0.00    -0.000 C
BRANCH   9  10
HETATM   10  C15 UNL     1      -5.471  12.286 -22.899  1.00  0.00     0.206 C
BRANCH  10  11
HETATM   11  O2  UNL     1      -6.546  11.443 -22.907  1.00  0.00    -0.314 OA
BRANCH  11  12
HETATM   12  C16 UNL     1      -7.434  11.019 -22.014  1.00  0.00     0.283 C
HETATM   13  O3  UNL     1      -7.060  10.478 -20.915  1.00  0.00    -0.260 OA
BRANCH  12  14
HETATM   14  C17 UNL     1      -8.891  11.127 -22.229  1.00  0.00     0.089 C
HETATM   15  C18 UNL     1      -9.635  10.754 -23.201  1.00  0.00     0.090 C
BRANCH  15  16
HETATM   16  C19 UNL     1     -11.119  11.030 -23.040  1.00  0.00     0.198 C
HETATM   17  O4  UNL     1     -11.494  11.815 -22.178  1.00  0.00    -0.645 OA
HETATM   18  O5  UNL     1     -12.021  10.384 -23.883  1.00  0.00    -0.645 OA
ENDBRANCH  15  16
ENDBRANCH  12  14
ENDBRANCH  11  12
ENDBRANCH  10  11
ENDBRANCH   9  10
ENDBRANCH   8   9
ENDBRANCH   5   7
BRANCH   6  19
HETATM   19  N1  UNL     1      -0.120   7.519 -25.331  1.00  0.00    -0.380 N
HETATM   20  C21 UNL     1       0.767   6.466 -25.365  1.00  0.00     0.123 C
HETATM   21  C22 UNL     1       0.205   5.214 -24.658  1.00  0.00     0.020 C
HETATM   22  C23 UNL     1      -1.010   4.676 -25.413  1.00  0.00     0.002 C
HETATM   23  C24 UNL     1      -2.245   5.376 -24.916  1.00  0.00     0.002 C
HETATM   24  C25 UNL     1      -2.443   6.671 -25.616  1.00  0.00     0.020 C
HETATM   25  C26 UNL     1      -1.233   7.306 -26.204  1.00  0.00     0.123 C
ENDBRANCH   6  19
BRANCH   1  26
HETATM   26  C4  UNL     1       1.508   9.789 -26.946  1.00  0.00     0.004 C
HETATM   27  C5  UNL     1       2.749   9.016 -26.744  1.00  0.00     0.022 C
HETATM   28  C6  UNL     1       0.834   9.370 -28.288  1.00  0.00     0.022 C
BRANCH  26  29
HETATM   29  C3  UNL     1       1.954  11.218 -27.357  1.00  0.00     0.130 C
BRANCH  29  30
HETATM   30  C2  UNL     1       2.719  11.249 -28.627  1.00  0.00     0.028 C
HETATM   31  C1  UNL     1       3.625  12.487 -28.559  1.00  0.00     0.007 C
ENDBRANCH  29  30
BRANCH  29  32
HETATM   32  O1  UNL     1       2.736  11.663 -26.269  1.00  0.00    -0.395 OA
ATOM     33  H1  UNL     1       3.218  10.948 -25.870  1.00  0.00     0.210 HD
ENDBRANCH  29  32
ENDBRANCH  26  29
ENDBRANCH   1  26
TORSDOF 12
ENDMDL