MODEL 4
REMARK VINA RESULT: -7.556841648      4.096      7.010
REMARK  17 active torsions:
REMARK  status: ('A' for Active; 'I' for Inactive)
REMARK    1  A    between atoms: C2_2  and  C3_3
REMARK    2  A    between atoms: C3_3  and  C4_4
REMARK    3  A    between atoms: C4_4  and  N1_5
REMARK    4  A    between atoms: N1_5  and  C5_7
REMARK    5  A    between atoms: C6_10  and  N3_11
REMARK    6  A    between atoms: N3_11  and  C7_12
REMARK    7  A    between atoms: C7_12  and  C8_13
REMARK    8  A    between atoms: C9_14  and  C10_15
REMARK    9  A    between atoms: C10_15  and  O1_16
REMARK   10  A    between atoms: C10_15  and  C11_18
REMARK   11  A    between atoms: C11_18  and  O2_19
REMARK   12  A    between atoms: C12_23  and  N5_24
REMARK   13  A    between atoms: N5_24  and  C13_26
REMARK   14  A    between atoms: C13_26  and  C14_27
REMARK   15  A    between atoms: C14_27  and  C15_28
REMARK   16  A    between atoms: C15_28  and  N6_29
REMARK   17  A    between atoms: N6_29  and  C16_32
ROOT
HETATM    1  C5  UNL     1       9.836  38.146  -3.081  1.00  0.00     0.696 A
HETATM    2  N2  UNL     1       8.862  39.057  -2.927  1.00  0.00    -0.148 N
ATOM      3  H2  UNL     1       8.162  38.906  -2.201  1.00  0.00     0.188 HD
HETATM    4  C6  UNL     1       8.770  40.183  -3.707  1.00  0.00     0.287 A
HETATM    5  N4  UNL     1       9.754  40.300  -4.653  1.00  0.00    -0.148 N
ATOM      6  H4  UNL     1       9.739  41.116  -5.263  1.00  0.00     0.188 HD
HETATM    7  C12 UNL     1      10.728  39.410  -4.823  1.00  0.00     0.696 A
HETATM    8  N7  UNL     1      10.764  38.320  -4.023  1.00  0.00    -0.022 N
ATOM      9  H7  UNL     1      11.504  37.629  -4.140  1.00  0.00     0.203 HD
ENDROOT
BRANCH   7  10
HETATM   10  N5  UNL     1      11.666  39.486  -5.705  1.00  0.00    -0.225 N
ATOM     11  H5  UNL     1      12.532  39.943  -5.418  1.00  0.00     0.177 HD
BRANCH  10  12
HETATM   12  C13 UNL     1      11.610  38.993  -7.046  1.00  0.00     0.139 C
BRANCH  12  13
HETATM   13  C14 UNL     1      13.006  38.466  -7.398  1.00  0.00     0.048 C
BRANCH  13  14
HETATM   14  C15 UNL     1      13.247  38.785  -8.860  1.00  0.00     0.234 C
BRANCH  14  15
HETATM   15  N6  UNL     1      14.506  38.346  -9.358  1.00  0.00    -0.071 N
ATOM     16  H62 UNL     1      15.237  39.036  -9.190  1.00  0.00     0.277 HD
ATOM     17  H61 UNL     1      14.882  37.579  -8.801  1.00  0.00     0.277 HD
BRANCH  15  18
HETATM   18  C16 UNL     1      14.421  37.997 -10.744  1.00  0.00     0.185 C
HETATM   19  C17 UNL     1      14.312  39.181 -11.642  1.00  0.00     0.033 C
HETATM   20  C18 UNL     1      14.091  38.698 -13.062  1.00  0.00     0.002 C
HETATM   21  C19 UNL     1      14.359  37.215 -13.212  1.00  0.00     0.000 C
HETATM   22  C20 UNL     1      13.465  36.398 -12.301  1.00  0.00     0.002 C
HETATM   23  C21 UNL     1      13.165  37.143 -11.015  1.00  0.00     0.033 C
ENDBRANCH  15  18
ENDBRANCH  14  15
ENDBRANCH  13  14
ENDBRANCH  12  13
ENDBRANCH  10  12
ENDBRANCH   7  10
BRANCH   4  24
HETATM   24  N3  UNL     1       7.927  41.012  -3.601  1.00  0.00    -0.383 NA
BRANCH  24  25
HETATM   25  C7  UNL     1       6.963  41.921  -3.469  1.00  0.00     0.186 C
BRANCH  25  26
HETATM   26  C8  UNL     1       7.359  43.354  -3.347  1.00  0.00     0.030 C
HETATM   27  C9  UNL     1       7.920  43.995  -4.316  1.00  0.00     0.009 C
BRANCH  27  28
HETATM   28  C10 UNL     1       8.261  43.488  -5.647  1.00  0.00     0.164 C
BRANCH  28  29
HETATM   29  O1  UNL     1       9.563  43.002  -5.771  1.00  0.00    -0.390 OA
ATOM     30  H1  UNL     1       9.629  42.136  -6.154  1.00  0.00     0.210 HD
ENDBRANCH  28  29
BRANCH  28  31
HETATM   31  C11 UNL     1       7.903  44.426  -6.784  1.00  0.00     0.199 C
BRANCH  31  32
HETATM   32  O2  UNL     1       6.604  44.218  -7.201  1.00  0.00    -0.398 OA
ATOM     33  H2  UNL     1       6.441  43.293  -7.348  1.00  0.00     0.209 HD
ENDBRANCH  31  32
ENDBRANCH  28  31
ENDBRANCH  27  28
ENDBRANCH  25  26
ENDBRANCH  24  25
ENDBRANCH   4  24
BRANCH   1  34
HETATM   34  N1  UNL     1       9.881  37.104  -2.328  1.00  0.00    -0.225 N
ATOM     35  H1  UNL     1      10.069  36.208  -2.778  1.00  0.00     0.177 HD
BRANCH  34  36
HETATM   36  C4  UNL     1       9.690  37.102  -0.913  1.00  0.00     0.138 C
BRANCH  36  37
HETATM   37  C3  UNL     1      10.453  38.216  -0.263  1.00  0.00     0.020 C
BRANCH  37  38
HETATM   38  C2  UNL     1       9.670  38.996   0.752  1.00  0.00    -0.003 C
HETATM   39  C1  UNL     1       8.555  38.243   1.399  1.00  0.00     0.005 C
ENDBRANCH  37  38
ENDBRANCH  36  37
ENDBRANCH  34  36
ENDBRANCH   1  34
TORSDOF 17
ENDMDL