MODEL 3
REMARK VINA RESULT: -7.106777809      3.625      6.791
REMARK  15 active torsions:
REMARK  status: ('A' for Active; 'I' for Inactive)
REMARK    1  A    between atoms: C2_2  and  C3_3
REMARK    2  A    between atoms: C4_6  and  N2_7
REMARK    3  A    between atoms: N2_7  and  C5_9
REMARK    4  A    between atoms: C5_9  and  C6_10
REMARK    5  A    between atoms: C6_10  and  C7_11
REMARK    6  A    between atoms: C7_11  and  C8_12
REMARK    7  A    between atoms: C8_12  and  C9_13
REMARK    8  A    between atoms: C9_13  and  C10_14
REMARK    9  A    between atoms: C10_14  and  N3_15
REMARK   10  A    between atoms: C11_21  and  N5_22
REMARK   11  A    between atoms: N5_22  and  C12_24
REMARK   12  A    between atoms: C12_24  and  C13_25
REMARK   13  A    between atoms: C13_25  and  N6_26
REMARK   14  A    between atoms: C17_33  and  C18_34
REMARK   15  A    between atoms: C19_35  and  C20_36
ROOT
HETATM    1  C3  UNL     1      13.350  41.498  -9.777  1.00  0.00     0.040 A
HETATM    2  N1  UNL     1      14.240  41.914 -10.667  1.00  0.00    -0.195 N
ATOM      3  H1  UNL     1      14.139  42.860 -11.035  1.00  0.00     0.184 HD
HETATM    4  C4  UNL     1      15.262  41.178 -11.115  1.00  0.00     0.679 A
HETATM    5  N4  UNL     1      15.417  39.944 -10.652  1.00  0.00    -0.176 N
ATOM      6  H4  UNL     1      16.190  39.364 -10.980  1.00  0.00     0.186 HD
HETATM    7  C11 UNL     1      14.531  39.457  -9.734  1.00  0.00     0.129 A
HETATM    8  C17 UNL     1      13.468  40.188  -9.252  1.00  0.00     0.032 A
ENDROOT
BRANCH   4   9
HETATM    9  N2  UNL     1      16.054  41.702 -11.980  1.00  0.00    -0.226 N
ATOM     10  H2  UNL     1      16.187  41.276 -12.897  1.00  0.00     0.177 HD
BRANCH   9  11
HETATM   11  C5  UNL     1      16.754  42.917 -11.612  1.00  0.00     0.138 C
BRANCH  11  12
HETATM   12  C6  UNL     1      17.851  42.640 -10.610  1.00  0.00     0.020 C
BRANCH  12  13
HETATM   13  C7  UNL     1      17.931  43.790  -9.621  1.00  0.00     0.002 C
BRANCH  13  14
HETATM   14  C8  UNL     1      16.738  43.808  -8.704  1.00  0.00     0.002 C
BRANCH  14  15
HETATM   15  C9  UNL     1      16.764  45.071  -7.893  1.00  0.00     0.027 C
BRANCH  15  16
HETATM   16  C10 UNL     1      18.126  45.699  -7.826  1.00  0.00     0.229 C
BRANCH  16  17
HETATM   17  N3  UNL     1      18.326  46.150  -6.441  1.00  0.00    -0.079 N
ATOM     18  H33 UNL     1      17.976  47.093  -6.273  1.00  0.00     0.274 HD
ATOM     19  H32 UNL     1      17.727  45.667  -5.772  1.00  0.00     0.274 HD
ATOM     20  H31 UNL     1      19.320  46.049  -6.233  1.00  0.00     0.274 HD
ENDBRANCH  16  17
ENDBRANCH  15  16
ENDBRANCH  14  15
ENDBRANCH  13  14
ENDBRANCH  12  13
ENDBRANCH  11  12
ENDBRANCH   9  11
ENDBRANCH   4   9
BRANCH   1  21
HETATM   21  C2  UNL     1      12.230  42.371  -9.302  1.00  0.00     0.054 C
HETATM   22  C1  UNL     1      11.542  43.096 -10.429  1.00  0.00     0.011 C
ENDBRANCH   1  21
BRANCH   7  23
HETATM   23  N5  UNL     1      14.715  38.265  -9.314  1.00  0.00    -0.374 N
ATOM     24  H5  UNL     1      15.079  38.167  -8.366  1.00  0.00     0.161 HD
BRANCH  23  25
HETATM   25  C12 UNL     1      14.462  37.045 -10.034  1.00  0.00     0.141 C
BRANCH  25  26
HETATM   26  C13 UNL     1      13.331  37.311 -11.002  1.00  0.00     0.145 C
BRANCH  26  27
HETATM   27  N6  UNL     1      13.674  37.053 -12.360  1.00  0.00    -0.353 N
HETATM   28  C14 UNL     1      14.084  37.979 -13.398  1.00  0.00     0.145 C
HETATM   29  C15 UNL     1      14.613  37.114 -14.501  1.00  0.00     0.142 C
HETATM   30  N7  UNL     1      14.190  35.799 -14.143  1.00  0.00    -0.363 N
HETATM   31  C16 UNL     1      13.675  35.771 -12.967  1.00  0.00     0.186 C
ATOM     32  H7  UNL     1      14.286  34.982 -14.746  1.00  0.00     0.162 HD
HETATM   33  N8  UNL     1      13.180  34.558 -12.391  1.00  0.00    -0.064 NA
ENDBRANCH  26  27
ENDBRANCH  25  26
ENDBRANCH  23  25
ENDBRANCH   7  23
BRANCH   8  34
HETATM   34  C18 UNL     1      12.493  39.732  -8.297  1.00  0.00     0.024 C
HETATM   35  C19 UNL     1      12.558  39.610  -7.012  1.00  0.00     0.085 C
BRANCH  35  36
HETATM   36  C20 UNL     1      11.395  39.108  -6.238  1.00  0.00     0.198 C
HETATM   37  O1  UNL     1      11.284  37.885  -6.053  1.00  0.00    -0.645 OA
HETATM   38  O2  UNL     1      10.466  39.974  -5.740  1.00  0.00    -0.645 OA
ENDBRANCH  35  36
ENDBRANCH   8  34
TORSDOF 15
ENDMDL