MODEL 2
REMARK VINA RESULT: -7.597736673      1.895      3.118
REMARK  14 active torsions:
REMARK  status: ('A' for Active; 'I' for Inactive)
REMARK    1  A    between atoms: C2_2  and  N1_3
REMARK    2  A    between atoms: N1_3  and  C3_4
REMARK    3  A    between atoms: N1_3  and  C5_6
REMARK    4  A    between atoms: C5_6  and  C6_7
REMARK    5  A    between atoms: C6_7  and  C7_8
REMARK    6  A    between atoms: C7_8  and  N2_9
REMARK    7  A    between atoms: C9_14  and  N4_15
REMARK    8  A    between atoms: C10_20  and  N6_21
REMARK    9  A    between atoms: N6_21  and  C11_23
REMARK   10  A    between atoms: C11_23  and  C12_24
REMARK   11  A    between atoms: C12_24  and  C13_25
REMARK   12  A    between atoms: C13_25  and  C14_26
REMARK   13  A    between atoms: C14_26  and  N8_30
REMARK   14  A    between atoms: N8_30  and  C16_32
ROOT
HETATM    1  N2  UNL     1      10.887  39.935  -5.263  1.00  0.00    -0.225 N
ATOM      2  H2  UNL     1      10.419  40.791  -4.963  1.00  0.00     0.177 HD
HETATM    3  C8  UNL     1      11.418  40.044  -6.419  1.00  0.00     0.707 A
HETATM    4  N3  UNL     1      11.302  41.243  -7.081  1.00  0.00    -0.022 N
ATOM      5  H3  UNL     1      10.802  42.015  -6.638  1.00  0.00     0.203 HD
HETATM    6  C9  UNL     1      11.829  41.411  -8.284  1.00  0.00     0.705 A
HETATM    7  N5  UNL     1      12.498  40.403  -8.904  1.00  0.00    -0.021 N
ATOM      8  H5  UNL     1      12.896  40.551  -9.831  1.00  0.00     0.203 HD
HETATM    9  C10 UNL     1      12.638  39.214  -8.299  1.00  0.00     0.710 A
HETATM   10  N11 UNL     1      12.076  39.074  -7.038  1.00  0.00    -0.021 N
ATOM     11  H11 UNL     1      12.176  38.177  -6.562  1.00  0.00     0.203 HD
ENDROOT
BRANCH   9  12
HETATM   12  N6  UNL     1      13.196  38.243  -8.791  1.00  0.00    -0.204 N
ATOM     13  H6  UNL     1      12.446  37.584  -9.000  1.00  0.00     0.183 HD
BRANCH  12  14
HETATM   14  C11 UNL     1      14.343  37.615  -9.197  1.00  0.00     0.079 C
BRANCH  14  15
HETATM   15  C12 UNL     1      14.343  36.757 -10.425  1.00  0.00     0.052 C
BRANCH  15  16
HETATM   16  C13 UNL     1      13.347  37.162 -11.478  1.00  0.00     0.081 C
BRANCH  16  17
HETATM   17  C14 UNL     1      13.697  37.085 -12.862  1.00  0.00     0.078 C
HETATM   18  N7  UNL     1      14.095  38.131 -13.518  1.00  0.00    -0.384 N
HETATM   19  C15 UNL     1      14.208  39.412 -12.905  1.00  0.00     0.147 C
ATOM     20  H7  UNL     1      14.334  38.033 -14.505  1.00  0.00     0.160 HD
BRANCH  17  21
HETATM   21  N8  UNL     1      13.647  35.848 -13.611  1.00  0.00    -0.330 N
ATOM     22  H8  UNL     1      13.258  34.976 -13.253  1.00  0.00     0.168 HD
BRANCH  21  23
HETATM   23  C16 UNL     1      14.237  36.005 -14.973  1.00  0.00     0.145 A
HETATM   24  N9  UNL     1      13.324  35.068 -15.835  1.00  0.00    -0.282 N
HETATM   25  N10 UNL     1      14.008  35.382 -16.865  1.00  0.00    -0.296 N
ATOM     26  H9  UNL     1      12.523  34.464 -15.651  1.00  0.00     0.189 HD
HETATM   27  C17 UNL     1      13.922  35.010 -18.293  1.00  0.00     0.177 C
HETATM   28  C18 UNL     1      14.727  36.136 -16.106  1.00  0.00     0.069 A
HETATM   29  C19 UNL     1      15.923  37.069 -16.484  1.00  0.00     0.074 C
ENDBRANCH  21  23
ENDBRANCH  17  21
ENDBRANCH  16  17
ENDBRANCH  15  16
ENDBRANCH  14  15
ENDBRANCH  12  14
ENDBRANCH   9  12
BRANCH   6  30
HETATM   30  N4  UNL     1      11.730  42.555  -8.917  1.00  0.00    -0.234 N
ATOM     31  H42 UNL     1      12.434  43.267  -8.720  1.00  0.00     0.174 HD
ATOM     32  H41 UNL     1      10.975  42.729  -9.581  1.00  0.00     0.174 HD
ENDBRANCH   6  30
BRANCH   1  33
HETATM   33  C7  UNL     1      10.799  38.906  -4.312  1.00  0.00     0.139 C
BRANCH  33  34
HETATM   34  C6  UNL     1       9.324  38.579  -4.021  1.00  0.00     0.040 C
BRANCH  34  35
HETATM   35  C5  UNL     1       9.098  38.573  -2.519  1.00  0.00     0.123 C
BRANCH  35  36
HETATM   36  N1  UNL     1      10.218  38.096  -1.756  1.00  0.00    -0.394 N
BRANCH  36  37
HETATM   37  C2  UNL     1      10.213  36.737  -1.380  1.00  0.00     0.053 C
HETATM   38  C1  UNL     1       8.873  36.080  -1.190  1.00  0.00     0.054 C
ENDBRANCH  36  37
BRANCH  36  39
HETATM   39  C3  UNL     1      10.616  39.052  -0.746  1.00  0.00     0.117 C
HETATM   40  C4  UNL     1       9.785  39.033   0.481  1.00  0.00     0.026 C
ENDBRANCH  36  39
ENDBRANCH  35  36
ENDBRANCH  34  35
ENDBRANCH  33  34
ENDBRANCH   1  33
TORSDOF 14
ENDMDL