MODEL 5
REMARK VINA RESULT: -7.470141383      2.623      8.685
REMARK  13 active torsions:
REMARK  status: ('A' for Active; 'I' for Inactive)
REMARK    1  A    between atoms: C2_2  and  C3_3
REMARK    2  A    between atoms: C3_3  and  N1_4
REMARK    3  A    between atoms: C7_14  and  C8_15
REMARK    4  A    between atoms: C8_15  and  C9_16
REMARK    5  A    between atoms: C9_16  and  C10_17
REMARK       I    between atoms: C10_17  and  N5_19
REMARK    6  A    between atoms: N5_19  and  C11_21
REMARK    7  A    between atoms: C11_21  and  C12_22
REMARK    8  A    between atoms: C11_21  and  C16_30
REMARK    9  A    between atoms: C12_22  and  C13_23
REMARK   10  A    between atoms: C13_23  and  C14_24
REMARK   11  A    between atoms: C14_24  and  C15_25
REMARK   12  A    between atoms: C15_25  and  N6_26
REMARK   13  A    between atoms: C16_30  and  C17_31
ROOT
HETATM    1  C8  UNL     1       9.540  38.903  -3.346  1.00  0.00     0.052 C
ENDROOT
BRANCH   1   2
HETATM    2  C7  UNL     1       9.471  40.007  -2.371  1.00  0.00     0.003 A
HETATM    3  C6  UNL     1       9.891  39.933  -1.052  1.00  0.00     0.125 A
HETATM    4  N3  UNL     1       9.659  41.140  -0.513  1.00  0.00    -0.330 N
HETATM    5  N4  UNL     1      10.460  38.790  -0.397  1.00  0.00    -0.082 NA
HETATM    6  C5  UNL     1       9.113  41.987  -1.404  1.00  0.00     0.127 A
ATOM      7  H3  UNL     1       9.870  41.385   0.454  1.00  0.00     0.168 HD
HETATM    8  N2  UNL     1       8.706  43.278  -1.356  1.00  0.00    -0.293 N
HETATM    9  C18 UNL     1       8.992  41.280  -2.579  1.00  0.00     0.086 A
HETATM   10  C4  UNL     1       8.180  43.921  -2.407  1.00  0.00     0.331 A
ATOM     11  H2  UNL     1       8.805  43.786  -0.476  1.00  0.00     0.172 HD
HETATM   12  N1  UNL     1       8.054  43.245  -3.564  1.00  0.00    -0.266 N
HETATM   13  O1  UNL     1       7.810  45.141  -2.313  1.00  0.00    -0.246 OA
HETATM   14  C19 UNL     1       8.442  41.960  -3.667  1.00  0.00     0.266 A
HETATM   15  O4  UNL     1       8.352  41.277  -4.720  1.00  0.00    -0.267 OA
BRANCH  12  16
HETATM   16  C3  UNL     1       7.504  43.901  -4.708  1.00  0.00     0.137 C
BRANCH  16  17
HETATM   17  C2  UNL     1       6.049  43.723  -4.935  1.00  0.00     0.016 C
HETATM   18  C1  UNL     1       5.538  44.113  -6.278  1.00  0.00     0.006 C
ENDBRANCH  16  17
ENDBRANCH  12  16
ENDBRANCH   1   2
BRANCH   1  19
HETATM   19  C9  UNL     1      10.958  38.799  -3.883  1.00  0.00     0.107 C
BRANCH  19  20
HETATM   20  C10 UNL     1      10.978  38.723  -5.356  1.00  0.00     0.218 C
HETATM   21  O2  UNL     1       9.951  38.341  -5.958  1.00  0.00    -0.274 OA
HETATM   22  N5  UNL     1      12.121  39.070  -6.101  1.00  0.00    -0.356 N
ATOM     23  H5  UNL     1      12.960  39.383  -5.613  1.00  0.00     0.162 HD
BRANCH  22  24
HETATM   24  C11 UNL     1      12.129  38.988  -7.604  1.00  0.00     0.092 C
BRANCH  24  25
HETATM   25  C12 UNL     1      13.377  38.229  -7.948  1.00  0.00     0.026 C
BRANCH  25  26
HETATM   26  C13 UNL     1      13.978  38.352  -9.275  1.00  0.00     0.004 C
BRANCH  26  27
HETATM   27  C14 UNL     1      13.096  37.591 -10.304  1.00  0.00     0.027 C
BRANCH  27  28
HETATM   28  C15 UNL     1      13.927  36.847 -11.307  1.00  0.00     0.229 C
BRANCH  28  29
HETATM   29  N6  UNL     1      15.137  36.430 -10.605  1.00  0.00    -0.079 N
ATOM     30  H63 UNL     1      15.743  35.828 -11.164  1.00  0.00     0.274 HD
ATOM     31  H62 UNL     1      15.807  37.186 -10.465  1.00  0.00     0.274 HD
ATOM     32  H61 UNL     1      14.827  35.997  -9.735  1.00  0.00     0.274 HD
ENDBRANCH  28  29
ENDBRANCH  27  28
ENDBRANCH  26  27
ENDBRANCH  25  26
ENDBRANCH  24  25
BRANCH  24  33
HETATM   33  C16 UNL     1      12.084  40.405  -8.034  1.00  0.00     0.124 C
BRANCH  33  34
HETATM   34  C17 UNL     1      12.146  41.431  -6.987  1.00  0.00     0.233 C
HETATM   35  N7  UNL     1      10.930  42.045  -6.497  1.00  0.00    -0.062 NA
HETATM   36  O3  UNL     1      13.223  41.817  -6.477  1.00  0.00    -0.277 OA
ENDBRANCH  33  34
ENDBRANCH  24  33
ENDBRANCH  22  24
ENDBRANCH  19  20
ENDBRANCH   1  19
TORSDOF 13
ENDMDL