MODEL 5
REMARK VINA RESULT: -6.969362520      4.070     10.481
REMARK  15 active torsions:
REMARK  status: ('A' for Active; 'I' for Inactive)
REMARK    1  A    between atoms: C3_3  and  C4_4
REMARK    2  A    between atoms: C4_4  and  N1_5
REMARK    3  A    between atoms: N1_5  and  C5_8
REMARK    4  A    between atoms: C5_8  and  C6_9
REMARK    5  A    between atoms: C6_9  and  C7_10
REMARK    6  A    between atoms: C7_10  and  N2_11
REMARK    7  A    between atoms: N2_11  and  C8_14
REMARK    8  A    between atoms: C8_14  and  C9_15
REMARK    9  A    between atoms: C9_15  and  C10_16
REMARK   10  A    between atoms: C10_16  and  N3_17
REMARK   11  A    between atoms: N3_17  and  C11_19
REMARK   12  A    between atoms: C12_22  and  N5_23
REMARK   13  A    between atoms: N5_23  and  C13_25
REMARK   14  A    between atoms: C13_25  and  C14_26
REMARK   15  A    between atoms: C14_26  and  O1_27
ROOT
HETATM    1  C1  UNL     1      13.208  35.976 -12.448  1.00  0.00     0.013 C
HETATM    2  C2  UNL     1      13.979  36.790 -12.899  1.00  0.00    -0.106 C
HETATM    3  C3  UNL     1      14.909  37.810 -13.448  1.00  0.00     0.046 C
HETATM    4  C18 UNL     1      15.916  37.078 -14.262  1.00  0.00     0.024 C
HETATM    5  C19 UNL     1      15.322  37.067 -15.646  1.00  0.00     0.002 C
HETATM    6  C20 UNL     1      14.578  38.386 -15.779  1.00  0.00     0.002 C
HETATM    7  C21 UNL     1      14.153  38.721 -14.352  1.00  0.00     0.024 C
ENDROOT
BRANCH   3   8
HETATM    8  C4  UNL     1      15.512  38.496 -12.239  1.00  0.00     0.254 C
BRANCH   8   9
HETATM    9  N1  UNL     1      15.157  39.876 -12.150  1.00  0.00    -0.073 N
ATOM     10  H12 UNL     1      14.771  40.233 -13.025  1.00  0.00     0.277 HD
ATOM     11  H11 UNL     1      14.340  40.027 -11.558  1.00  0.00     0.277 HD
BRANCH   9  12
HETATM   12  C5  UNL     1      16.302  40.639 -11.706  1.00  0.00     0.234 C
BRANCH  12  13
HETATM   13  C6  UNL     1      16.218  41.010 -10.239  1.00  0.00     0.055 C
BRANCH  13  14
HETATM   14  C7  UNL     1      15.132  42.076 -10.036  1.00  0.00     0.233 C
BRANCH  14  15
HETATM   15  N2  UNL     1      15.319  42.755  -8.792  1.00  0.00    -0.075 N
ATOM     16  H22 UNL     1      15.907  42.220  -8.154  1.00  0.00     0.277 HD
ATOM     17  H21 UNL     1      15.915  43.577  -8.896  1.00  0.00     0.277 HD
BRANCH  15  18
HETATM   18  C8  UNL     1      14.065  43.081  -8.208  1.00  0.00     0.234 C
BRANCH  18  19
HETATM   19  C9  UNL     1      12.940  43.239  -9.201  1.00  0.00     0.047 C
BRANCH  19  20
HETATM   20  C10 UNL     1      11.631  42.688  -8.615  1.00  0.00     0.123 C
BRANCH  20  21
HETATM   21  N3  UNL     1      11.561  41.275  -8.761  1.00  0.00    -0.374 N
ATOM     22  H3  UNL     1      11.282  40.934  -9.682  1.00  0.00     0.161 HD
BRANCH  21  23
HETATM   23  C11 UNL     1      11.802  40.383  -7.886  1.00  0.00     0.147 A
HETATM   24  N4  UNL     1      11.180  40.458  -6.669  1.00  0.00    -0.174 N
HETATM   25  C12 UNL     1      11.364  39.572  -5.681  1.00  0.00     0.685 A
ATOM     26  H4  UNL     1      10.539  41.233  -6.505  1.00  0.00     0.186 HD
HETATM   27  N6  UNL     1      12.253  38.547  -5.985  1.00  0.00    -0.174 N
HETATM   28  C15 UNL     1      12.874  38.444  -7.157  1.00  0.00     0.152 A
ATOM     29  H6  UNL     1      12.438  37.839  -5.275  1.00  0.00     0.186 HD
HETATM   30  N7  UNL     1      13.768  37.538  -7.659  1.00  0.00    -0.336 N
HETATM   31  C17 UNL     1      12.678  39.359  -8.163  1.00  0.00     0.123 A
HETATM   32  C16 UNL     1      14.081  37.910  -8.908  1.00  0.00     0.182 A
ATOM     33  H7  UNL     1      14.134  36.723  -7.168  1.00  0.00     0.168 HD
HETATM   34  N8  UNL     1      13.419  39.029  -9.237  1.00  0.00    -0.346 N
ATOM     35  H8  UNL     1      13.468  39.531 -10.124  1.00  0.00     0.167 HD
BRANCH  25  36
HETATM   36  N5  UNL     1      10.840  39.571  -4.554  1.00  0.00    -0.203 N
ATOM     37  H5  UNL     1      10.830  40.525  -4.194  1.00  0.00     0.183 HD
BRANCH  36  38
HETATM   38  C13 UNL     1      10.275  38.751  -3.631  1.00  0.00     0.105 C
BRANCH  38  39
HETATM   39  C14 UNL     1      10.578  38.907  -2.158  1.00  0.00     0.209 C
BRANCH  39  40
HETATM   40  O1  UNL     1      11.896  39.431  -2.008  1.00  0.00    -0.396 OA
ATOM     41  H1  UNL     1      12.467  39.022  -2.648  1.00  0.00     0.209 HD
ENDBRANCH  39  40
ENDBRANCH  38  39
ENDBRANCH  36  38
ENDBRANCH  25  36
ENDBRANCH  21  23
ENDBRANCH  20  21
ENDBRANCH  19  20
ENDBRANCH  18  19
ENDBRANCH  15  18
ENDBRANCH  14  15
ENDBRANCH  13  14
ENDBRANCH  12  13
ENDBRANCH   9  12
ENDBRANCH   8   9
ENDBRANCH   3   8
TORSDOF 15
ENDMDL