MODEL 1
REMARK VINA RESULT: -6.540628065      0.000      0.000
REMARK  16 active torsions:
REMARK  status: ('A' for Active; 'I' for Inactive)
REMARK    1  A    between atoms: C2_2  and  C3_3
REMARK    2  A    between atoms: N1_5  and  C5_6
REMARK    3  A    between atoms: C5_6  and  C6_7
REMARK    4  A    between atoms: C6_7  and  C7_8
REMARK    5  A    between atoms: C7_8  and  C8_9
REMARK    6  A    between atoms: C8_9  and  N2_10
REMARK    7  A    between atoms: N2_10  and  C9_13
REMARK    8  A    between atoms: C9_13  and  C10_14
REMARK    9  A    between atoms: C10_14  and  C11_15
REMARK   10  A    between atoms: C11_15  and  C12_16
REMARK   11  A    between atoms: C12_16  and  N3_17
REMARK   12  A    between atoms: C18_27  and  C19_28
REMARK   13  A    between atoms: C19_28  and  O2_29
REMARK   14  A    between atoms: C19_28  and  C20_31
REMARK   15  A    between atoms: C20_31  and  C21_32
REMARK   16  A    between atoms: C21_32  and  N4_33
ROOT
HETATM    1  C3  UNL     1      14.820  39.816 -10.948  1.00  0.00     0.069 C
HETATM    2  C4  UNL     1      14.080  41.064 -10.431  1.00  0.00     0.146 C
HETATM    3  N1  UNL     1      12.980  40.548  -9.641  1.00  0.00    -0.351 N
HETATM    4  C13 UNL     1      13.153  39.158  -9.445  1.00  0.00     0.225 C
HETATM    5  O1  UNL     1      12.309  38.392  -8.957  1.00  0.00    -0.273 OA
HETATM    6  C14 UNL     1      14.485  38.829  -9.921  1.00  0.00     0.097 C
HETATM    7  C15 UNL     1      14.695  37.392 -10.262  1.00  0.00     0.015 C
HETATM    8  C16 UNL     1      13.550  36.788 -11.030  1.00  0.00     0.007 C
HETATM    9  C17 UNL     1      14.128  36.304 -12.355  1.00  0.00     0.055 C
HETATM   10  C18 UNL     1      13.844  37.244 -13.469  1.00  0.00     0.018 C
HETATM   11  N5  UNL     1      13.765  38.641 -13.145  1.00  0.00    -0.331 N
ATOM     12  H5  UNL     1      13.033  39.075 -13.708  1.00  0.00     0.168 HD
HETATM   13  C22 UNL     1      14.353  39.624 -12.311  1.00  0.00     0.233 C
HETATM   14  O3  UNL     1      14.549  40.720 -12.962  1.00  0.00    -0.272 OA
ENDROOT
BRANCH   3  15
HETATM   15  C5  UNL     1      11.896  41.389  -9.148  1.00  0.00     0.126 C
BRANCH  15  16
HETATM   16  C6  UNL     1      12.482  42.319  -8.096  1.00  0.00     0.022 C
BRANCH  16  17
HETATM   17  C7  UNL     1      12.730  41.619  -6.791  1.00  0.00     0.029 C
BRANCH  17  18
HETATM   18  C8  UNL     1      11.552  40.771  -6.376  1.00  0.00     0.232 C
BRANCH  18  19
HETATM   19  N2  UNL     1      11.999  39.425  -6.022  1.00  0.00    -0.075 N
ATOM     20  H22 UNL     1      12.478  38.968  -6.798  1.00  0.00     0.277 HD
ATOM     21  H21 UNL     1      12.773  39.444  -5.357  1.00  0.00     0.277 HD
BRANCH  19  22
HETATM   22  C9  UNL     1      10.885  38.633  -5.534  1.00  0.00     0.232 C
BRANCH  22  23
HETATM   23  C10 UNL     1      10.210  39.293  -4.360  1.00  0.00     0.029 C
BRANCH  23  24
HETATM   24  C11 UNL     1       9.713  38.269  -3.345  1.00  0.00     0.029 C
BRANCH  24  25
HETATM   25  C12 UNL     1      10.289  38.637  -1.998  1.00  0.00     0.229 C
BRANCH  25  26
HETATM   26  N3  UNL     1      11.600  39.190  -2.204  1.00  0.00    -0.079 N
ATOM     27  H33 UNL     1      12.290  38.482  -2.458  1.00  0.00     0.274 HD
ATOM     28  H32 UNL     1      11.660  39.752  -3.053  1.00  0.00     0.274 HD
ATOM     29  H31 UNL     1      11.862  39.712  -1.368  1.00  0.00     0.274 HD
ENDBRANCH  25  26
ENDBRANCH  24  25
ENDBRANCH  23  24
ENDBRANCH  22  23
ENDBRANCH  19  22
ENDBRANCH  18  19
ENDBRANCH  17  18
ENDBRANCH  16  17
ENDBRANCH  15  16
ENDBRANCH   3  15
BRANCH   1  30
HETATM   30  C2  UNL     1      16.282  40.203 -10.991  1.00  0.00     0.017 C
HETATM   31  C1  UNL     1      16.659  41.403 -10.213  1.00  0.00     0.006 C
ENDBRANCH   1  30
BRANCH  10  32
HETATM   32  C19 UNL     1      14.550  36.978 -14.761  1.00  0.00     0.165 C
BRANCH  32  33
HETATM   33  O2  UNL     1      14.716  35.609 -15.001  1.00  0.00    -0.390 OA
ATOM     34  H2  UNL     1      14.000  35.245 -15.508  1.00  0.00     0.210 HD
ENDBRANCH  32  33
BRANCH  32  35
HETATM   35  C20 UNL     1      15.828  37.664 -15.018  1.00  0.00     0.065 C
BRANCH  35  36
HETATM   36  C21 UNL     1      17.054  36.794 -15.068  1.00  0.00     0.232 C
BRANCH  36  37
HETATM   37  N4  UNL     1      17.462  36.356 -13.743  1.00  0.00    -0.079 N
ATOM     38  H43 UNL     1      16.772  35.728 -13.331  1.00  0.00     0.274 HD
ATOM     39  H42 UNL     1      18.254  35.716 -13.792  1.00  0.00     0.274 HD
ATOM     40  H41 UNL     1      17.660  37.145 -13.127  1.00  0.00     0.274 HD
ENDBRANCH  36  37
ENDBRANCH  35  36
ENDBRANCH  32  35
ENDBRANCH  10  32
TORSDOF 16
ENDMDL