MODEL 1
REMARK VINA RESULT: -7.354269815      0.000      0.000
REMARK  15 active torsions:
REMARK  status: ('A' for Active; 'I' for Inactive)
REMARK    1  A    between atoms: C2_2  and  C3_3
REMARK    2  A    between atoms: C3_3  and  C4_4
REMARK    3  A    between atoms: C4_4  and  C5_5
REMARK    4  A    between atoms: C5_5  and  C6_6
REMARK    5  A    between atoms: C6_6  and  C7_7
REMARK    6  A    between atoms: C7_7  and  C8_8
REMARK    7  A    between atoms: C8_8  and  C9_9
REMARK    8  A    between atoms: C9_9  and  C10_10
REMARK    9  A    between atoms: C10_10  and  C11_11
REMARK   10  A    between atoms: C11_11  and  N1_12
REMARK   11  A    between atoms: N1_12  and  C12_14
REMARK   12  A    between atoms: C14_23  and  N5_24
REMARK   13  A    between atoms: N5_24  and  C15_26
REMARK   14  A    between atoms: C15_26  and  C16_27
REMARK   15  A    between atoms: C16_27  and  O1_28
ROOT
HETATM    1  C12 UNL     1      10.786  39.082  -4.543  1.00  0.00     0.707 A
HETATM    2  N2  UNL     1      10.716  38.081  -3.647  1.00  0.00    -0.022 N
ATOM      3  H2  UNL     1      11.433  37.356  -3.649  1.00  0.00     0.203 HD
HETATM    4  C13 UNL     1       9.711  38.017  -2.742  1.00  0.00     0.705 A
HETATM    5  N3  UNL     1       9.607  37.087  -1.877  1.00  0.00    -0.234 N
ATOM      6  H31 UNL     1       8.850  37.040  -1.195  1.00  0.00     0.174 HD
ATOM      7  H32 UNL     1      10.326  36.363  -1.880  1.00  0.00     0.174 HD
HETATM    8  N4  UNL     1       8.747  38.989  -2.739  1.00  0.00    -0.022 N
ATOM      9  H4  UNL     1       7.989  38.941  -2.058  1.00  0.00     0.203 HD
HETATM   10  C14 UNL     1       8.784  39.993  -3.610  1.00  0.00     0.709 A
HETATM   11  N8  UNL     1       9.818  40.001  -4.492  1.00  0.00    -0.021 N
ATOM     12  H8  UNL     1       9.858  40.767  -5.165  1.00  0.00     0.203 HD
ENDROOT
BRANCH  10  13
HETATM   13  N5  UNL     1       7.901  40.915  -3.629  1.00  0.00    -0.183 N
ATOM     14  H5  UNL     1       7.017  40.713  -4.096  1.00  0.00     0.180 HD
BRANCH  13  15
HETATM   15  C15 UNL     1       8.059  42.198  -3.050  1.00  0.00     0.307 A
HETATM   16  C17 UNL     1       8.524  43.338  -3.862  1.00  0.00     0.379 A
HETATM   17  C18 UNL     1       8.692  43.268  -5.317  1.00  0.00     0.256 C
HETATM   18  N7  UNL     1       7.135  43.311  -3.444  1.00  0.00     0.142 N
HETATM   19  O2  UNL     1       9.660  42.651  -5.796  1.00  0.00    -0.271 OA
HETATM   20  N6  UNL     1       7.770  43.892  -6.201  1.00  0.00    -0.357 N
HETATM   21  C19 UNL     1       6.429  44.131  -5.649  1.00  0.00     0.153 C
ATOM     22  H6  UNL     1       8.021  44.155  -7.154  1.00  0.00     0.162 HD
HETATM   23  C20 UNL     1       6.261  43.060  -4.576  1.00  0.00     0.296 C
BRANCH  15  24
HETATM   24  C16 UNL     1       8.506  42.298  -1.587  1.00  0.00     0.232 C
BRANCH  24  25
HETATM   25  O1  UNL     1       9.666  43.045  -1.498  1.00  0.00    -0.396 OA
ATOM     26  H1  UNL     1       9.480  43.888  -1.100  1.00  0.00     0.209 HD
ENDBRANCH  24  25
ENDBRANCH  15  24
ENDBRANCH  13  15
ENDBRANCH  10  13
BRANCH   1  27
HETATM   27  N1  UNL     1      11.719  39.191  -5.424  1.00  0.00    -0.225 N
ATOM     28  H1  UNL     1      12.690  39.169  -5.109  1.00  0.00     0.177 HD
BRANCH  27  29
HETATM   29  C11 UNL     1      11.454  39.343  -6.841  1.00  0.00     0.138 C
BRANCH  29  30
HETATM   30  C10 UNL     1      12.730  39.534  -7.607  1.00  0.00     0.020 C
BRANCH  30  31
HETATM   31  C9  UNL     1      12.805  38.516  -8.711  1.00  0.00     0.002 C
BRANCH  31  32
HETATM   32  C8  UNL     1      14.107  37.787  -8.731  1.00  0.00     0.000 C
BRANCH  32  33
HETATM   33  C7  UNL     1      14.432  37.194 -10.076  1.00  0.00     0.000 C
BRANCH  33  34
HETATM   34  C6  UNL     1      13.259  37.197 -11.011  1.00  0.00     0.000 C
BRANCH  34  35
HETATM   35  C5  UNL     1      13.689  37.855 -12.305  1.00  0.00     0.000 C
BRANCH  35  36
HETATM   36  C4  UNL     1      14.707  38.930 -12.090  1.00  0.00     0.000 C
BRANCH  36  37
HETATM   37  C3  UNL     1      14.123  40.316 -12.210  1.00  0.00    -0.000 C
BRANCH  37  38
HETATM   38  C2  UNL     1      14.206  41.082 -10.914  1.00  0.00    -0.005 C
HETATM   39  C1  UNL     1      15.539  40.869 -10.224  1.00  0.00     0.005 C
ENDBRANCH  37  38
ENDBRANCH  36  37
ENDBRANCH  35  36
ENDBRANCH  34  35
ENDBRANCH  33  34
ENDBRANCH  32  33
ENDBRANCH  31  32
ENDBRANCH  30  31
ENDBRANCH  29  30
ENDBRANCH  27  29
ENDBRANCH   1  27
TORSDOF 15
ENDMDL