MODEL 2
REMARK VINA RESULT: -6.437698788      2.573      6.900
REMARK  15 active torsions:
REMARK  status: ('A' for Active; 'I' for Inactive)
REMARK    1  A    between atoms: N1_1  and  C1_5
REMARK    2  A    between atoms: C1_5  and  C2_6
REMARK    3  A    between atoms: C2_6  and  C3_7
REMARK    4  A    between atoms: C3_7  and  C4_8
REMARK    5  A    between atoms: C4_8  and  C5_9
REMARK    6  A    between atoms: C8_15  and  C9_16
REMARK    7  A    between atoms: C9_16  and  C10_17
REMARK    8  A    between atoms: C10_17  and  C11_18
REMARK    9  A    between atoms: C11_18  and  C12_19
REMARK   10  A    between atoms: C12_19  and  N3_20
REMARK   11  A    between atoms: C16_30  and  C17_31
REMARK   12  A    between atoms: C17_31  and  C18_32
REMARK   13  A    between atoms: C18_32  and  C19_33
REMARK   14  A    between atoms: C19_33  and  C20_34
REMARK   15  A    between atoms: C20_34  and  N5_35
ROOT
HETATM    1  C5  UNL     1      15.525  40.816 -12.977  1.00  0.00     0.093 C
HETATM    2  C6  UNL     1      15.420  40.628 -14.454  1.00  0.00     0.128 C
HETATM    3  C7  UNL     1      16.439  39.703 -15.018  1.00  0.00     0.220 C
HETATM    4  O1  UNL     1      17.130  40.126 -16.008  1.00  0.00    -0.274 OA
HETATM    5  N2  UNL     1      16.672  38.419 -14.523  1.00  0.00    -0.348 N
ATOM      6  H2  UNL     1      17.634  38.083 -14.553  1.00  0.00     0.163 HD
HETATM    7  C8  UNL     1      15.683  37.514 -13.972  1.00  0.00     0.176 C
HETATM    8  C13 UNL     1      16.277  36.932 -12.741  1.00  0.00     0.240 C
HETATM    9  O2  UNL     1      17.501  36.657 -12.766  1.00  0.00    -0.271 OA
HETATM   10  N4  UNL     1      15.557  36.672 -11.555  1.00  0.00    -0.359 N
ATOM     11  H4  UNL     1      16.093  36.575 -10.693  1.00  0.00     0.162 HD
HETATM   12  C14 UNL     1      14.127  36.534 -11.463  1.00  0.00     0.123 C
HETATM   13  C15 UNL     1      13.419  37.758 -10.988  1.00  0.00     0.034 C
HETATM   14  C16 UNL     1      14.362  38.902 -10.629  1.00  0.00     0.079 C
HETATM   15  C21 UNL     1      13.851  40.194 -11.164  1.00  0.00     0.222 C
HETATM   16  O3  UNL     1      13.045  40.856 -10.422  1.00  0.00    -0.273 OA
HETATM   17  N6  UNL     1      14.184  40.739 -12.412  1.00  0.00    -0.356 N
ATOM     18  H6  UNL     1      13.420  41.114 -12.973  1.00  0.00     0.162 HD
ENDROOT
BRANCH   1  19
HETATM   19  C4  UNL     1      15.973  42.244 -12.711  1.00  0.00     0.026 C
BRANCH  19  20
HETATM   20  C3  UNL     1      17.323  42.327 -12.047  1.00  0.00     0.004 C
BRANCH  20  21
HETATM   21  C2  UNL     1      17.102  41.851 -10.604  1.00  0.00     0.027 C
BRANCH  21  22
HETATM   22  C1  UNL     1      16.551  42.972  -9.753  1.00  0.00     0.229 C
BRANCH  22  23
HETATM   23  N1  UNL     1      15.390  42.467  -9.061  1.00  0.00    -0.079 N
ATOM     24  H13 UNL     1      14.933  43.173  -8.484  1.00  0.00     0.274 HD
ATOM     25  H12 UNL     1      14.607  42.277  -9.687  1.00  0.00     0.274 HD
ATOM     26  H11 UNL     1      15.680  41.647  -8.529  1.00  0.00     0.274 HD
ENDBRANCH  22  23
ENDBRANCH  21  22
ENDBRANCH  20  21
ENDBRANCH  19  20
ENDBRANCH   1  19
BRANCH  14  27
HETATM   27  C17 UNL     1      14.388  38.950  -9.107  1.00  0.00     0.014 C
BRANCH  27  28
HETATM   28  C18 UNL     1      13.165  38.349  -8.487  1.00  0.00     0.002 C
BRANCH  28  29
HETATM   29  C19 UNL     1      12.717  39.280  -7.376  1.00  0.00     0.027 C
BRANCH  29  30
HETATM   30  C20 UNL     1      11.504  38.727  -6.655  1.00  0.00     0.229 C
BRANCH  30  31
HETATM   31  N5  UNL     1      11.872  38.163  -5.372  1.00  0.00    -0.079 N
ATOM     32  H53 UNL     1      12.610  37.465  -5.466  1.00  0.00     0.274 HD
ATOM     33  H52 UNL     1      12.371  38.838  -4.794  1.00  0.00     0.274 HD
ATOM     34  H51 UNL     1      11.057  37.784  -4.890  1.00  0.00     0.274 HD
ENDBRANCH  30  31
ENDBRANCH  29  30
ENDBRANCH  28  29
ENDBRANCH  27  28
ENDBRANCH  14  27
BRANCH   7  35
HETATM   35  C9  UNL     1      15.394  36.416 -14.978  1.00  0.00     0.035 C
BRANCH  35  36
HETATM   36  C10 UNL     1      13.912  36.307 -15.129  1.00  0.00     0.004 C
BRANCH  36  37
HETATM   37  C11 UNL     1      13.489  36.030 -16.556  1.00  0.00     0.027 C
BRANCH  37  38
HETATM   38  C12 UNL     1      14.343  34.967 -17.198  1.00  0.00     0.229 C
BRANCH  38  39
HETATM   39  N3  UNL     1      13.794  33.648 -17.095  1.00  0.00    -0.079 N
ATOM     40  H33 UNL     1      12.796  33.688 -16.891  1.00  0.00     0.274 HD
ATOM     41  H32 UNL     1      13.764  33.199 -18.011  1.00  0.00     0.274 HD
ATOM     42  H31 UNL     1      14.276  33.054 -16.420  1.00  0.00     0.274 HD
ENDBRANCH  38  39
ENDBRANCH  37  38
ENDBRANCH  36  37
ENDBRANCH  35  36
ENDBRANCH   7  35
TORSDOF 15
ENDMDL