MODEL 3
REMARK VINA RESULT: -6.671534209      2.859      9.339
REMARK  14 active torsions:
REMARK  status: ('A' for Active; 'I' for Inactive)
REMARK    1  A    between atoms: N1_1  and  C1_4
REMARK    2  A    between atoms: C2_7  and  C3_8
REMARK    3  A    between atoms: C3_8  and  C4_9
REMARK    4  A    between atoms: C4_9  and  C5_10
REMARK    5  A    between atoms: C5_10  and  C6_11
REMARK    6  A    between atoms: C6_11  and  N3_12
REMARK    7  A    between atoms: C12_20  and  C13_21
REMARK    8  A    between atoms: C13_21  and  O1_22
REMARK    9  A    between atoms: C14_24  and  C15_25
REMARK   10  A    between atoms: C15_25  and  S1_26
REMARK   11  A    between atoms: S1_26  and  C16_27
REMARK   12  A    between atoms: C16_27  and  C17_28
REMARK   13  A    between atoms: C17_28  and  C18_29
REMARK   14  A    between atoms: C18_29  and  N5_30
ROOT
HETATM    1  C1  UNL     1      13.806  37.956 -10.476  1.00  0.00     0.106 A
HETATM    2  N2  UNL     1      13.573  36.923 -11.349  1.00  0.00    -0.346 N
ATOM      3  H2  UNL     1      13.321  36.007 -10.978  1.00  0.00     0.167 HD
HETATM    4  C2  UNL     1      13.667  37.083 -12.642  1.00  0.00     0.011 A
HETATM    5  C11 UNL     1      13.999  38.340 -13.179  1.00  0.00     0.035 A
HETATM    6  C12 UNL     1      14.238  39.401 -12.329  1.00  0.00    -0.022 A
HETATM    7  C14 UNL     1      14.165  39.232 -11.002  1.00  0.00     0.003 A
ENDROOT
BRANCH   4   8
HETATM    8  C3  UNL     1      13.571  36.042 -13.690  1.00  0.00     0.057 C
BRANCH   8   9
HETATM    9  C4  UNL     1      13.782  36.695 -15.032  1.00  0.00     0.007 C
BRANCH   9  10
HETATM   10  C5  UNL     1      14.855  35.899 -15.793  1.00  0.00     0.020 C
BRANCH  10  11
HETATM   11  C6  UNL     1      16.003  36.773 -16.174  1.00  0.00     0.117 C
BRANCH  11  12
HETATM   12  N3  UNL     1      16.611  37.436 -15.088  1.00  0.00    -0.409 N
HETATM   13  C7  UNL     1      17.117  38.753 -15.281  1.00  0.00     0.136 C
HETATM   14  C8  UNL     1      18.009  39.073 -14.100  1.00  0.00     0.133 C
HETATM   15  N4  UNL     1      17.569  38.496 -12.860  1.00  0.00    -0.418 N
HETATM   16  C9  UNL     1      17.373  37.070 -12.886  1.00  0.00     0.133 C
ATOM     17  H4  UNL     1      17.407  39.055 -12.023  1.00  0.00     0.153 HD
HETATM   18  C10 UNL     1      17.523  36.609 -14.325  1.00  0.00     0.136 C
ENDBRANCH  11  12
ENDBRANCH  10  11
ENDBRANCH   9  10
ENDBRANCH   8   9
ENDBRANCH   4   8
BRANCH   1  19
HETATM   19  N1  UNL     1      13.641  37.849  -9.245  1.00  0.00    -0.385 N
ATOM     20  H12 UNL     1      12.849  38.330  -8.819  1.00  0.00     0.157 HD
ATOM     21  H11 UNL     1      14.225  37.252  -8.660  1.00  0.00     0.157 HD
ENDBRANCH   1  19
BRANCH   6  22
HETATM   22  C13 UNL     1      14.373  40.771 -12.900  1.00  0.00     0.203 C
BRANCH  22  23
HETATM   23  O1  UNL     1      14.183  40.639 -14.360  1.00  0.00    -0.396 OA
ATOM     24  H1  UNL     1      13.595  41.338 -14.619  1.00  0.00     0.209 HD
ENDBRANCH  22  23
ENDBRANCH   6  22
BRANCH   7  25
HETATM   25  C15 UNL     1      14.409  40.308  -9.978  1.00  0.00     0.116 C
BRANCH  25  26
HETATM   26  S1  UNL     1      13.166  41.421  -9.647  1.00  0.00    -0.164 SA
BRANCH  26  27
HETATM   27  C16 UNL     1      12.752  42.453  -8.356  1.00  0.00     0.076 C
BRANCH  27  28
HETATM   28  C17 UNL     1      12.847  41.687  -6.957  1.00  0.00     0.030 C
BRANCH  28  29
HETATM   29  C18 UNL     1      11.389  41.379  -6.658  1.00  0.00     0.122 C
BRANCH  29  30
HETATM   30  N5  UNL     1      11.287  40.256  -5.785  1.00  0.00    -0.367 N
HETATM   31  C19 UNL     1      11.167  39.009  -6.089  1.00  0.00     0.196 C
HETATM   32  N6  UNL     1      11.083  38.058  -5.083  1.00  0.00    -0.067 NA
HETATM   33  N7  UNL     1      11.113  38.554  -7.461  1.00  0.00    -0.067 NA
ATOM     34  H5  UNL     1      11.313  40.468  -4.788  1.00  0.00     0.161 HD
ENDBRANCH  29  30
ENDBRANCH  28  29
ENDBRANCH  27  28
ENDBRANCH  26  27
ENDBRANCH  25  26
ENDBRANCH   7  25
TORSDOF 14
ENDMDL