MODEL 2
REMARK VINA RESULT: -6.574218393      2.802      5.199
REMARK  15 active torsions:
REMARK  status: ('A' for Active; 'I' for Inactive)
REMARK    1  A    between atoms: N1_1  and  C1_5
REMARK    2  A    between atoms: C1_5  and  C2_6
REMARK    3  A    between atoms: C2_6  and  C3_7
REMARK    4  A    between atoms: C3_7  and  C4_8
REMARK    5  A    between atoms: C8_15  and  C9_16
REMARK    6  A    between atoms: C10_19  and  C11_20
REMARK    7  A    between atoms: C11_20  and  O4_21
REMARK    8  A    between atoms: C12_23  and  C13_24
REMARK    9  A    between atoms: C13_24  and  C14_25
REMARK   10  A    between atoms: C14_25  and  C15_26
REMARK   11  A    between atoms: C15_26  and  C16_27
REMARK   12  A    between atoms: C16_27  and  C17_28
REMARK   13  A    between atoms: C17_28  and  C18_29
REMARK   14  A    between atoms: C18_29  and  C19_30
REMARK   15  A    between atoms: C19_30  and  O5_31
ROOT
HETATM    1  C4  UNL     1      13.726  40.922 -10.224  1.00  0.00     0.177 C
HETATM    2  N2  UNL     1      13.343  40.194  -9.012  1.00  0.00    -0.345 N
ATOM      3  H2  UNL     1      13.347  40.672  -8.111  1.00  0.00     0.163 HD
HETATM    4  C5  UNL     1      12.952  38.776  -9.087  1.00  0.00     0.238 C
HETATM    5  O1  UNL     1      12.249  38.253  -8.201  1.00  0.00    -0.269 OA
HETATM    6  C6  UNL     1      13.474  38.139 -10.261  1.00  0.00     0.048 C
HETATM    7  C7  UNL     1      13.324  36.913 -10.940  1.00  0.00     0.048 C
HETATM    8  C8  UNL     1      13.568  37.195 -12.442  1.00  0.00     0.098 C
HETATM    9  C10 UNL     1      14.775  37.895 -12.877  1.00  0.00     0.046 C
HETATM   10  C12 UNL     1      14.727  39.391 -13.017  1.00  0.00     0.091 C
HETATM   11  N3  UNL     1      15.445  40.194 -12.076  1.00  0.00    -0.354 N
ATOM     12  H3  UNL     1      16.368  40.509 -12.376  1.00  0.00     0.162 HD
HETATM   13  C20 UNL     1      15.039  40.610 -10.777  1.00  0.00     0.240 C
HETATM   14  O6  UNL     1      15.979  40.746  -9.906  1.00  0.00    -0.271 OA
ENDROOT
BRANCH  10  15
HETATM   15  C13 UNL     1      15.154  39.899 -14.411  1.00  0.00     0.029 C
BRANCH  15  16
HETATM   16  C14 UNL     1      14.135  39.729 -15.458  1.00  0.00     0.029 C
BRANCH  16  17
HETATM   17  C15 UNL     1      14.583  39.082 -16.710  1.00  0.00    -0.031 C
BRANCH  17  18
HETATM   18  C16 UNL     1      14.665  37.638 -16.869  1.00  0.00    -0.031 C
BRANCH  18  19
HETATM   19  C17 UNL     1      15.873  36.874 -16.486  1.00  0.00     0.029 C
BRANCH  19  20
HETATM   20  C18 UNL     1      15.742  35.377 -16.563  1.00  0.00     0.030 C
BRANCH  20  21
HETATM   21  C19 UNL     1      14.513  35.020 -17.396  1.00  0.00     0.164 C
BRANCH  21  22
HETATM   22  O5  UNL     1      13.681  34.183 -16.641  1.00  0.00    -0.401 OA
ATOM     23  H5  UNL     1      13.418  33.445 -17.179  1.00  0.00     0.209 HD
ENDBRANCH  21  22
ENDBRANCH  20  21
ENDBRANCH  19  20
ENDBRANCH  18  19
ENDBRANCH  17  18
ENDBRANCH  16  17
ENDBRANCH  15  16
ENDBRANCH  10  15
BRANCH   9  24
HETATM   24  C11 UNL     1      16.116  37.406 -12.407  1.00  0.00     0.171 C
BRANCH  24  25
HETATM   25  O4  UNL     1      16.662  36.352 -13.082  1.00  0.00    -0.400 OA
ATOM     26  H4  UNL     1      16.066  35.672 -13.375  1.00  0.00     0.209 HD
ENDBRANCH  24  25
ENDBRANCH   9  24
BRANCH   8  27
HETATM   27  C9  UNL     1      13.204  35.962 -13.156  1.00  0.00     0.177 C
HETATM   28  O2  UNL     1      12.995  35.969 -14.384  1.00  0.00    -0.648 OA
HETATM   29  O3  UNL     1      13.076  34.744 -12.504  1.00  0.00    -0.648 OA
ENDBRANCH   8  27
BRANCH   1  30
HETATM   30  C3  UNL     1      13.780  42.403  -9.825  1.00  0.00     0.036 C
BRANCH  30  31
HETATM   31  C2  UNL     1      13.352  42.617  -8.403  1.00  0.00     0.030 C
BRANCH  31  32
HETATM   32  C1  UNL     1      14.420  43.460  -7.738  1.00  0.00     0.230 C
BRANCH  32  33
HETATM   33  N1  UNL     1      15.642  43.331  -8.490  1.00  0.00    -0.079 N
ATOM     34  H13 UNL     1      15.610  42.562  -9.159  1.00  0.00     0.274 HD
ATOM     35  H12 UNL     1      15.773  44.092  -9.157  1.00  0.00     0.274 HD
ATOM     36  H11 UNL     1      16.420  43.247  -7.835  1.00  0.00     0.274 HD
ENDBRANCH  32  33
ENDBRANCH  31  32
ENDBRANCH  30  31
ENDBRANCH   1  30
TORSDOF 15
ENDMDL