MODEL 3
REMARK VINA RESULT: -7.788945279      1.741      2.341
REMARK  14 active torsions:
REMARK  status: ('A' for Active; 'I' for Inactive)
REMARK    1  A    between atoms: C1_2  and  C2_4
REMARK    2  A    between atoms: C2_4  and  C3_5
REMARK    3  A    between atoms: C3_5  and  C4_6
REMARK    4  A    between atoms: C4_6  and  N1_7
REMARK    5  A    between atoms: C4_6  and  C17_29
REMARK       I    between atoms: N1_7  and  C5_9
REMARK    6  A    between atoms: C5_9  and  C6_11
REMARK    7  A    between atoms: C6_11  and  C7_12
REMARK    8  A    between atoms: C6_11  and  N2_14
REMARK    9  A    between atoms: N2_14  and  C8_16
REMARK   10  A    between atoms: C8_16  and  O4_17
REMARK   11  A    between atoms: C8_16  and  C9_19
REMARK   12  A    between atoms: C9_19  and  C10_20
REMARK   13  A    between atoms: C10_20  and  S2_21
REMARK   14  A    between atoms: S2_21  and  C11_23
ROOT
HETATM    1  C6  UNL     1      12.524 -39.497   7.085  1.00  0.00     0.085 C
ENDROOT
BRANCH   1   2
HETATM    2  C5  UNL     1      11.798 -38.798   6.048  1.00  0.00     0.265 C
HETATM    3  N1  UNL     1      11.214 -39.415   4.923  1.00  0.00    -0.341 N
ATOM      4  H1  UNL     1      11.279 -40.432   4.865  1.00  0.00     0.163 HD
HETATM    5  O3  UNL     1      11.640 -37.523   6.100  1.00  0.00    -0.266 OA
BRANCH   3   6
HETATM    6  C4  UNL     1      10.531 -38.739   3.846  1.00  0.00     0.186 C
BRANCH   6   7
HETATM    7  C3  UNL     1      10.687 -39.468   2.555  1.00  0.00     0.046 C
BRANCH   7   8
HETATM    8  C2  UNL     1      11.119 -38.627   1.395  1.00  0.00     0.116 C
BRANCH   8   9
HETATM    9  C1  UNL     1      10.135 -37.703   0.851  1.00  0.00     0.172 C
HETATM   10  O1  UNL     1       9.246 -38.009   0.026  1.00  0.00    -0.648 OA
HETATM   11  O2  UNL     1      10.164 -36.374   1.264  1.00  0.00    -0.648 OA
ENDBRANCH   8   9
ENDBRANCH   7   8
ENDBRANCH   6   7
BRANCH   6  12
HETATM   12  C17 UNL     1       9.027 -38.645   4.123  1.00  0.00     0.196 C
HETATM   13  O6  UNL     1       8.515 -37.935   4.986  1.00  0.00    -0.646 OA
HETATM   14  O7  UNL     1       8.216 -39.444   3.314  1.00  0.00    -0.646 OA
ENDBRANCH   6  12
ENDBRANCH   3   6
ENDBRANCH   1   2
BRANCH   1  15
HETATM   15  C7  UNL     1      12.509 -40.993   6.933  1.00  0.00     0.148 C
HETATM   16  S1  UNL     1      11.667 -41.748   8.342  1.00  0.00    -0.091 SA
ENDBRANCH   1  15
BRANCH   1  17
HETATM   17  N2  UNL     1      12.379 -39.038   8.409  1.00  0.00    -0.362 N
ATOM     18  H2  UNL     1      11.604 -39.358   8.990  1.00  0.00     0.162 HD
BRANCH  17  19
HETATM   19  C8  UNL     1      13.332 -38.122   8.919  1.00  0.00     0.218 C
BRANCH  19  20
HETATM   20  O4  UNL     1      14.594 -38.649   8.684  1.00  0.00    -0.377 OA
ATOM     21  H4  UNL     1      14.941 -38.232   7.904  1.00  0.00     0.212 HD
ENDBRANCH  19  20
BRANCH  19  22
HETATM   22  C9  UNL     1      13.146 -37.675  10.345  1.00  0.00     0.066 C
BRANCH  22  23
HETATM   23  C10 UNL     1      14.286 -36.776  10.818  1.00  0.00     0.113 C
BRANCH  23  24
HETATM   24  S2  UNL     1      14.019 -35.944  12.286  1.00  0.00     0.019 S
HETATM   25  O5  UNL     1      13.142 -34.606  12.382  1.00  0.00    -0.258 OA
BRANCH  24  26
HETATM   26  C11 UNL     1      14.611 -36.673  13.735  1.00  0.00     0.079 C
HETATM   27  C12 UNL     1      14.210 -38.152  13.853  1.00  0.00     0.017 C
HETATM   28  C13 UNL     1      15.149 -38.778  14.854  1.00  0.00     0.001 C
HETATM   29  C14 UNL     1      15.158 -37.891  16.097  1.00  0.00     0.000 C
HETATM   30  C15 UNL     1      13.978 -36.965  16.094  1.00  0.00     0.001 C
HETATM   31  C16 UNL     1      13.994 -35.988  14.963  1.00  0.00     0.017 C
ENDBRANCH  24  26
ENDBRANCH  23  24
ENDBRANCH  22  23
ENDBRANCH  19  22
ENDBRANCH  17  19
ENDBRANCH   1  17
TORSDOF 14
ENDMDL