MODEL 3
REMARK VINA RESULT: -5.882625713      2.950      8.182
REMARK  16 active torsions:
REMARK  status: ('A' for Active; 'I' for Inactive)
REMARK    1  A    between atoms: N1_1  and  C1_5
REMARK    2  A    between atoms: C1_5  and  C2_6
REMARK    3  A    between atoms: C2_6  and  C3_7
REMARK    4  A    between atoms: C3_7  and  C4_8
REMARK    5  A    between atoms: C4_8  and  C5_9
REMARK    6  A    between atoms: C5_9  and  N2_10
REMARK    7  A    between atoms: N2_10  and  C6_12
REMARK    8  A    between atoms: N3_19  and  C13_20
REMARK    9  A    between atoms: C13_20  and  C14_21
REMARK   10  A    between atoms: C14_21  and  C15_22
REMARK   11  A    between atoms: C15_22  and  N4_23
REMARK   12  A    between atoms: C17_29  and  C18_30
REMARK   13  A    between atoms: C18_30  and  C19_31
REMARK   14  A    between atoms: C19_31  and  C20_32
REMARK   15  A    between atoms: C20_32  and  C21_33
REMARK   16  A    between atoms: C21_33  and  N5_34
ROOT
HETATM    1  C6  UNL     1      13.595 -38.512  10.036  1.00  0.00     0.173 C
HETATM    2  C7  UNL     1      14.624 -39.553   9.879  1.00  0.00     0.035 C
HETATM    3  C8  UNL     1      14.399 -40.802  10.755  1.00  0.00     0.002 C
HETATM    4  C9  UNL     1      15.546 -41.085  11.659  1.00  0.00     0.000 C
HETATM    5  C10 UNL     1      15.247 -41.764  12.948  1.00  0.00     0.002 C
HETATM    6  C11 UNL     1      14.681 -41.022  14.057  1.00  0.00     0.020 C
HETATM    7  C12 UNL     1      14.380 -39.593  13.991  1.00  0.00     0.126 C
HETATM    8  N3  UNL     1      15.433 -38.629  13.874  1.00  0.00    -0.347 N
HETATM    9  C16 UNL     1      15.454 -37.487  13.044  1.00  0.00     0.266 C
HETATM   10  O1  UNL     1      16.575 -37.315  12.429  1.00  0.00    -0.266 OA
HETATM   11  C17 UNL     1      14.444 -36.470  12.756  1.00  0.00     0.080 C
HETATM   12  N6  UNL     1      14.081 -36.311  11.370  1.00  0.00    -0.324 N
ATOM     13  H6  UNL     1      13.634 -35.420  11.154  1.00  0.00     0.169 HD
HETATM   14  C22 UNL     1      14.230 -37.152  10.279  1.00  0.00     0.244 C
HETATM   15  O2  UNL     1      14.975 -36.830   9.303  1.00  0.00    -0.271 OA
ENDROOT
BRANCH   1  16
HETATM   16  N2  UNL     1      12.543 -38.307   9.175  1.00  0.00    -0.389 N
ATOM     17  H2  UNL     1      11.700 -37.926   9.604  1.00  0.00     0.159 HD
BRANCH  16  18
HETATM   18  C5  UNL     1      12.456 -38.537   7.823  1.00  0.00     0.056 C
BRANCH  18  19
HETATM   19  C4  UNL     1      11.571 -39.626   7.293  1.00  0.00     0.044 C
BRANCH  19  20
HETATM   20  C3  UNL     1      11.944 -41.013   7.814  1.00  0.00     0.007 C
BRANCH  20  21
HETATM   21  C2  UNL     1      12.980 -41.641   6.940  1.00  0.00     0.027 C
BRANCH  21  22
HETATM   22  C1  UNL     1      13.667 -42.802   7.677  1.00  0.00     0.229 C
BRANCH  22  23
HETATM   23  N1  UNL     1      14.578 -43.477   6.793  1.00  0.00    -0.079 N
ATOM     24  H13 UNL     1      14.387 -43.265   5.813  1.00  0.00     0.274 HD
ATOM     25  H12 UNL     1      15.521 -43.092   6.848  1.00  0.00     0.274 HD
ATOM     26  H11 UNL     1      14.564 -44.480   6.976  1.00  0.00     0.274 HD
ENDBRANCH  22  23
ENDBRANCH  21  22
ENDBRANCH  20  21
ENDBRANCH  19  20
ENDBRANCH  18  19
ENDBRANCH  16  18
ENDBRANCH   1  16
BRANCH  11  27
HETATM   27  C18 UNL     1      13.302 -36.418  13.722  1.00  0.00     0.063 C
BRANCH  27  28
HETATM   28  C19 UNL     1      13.556 -35.441  14.873  1.00  0.00     0.008 C
BRANCH  28  29
HETATM   29  C20 UNL     1      13.515 -36.321  16.127  1.00  0.00     0.027 C
BRANCH  29  30
HETATM   30  C21 UNL     1      13.873 -35.554  17.378  1.00  0.00     0.229 C
BRANCH  30  31
HETATM   31  N5  UNL     1      13.867 -34.139  16.971  1.00  0.00    -0.079 N
ATOM     32  H53 UNL     1      13.415 -33.969  16.073  1.00  0.00     0.274 HD
ATOM     33  H52 UNL     1      13.246 -33.552  17.528  1.00  0.00     0.274 HD
ATOM     34  H51 UNL     1      14.846 -33.851  17.002  1.00  0.00     0.274 HD
ENDBRANCH  30  31
ENDBRANCH  29  30
ENDBRANCH  28  29
ENDBRANCH  27  28
ENDBRANCH  11  27
BRANCH   8  35
HETATM   35  C13 UNL     1      16.607 -38.837  14.720  1.00  0.00     0.127 C
BRANCH  35  36
HETATM   36  C14 UNL     1      16.518 -38.082  16.021  1.00  0.00     0.047 C
BRANCH  36  37
HETATM   37  C15 UNL     1      17.577 -36.990  16.085  1.00  0.00     0.231 C
BRANCH  37  38
HETATM   38  N4  UNL     1      17.215 -35.828  15.347  1.00  0.00    -0.079 N
ATOM     39  H43 UNL     1      18.036 -35.392  14.926  1.00  0.00     0.274 HD
ATOM     40  H42 UNL     1      16.707 -36.078  14.498  1.00  0.00     0.274 HD
ATOM     41  H41 UNL     1      16.688 -35.155  15.903  1.00  0.00     0.274 HD
ENDBRANCH  37  38
ENDBRANCH  36  37
ENDBRANCH  35  36
ENDBRANCH   8  35
TORSDOF 16
ENDMDL