MODEL 5
REMARK VINA RESULT: -7.265037865      1.025      1.268
REMARK  16 active torsions:
REMARK  status: ('A' for Active; 'I' for Inactive)
REMARK    1  A    between atoms: C2_2  and  C3_3
REMARK    2  A    between atoms: C3_3  and  C4_4
REMARK    3  A    between atoms: C4_4  and  C5_5
REMARK    4  A    between atoms: C5_5  and  C6_6
REMARK    5  A    between atoms: C6_6  and  C7_7
REMARK    6  A    between atoms: C7_7  and  C8_8
REMARK    7  A    between atoms: C8_8  and  C9_9
REMARK    8  A    between atoms: C9_9  and  C10_10
REMARK    9  A    between atoms: C10_10  and  N1_11
REMARK   10  A    between atoms: N1_11  and  C11_13
REMARK   11  A    between atoms: C12_16  and  N3_17
REMARK   12  A    between atoms: N3_17  and  C13_19
REMARK   13  A    between atoms: C13_19  and  C14_20
REMARK   14  A    between atoms: C14_20  and  N4_21
REMARK   15  A    between atoms: C19_29  and  N6_30
REMARK   16  A    between atoms: N6_30  and  N7_32
REMARK       I    between atoms: N7_32  and  C20_34
ROOT
HETATM    1  C11 UNL     1      12.510 -38.940   8.356  1.00  0.00     0.707 A
HETATM    2  N2  UNL     1      12.105 -40.238   8.429  1.00  0.00    -0.022 N
ATOM      3  H2  UNL     1      12.179 -40.754   9.305  1.00  0.00     0.203 HD
HETATM    4  C12 UNL     1      11.602 -40.834   7.324  1.00  0.00     0.707 A
HETATM    5  N5  UNL     1      11.498 -40.160   6.162  1.00  0.00    -0.020 N
ATOM      6  H5  UNL     1      11.116 -40.625   5.340  1.00  0.00     0.203 HD
HETATM    7  C19 UNL     1      11.895 -38.880   6.078  1.00  0.00     0.726 A
HETATM    8  N10 UNL     1      12.391 -38.312   7.188  1.00  0.00    -0.020 N
ATOM      9  H10 UNL     1      12.695 -37.340   7.133  1.00  0.00     0.203 HD
ENDROOT
BRANCH   1  10
HETATM   10  N1  UNL     1      12.981 -38.428   9.442  1.00  0.00    -0.225 N
ATOM     11  H1  UNL     1      12.457 -38.470  10.316  1.00  0.00     0.177 HD
BRANCH  10  12
HETATM   12  C10 UNL     1      14.281 -37.794   9.376  1.00  0.00     0.138 C
BRANCH  12  13
HETATM   13  C9  UNL     1      14.464 -36.828  10.557  1.00  0.00     0.020 C
BRANCH  13  14
HETATM   14  C8  UNL     1      13.209 -36.870  11.402  1.00  0.00     0.002 C
BRANCH  14  15
HETATM   15  C7  UNL     1      13.286 -36.023  12.614  1.00  0.00     0.000 C
BRANCH  15  16
HETATM   16  C6  UNL     1      14.472 -36.271  13.494  1.00  0.00     0.000 C
BRANCH  16  17
HETATM   17  C5  UNL     1      14.211 -37.138  14.664  1.00  0.00     0.000 C
BRANCH  17  18
HETATM   18  C4  UNL     1      14.537 -38.579  14.354  1.00  0.00     0.000 C
BRANCH  18  19
HETATM   19  C3  UNL     1      15.827 -38.773  13.618  1.00  0.00    -0.000 C
BRANCH  19  20
HETATM   20  C2  UNL     1      15.561 -39.778  12.512  1.00  0.00    -0.005 C
HETATM   21  C1  UNL     1      14.125 -40.248  12.547  1.00  0.00     0.005 C
ENDBRANCH  19  20
ENDBRANCH  18  19
ENDBRANCH  17  18
ENDBRANCH  16  17
ENDBRANCH  15  16
ENDBRANCH  14  15
ENDBRANCH  13  14
ENDBRANCH  12  13
ENDBRANCH  10  12
ENDBRANCH   1  10
BRANCH   4  22
HETATM   22  N3  UNL     1      11.242 -42.044   7.452  1.00  0.00    -0.224 N
ATOM     23  H3  UNL     1      10.739 -42.444   6.659  1.00  0.00     0.177 HD
BRANCH  22  24
HETATM   24  C13 UNL     1      11.448 -42.919   8.558  1.00  0.00     0.157 C
BRANCH  24  25
HETATM   25  C14 UNL     1      12.490 -43.936   8.245  1.00  0.00     0.137 C
BRANCH  25  26
HETATM   26  N4  UNL     1      13.716 -43.766   8.950  1.00  0.00    -0.407 N
HETATM   27  C15 UNL     1      13.563 -43.544  10.356  1.00  0.00     0.143 C
HETATM   28  C16 UNL     1      14.915 -43.559  11.045  1.00  0.00     0.187 C
HETATM   29  O1  UNL     1      15.801 -42.668  10.443  1.00  0.00    -0.388 OA
HETATM   30  C17 UNL     1      15.253 -41.986   9.384  1.00  0.00     0.187 C
HETATM   31  C18 UNL     1      14.681 -42.933   8.322  1.00  0.00     0.143 C
ENDBRANCH  25  26
ENDBRANCH  24  25
ENDBRANCH  22  24
ENDBRANCH   4  22
BRANCH   7  32
HETATM   32  N6  UNL     1      11.791 -38.246   4.962  1.00  0.00    -0.129 N
ATOM     33  H6  UNL     1      12.218 -37.322   4.891  1.00  0.00     0.205 HD
BRANCH  32  34
HETATM   34  N7  UNL     1      11.136 -38.746   3.861  1.00  0.00    -0.260 N
HETATM   35  C20 UNL     1       9.967 -38.103   3.399  1.00  0.00     0.201 C
HETATM   36  N8  UNL     1      10.039 -37.375   2.341  1.00  0.00    -0.372 N
HETATM   37  N9  UNL     1       8.733 -38.235   4.065  1.00  0.00    -0.062 NA
ATOM     38  H82 UNL     1      10.933 -37.280   1.859  1.00  0.00     0.158 HD
ATOM     39  H81 UNL     1       9.195 -36.910   2.007  1.00  0.00     0.158 HD
ATOM     40  H7  UNL     1      11.492 -39.574   3.382  1.00  0.00     0.190 HD
ENDBRANCH  32  34
ENDBRANCH   7  32
TORSDOF 16
ENDMDL