MODEL 1
REMARK VINA RESULT: -8.247647760      0.000      0.000
REMARK  15 active torsions:
REMARK  status: ('A' for Active; 'I' for Inactive)
REMARK    1  A    between atoms: N1_1  and  C1_5
REMARK    2  A    between atoms: C1_5  and  C2_6
REMARK    3  A    between atoms: C1_5  and  C7_11
REMARK    4  A    between atoms: C7_11  and  O1_12
REMARK    5  A    between atoms: C7_11  and  C8_14
REMARK    6  A    between atoms: C8_14  and  O2_15
REMARK    7  A    between atoms: C8_14  and  C9_17
REMARK    8  A    between atoms: C9_17  and  C10_18
REMARK    9  A    between atoms: C10_18  and  C11_19
REMARK   10  A    between atoms: C11_19  and  C12_20
REMARK   11  A    between atoms: C13_21  and  C14_22
REMARK   12  A    between atoms: C14_22  and  C15_23
REMARK   13  A    between atoms: C15_23  and  C16_24
REMARK   14  A    between atoms: C16_24  and  C17_25
REMARK   15  A    between atoms: C18_29  and  C19_30
ROOT
HETATM    1  C10 UNL     1      12.248 -40.338   7.544  1.00  0.00     0.128 C
HETATM    2  O5  UNL     1      13.513 -40.983   7.351  1.00  0.00    -0.356 OA
HETATM    3  C18 UNL     1      13.239 -42.252   6.926  1.00  0.00     0.230 C
HETATM    4  C20 UNL     1      11.936 -42.687   7.550  1.00  0.00     0.124 C
HETATM    5  C21 UNL     1      11.554 -41.459   8.303  1.00  0.00     0.164 C
HETATM    6  O8  UNL     1      10.859 -41.456   9.267  1.00  0.00    -0.295 OA
ENDROOT
BRANCH   1   7
HETATM    7  C9  UNL     1      11.602 -40.061   6.276  1.00  0.00     0.080 C
BRANCH   7   8
HETATM    8  C8  UNL     1      10.913 -38.854   5.843  1.00  0.00     0.152 C
BRANCH   8   9
HETATM    9  C7  UNL     1       9.934 -38.815   4.752  1.00  0.00     0.177 C
BRANCH   9  10
HETATM   10  C1  UNL     1      10.477 -38.273   3.430  1.00  0.00     0.218 C
BRANCH  10  11
HETATM   11  N1  UNL     1      11.320 -39.424   2.956  1.00  0.00    -0.072 N
ATOM     12  H13 UNL     1      11.083 -40.314   3.395  1.00  0.00     0.274 HD
ATOM     13  H12 UNL     1      11.124 -39.707   1.996  1.00  0.00     0.274 HD
ATOM     14  H11 UNL     1      12.288 -39.138   3.108  1.00  0.00     0.274 HD
ENDBRANCH  10  11
BRANCH  10  15
HETATM   15  C2  UNL     1       9.398 -38.099   2.384  1.00  0.00     0.018 C
HETATM   16  C3  UNL     1       9.584 -39.127   1.271  1.00  0.00     0.007 C
HETATM   17  C4  UNL     1      10.006 -38.307   0.076  1.00  0.00     0.000 C
HETATM   18  C5  UNL     1       9.058 -37.115   0.239  1.00  0.00     0.000 C
HETATM   19  C6  UNL     1       9.389 -36.763   1.703  1.00  0.00     0.007 C
ENDBRANCH  10  15
ENDBRANCH   9  10
BRANCH   9  20
HETATM   20  O1  UNL     1       8.721 -38.192   4.944  1.00  0.00    -0.391 OA
ATOM     21  H1  UNL     1       8.921 -37.348   5.332  1.00  0.00     0.210 HD
ENDBRANCH   9  20
ENDBRANCH   8   9
BRANCH   8  22
HETATM   22  O2  UNL     1      12.029 -38.055   5.286  1.00  0.00    -0.393 OA
ATOM     23  H2  UNL     1      12.264 -37.501   6.022  1.00  0.00     0.210 HD
ENDBRANCH   8  22
ENDBRANCH   7   8
ENDBRANCH   1   7
BRANCH   1  24
HETATM   24  C11 UNL     1      12.405 -39.203   8.481  1.00  0.00     0.073 C
BRANCH  24  25
HETATM   25  C12 UNL     1      13.612 -39.400   9.364  1.00  0.00    -0.027 C
HETATM   26  C13 UNL     1      13.580 -39.171  10.663  1.00  0.00    -0.030 C
BRANCH  26  27
HETATM   27  C14 UNL     1      14.801 -39.383  11.489  1.00  0.00     0.027 C
BRANCH  27  28
HETATM   28  C15 UNL     1      14.976 -38.284  12.501  1.00  0.00     0.014 C
BRANCH  28  29
HETATM   29  C16 UNL     1      13.798 -37.371  12.586  1.00  0.00     0.113 C
BRANCH  29  30
HETATM   30  C17 UNL     1      14.053 -35.993  12.126  1.00  0.00     0.172 C
HETATM   31  O3  UNL     1      15.077 -35.718  11.466  1.00  0.00    -0.648 OA
HETATM   32  O4  UNL     1      13.158 -34.987  12.421  1.00  0.00    -0.648 OA
ENDBRANCH  29  30
ENDBRANCH  28  29
ENDBRANCH  27  28
ENDBRANCH  26  27
ENDBRANCH  24  25
ENDBRANCH   1  24
BRANCH   3  33
HETATM   33  C19 UNL     1      14.334 -43.196   7.271  1.00  0.00     0.203 C
HETATM   34  O6  UNL     1      14.509 -44.296   6.693  1.00  0.00    -0.646 OA
HETATM   35  O7  UNL     1      15.219 -42.859   8.286  1.00  0.00    -0.646 OA
ENDBRANCH   3  33
TORSDOF 15
ENDMDL