MODEL 5
REMARK VINA RESULT: -7.257250444      2.233      3.260
REMARK  16 active torsions:
REMARK  status: ('A' for Active; 'I' for Inactive)
REMARK    1  A    between atoms: C2_2  and  C3_3
REMARK    2  A    between atoms: C8_8  and  C9_9
REMARK    3  A    between atoms: C10_10  and  C11_11
REMARK    4  A    between atoms: C12_12  and  C13_13
REMARK    5  A    between atoms: C13_13  and  O1_14
REMARK    6  A    between atoms: C13_13  and  C14_16
REMARK    7  A    between atoms: C14_16  and  C15_17
REMARK    8  A    between atoms: C15_17  and  N1_18
REMARK    9  A    between atoms: N1_18  and  S1_20
REMARK   10  A    between atoms: S1_20  and  N2_23
REMARK   11  A    between atoms: N2_23  and  C16_25
REMARK   12  A    between atoms: C16_25  and  C17_26
REMARK   13  A    between atoms: C17_26  and  C18_27
REMARK   14  A    between atoms: C18_27  and  N3_28
REMARK   15  A    between atoms: N3_28  and  C19_30
REMARK   16  A    between atoms: C19_30  and  C20_31
ROOT
HETATM    1  C15 UNL     1      11.898 -38.691   7.257  1.00  0.00     0.137 C
ENDROOT
BRANCH   1   2
HETATM    2  C14 UNL     1      12.707 -39.377   8.368  1.00  0.00     0.065 C
BRANCH   2   3
HETATM    3  C13 UNL     1      13.886 -38.472   8.623  1.00  0.00     0.198 C
BRANCH   3   4
HETATM    4  C12 UNL     1      13.618 -37.746   9.862  1.00  0.00    -0.070 C
HETATM    5  C11 UNL     1      13.416 -37.146  10.897  1.00  0.00    -0.076 C
BRANCH   5   6
HETATM    6  C10 UNL     1      13.139 -36.421  12.097  1.00  0.00     0.061 C
HETATM    7  C9  UNL     1      13.741 -36.395  13.217  1.00  0.00    -0.013 C
BRANCH   7   8
HETATM    8  C8  UNL     1      14.932 -37.098  13.672  1.00  0.00     0.016 C
HETATM    9  C3  UNL     1      15.021 -36.958  15.184  1.00  0.00     0.015 C
HETATM   10  C4  UNL     1      16.345 -36.342  15.551  1.00  0.00     0.009 C
HETATM   11  C5  UNL     1      17.454 -37.253  15.095  1.00  0.00     0.001 C
HETATM   12  C6  UNL     1      17.371 -37.538  13.628  1.00  0.00     0.001 C
HETATM   13  C7  UNL     1      16.220 -36.749  12.983  1.00  0.00     0.009 C
BRANCH   9  14
HETATM   14  C2  UNL     1      13.919 -36.069  15.640  1.00  0.00    -0.032 C
HETATM   15  C1  UNL     1      13.852 -35.588  16.874  1.00  0.00     0.007 C
ENDBRANCH   9  14
ENDBRANCH   7   8
ENDBRANCH   5   6
ENDBRANCH   3   4
BRANCH   3  16
HETATM   16  O1  UNL     1      13.951 -37.574   7.534  1.00  0.00    -0.383 OA
ATOM     17  H1  UNL     1      13.787 -38.033   6.718  1.00  0.00     0.211 HD
ENDBRANCH   3  16
ENDBRANCH   2   3
ENDBRANCH   1   2
BRANCH   1  18
HETATM   18  N1  UNL     1      11.862 -39.612   6.163  1.00  0.00    -0.303 N
ATOM     19  H1  UNL     1      12.527 -40.380   6.066  1.00  0.00     0.173 HD
BRANCH  18  20
HETATM   20  S1  UNL     1      10.618 -39.321   5.033  1.00  0.00     0.314 S
HETATM   21  O2  UNL     1       9.746 -38.165   5.465  1.00  0.00    -0.183 OA
HETATM   22  O3  UNL     1       9.737 -40.561   4.968  1.00  0.00    -0.183 OA
BRANCH  20  23
HETATM   23  N2  UNL     1      11.317 -39.004   3.492  1.00  0.00    -0.303 N
ATOM     24  H2  UNL     1      12.324 -38.949   3.335  1.00  0.00     0.173 HD
BRANCH  23  25
HETATM   25  C16 UNL     1      10.340 -38.823   2.449  1.00  0.00     0.135 C
BRANCH  25  26
HETATM   26  C17 UNL     1      10.768 -39.521   1.174  1.00  0.00     0.039 C
BRANCH  26  27
HETATM   27  C18 UNL     1       9.877 -40.675   0.828  1.00  0.00     0.116 C
BRANCH  27  28
HETATM   28  N3  UNL     1       9.432 -41.443   1.945  1.00  0.00    -0.412 N
ATOM     29  H3  UNL     1       9.620 -41.163   2.908  1.00  0.00     0.153 HD
BRANCH  28  30
HETATM   30  C19 UNL     1       8.706 -42.630   1.625  1.00  0.00     0.228 C
BRANCH  30  31
HETATM   31  C20 UNL     1       7.544 -42.751   2.537  1.00  0.00     0.190 C
HETATM   32  O4  UNL     1       7.186 -41.776   3.240  1.00  0.00    -0.647 OA
HETATM   33  O5  UNL     1       6.842 -43.935   2.625  1.00  0.00    -0.647 OA
ENDBRANCH  30  31
ENDBRANCH  28  30
ENDBRANCH  27  28
ENDBRANCH  26  27
ENDBRANCH  25  26
ENDBRANCH  23  25
ENDBRANCH  20  23
ENDBRANCH  18  20
ENDBRANCH   1  18
TORSDOF 16
ENDMDL