MODEL 2
REMARK VINA RESULT: -7.086678139      3.682      8.985
REMARK  16 active torsions:
REMARK  status: ('A' for Active; 'I' for Inactive)
REMARK    1  A    between atoms: N1_1  and  C1_5
REMARK    2  A    between atoms: C1_5  and  C2_6
REMARK    3  A    between atoms: C2_6  and  C3_7
REMARK    4  A    between atoms: C3_7  and  C4_8
REMARK    5  A    between atoms: C4_8  and  C5_9
REMARK    6  A    between atoms: C5_9  and  C6_10
REMARK    7  A    between atoms: C5_9  and  N4_20
REMARK    8  A    between atoms: C6_10  and  C7_11
REMARK    9  A    between atoms: C7_11  and  C8_12
REMARK   10  A    between atoms: C8_12  and  C9_13
REMARK       I    between atoms: N4_20  and  C12_22
REMARK   11  A    between atoms: C12_22  and  C13_24
REMARK   12  A    between atoms: N5_28  and  C17_29
REMARK   13  A    between atoms: C17_29  and  O2_30
REMARK   14  A    between atoms: C17_29  and  C18_32
REMARK   15  A    between atoms: C18_32  and  N6_33
REMARK   16  A    between atoms: C18_32  and  C19_37
ROOT
HETATM    1  N4  UNL     1      12.570 -39.137   9.135  1.00  0.00    -0.355 N
ATOM      2  H4  UNL     1      11.692 -39.253   9.642  1.00  0.00     0.162 HD
HETATM    3  C12 UNL     1      13.641 -38.503   9.803  1.00  0.00     0.251 C
HETATM    4  O1  UNL     1      14.733 -38.343   9.216  1.00  0.00    -0.271 OA
ENDROOT
BRANCH   1   5
HETATM    5  C5  UNL     1      12.641 -39.638   7.760  1.00  0.00     0.084 C
BRANCH   5   6
HETATM    6  C4  UNL     1      12.168 -41.027   7.781  1.00  0.00     0.025 C
BRANCH   6   7
HETATM    7  C3  UNL     1      11.643 -41.734   8.941  1.00  0.00     0.004 C
BRANCH   7   8
HETATM    8  C2  UNL     1      10.889 -43.001   8.746  1.00  0.00     0.027 C
BRANCH   8   9
HETATM    9  C1  UNL     1      10.561 -43.594  10.146  1.00  0.00     0.229 C
BRANCH   9  10
HETATM   10  N1  UNL     1       9.190 -43.297  10.501  1.00  0.00    -0.079 N
ATOM     11  H13 UNL     1       9.086 -43.104  11.497  1.00  0.00     0.274 HD
ATOM     12  H12 UNL     1       8.889 -42.391  10.142  1.00  0.00     0.274 HD
ATOM     13  H11 UNL     1       8.577 -44.052  10.194  1.00  0.00     0.274 HD
ENDBRANCH   9  10
ENDBRANCH   8   9
ENDBRANCH   7   8
ENDBRANCH   6   7
ENDBRANCH   5   6
BRANCH   5  14
HETATM   14  C6  UNL     1      11.933 -38.728   6.822  1.00  0.00     0.025 C
BRANCH  14  15
HETATM   15  C7  UNL     1      11.199 -39.599   5.738  1.00  0.00     0.008 C
BRANCH  15  16
HETATM   16  C8  UNL     1      10.261 -38.670   5.002  1.00  0.00     0.058 C
BRANCH  16  17
HETATM   17  C9  UNL     1      10.481 -38.671   3.555  1.00  0.00     0.025 A
HETATM   18  C10 UNL     1       9.751 -37.948   2.635  1.00  0.00     0.113 A
HETATM   19  N2  UNL     1      10.227 -38.190   1.415  1.00  0.00    -0.360 N
HETATM   20  C11 UNL     1      11.250 -39.059   1.566  1.00  0.00     0.180 A
ATOM     21  H2  UNL     1       9.886 -37.796   0.539  1.00  0.00     0.166 HD
HETATM   22  N3  UNL     1      11.406 -39.353   2.873  1.00  0.00    -0.355 N
ATOM     23  H3  UNL     1      12.104 -39.982   3.269  1.00  0.00     0.166 HD
ENDBRANCH  16  17
ENDBRANCH  15  16
ENDBRANCH  14  15
ENDBRANCH   5  14
ENDBRANCH   1   5
BRANCH   3  24
HETATM   24  C13 UNL     1      13.521 -38.011  11.200  1.00  0.00     0.317 C
HETATM   25  C14 UNL     1      13.883 -36.518  11.253  1.00  0.00     0.047 C
HETATM   26  C15 UNL     1      14.233 -36.358  12.714  1.00  0.00     0.033 C
HETATM   27  C16 UNL     1      14.305 -37.746  13.292  1.00  0.00     0.277 C
HETATM   28  N5  UNL     1      14.501 -38.564  12.082  1.00  0.00     0.133 N
BRANCH  28  29
HETATM   29  C17 UNL     1      14.259 -39.961  12.393  1.00  0.00     0.394 C
BRANCH  29  30
HETATM   30  O2  UNL     1      14.069 -40.034  13.791  1.00  0.00    -0.366 OA
ATOM     31  H2  UNL     1      13.426 -40.716  13.941  1.00  0.00     0.212 HD
ENDBRANCH  29  30
BRANCH  29  32
HETATM   32  C18 UNL     1      15.500 -40.732  12.000  1.00  0.00     0.291 C
BRANCH  32  33
HETATM   33  N6  UNL     1      16.507 -39.786  11.496  1.00  0.00    -0.065 N
ATOM     34  H63 UNL     1      16.216 -38.814  11.602  1.00  0.00     0.275 HD
ATOM     35  H62 UNL     1      17.337 -39.750  12.087  1.00  0.00     0.275 HD
ATOM     36  H61 UNL     1      16.727 -40.024  10.529  1.00  0.00     0.275 HD
ENDBRANCH  32  33
BRANCH  32  37
HETATM   37  C19 UNL     1      15.216 -41.714  10.922  1.00  0.00     0.036 C
HETATM   38  C20 UNL     1      15.729 -41.687   9.703  1.00  0.00     0.002 C
HETATM   39  C21 UNL     1      15.228 -42.812   8.899  1.00  0.00     0.048 C
HETATM   40  C22 UNL     1      14.658 -43.751   9.931  1.00  0.00     0.123 C
HETATM   41  N7  UNL     1      14.351 -42.832  11.032  1.00  0.00    -0.391 N
ATOM     42  H7  UNL     1      13.640 -42.972  11.750  1.00  0.00     0.159 HD
ENDBRANCH  32  37
ENDBRANCH  29  32
ENDBRANCH  28  29
ENDBRANCH   3  24
TORSDOF 16
ENDMDL