MODEL 1
REMARK VINA RESULT: -8.224160697      0.000      0.000
REMARK  17 active torsions:
REMARK  status: ('A' for Active; 'I' for Inactive)
REMARK    1  A    between atoms: C2_2  and  C3_3
REMARK    2  A    between atoms: C3_3  and  C4_4
REMARK    3  A    between atoms: C4_4  and  C5_5
REMARK    4  A    between atoms: C5_5  and  C6_6
REMARK    5  A    between atoms: C6_6  and  C7_7
REMARK    6  A    between atoms: C7_7  and  C8_8
REMARK    7  A    between atoms: C8_8  and  C9_9
REMARK    8  A    between atoms: C9_9  and  C10_10
REMARK    9  A    between atoms: C10_10  and  C11_11
REMARK   10  A    between atoms: C11_11  and  C12_12
REMARK       I    between atoms: C12_12  and  N1_14
REMARK   11  A    between atoms: N1_14  and  C13_16
REMARK   12  A    between atoms: N3_21  and  C15_22
REMARK   13  A    between atoms: C15_22  and  C16_23
REMARK   14  A    between atoms: C16_23  and  C17_24
REMARK   15  A    between atoms: C18_28  and  O3_29
REMARK   16  A    between atoms: C19_31  and  O4_32
REMARK   17  A    between atoms: C20_34  and  O5_35
ROOT
HETATM    1  C13 UNL     1      12.497 -38.656   6.629  1.00  0.00     0.703 A
HETATM    2  N2  UNL     1      12.144 -39.614   7.527  1.00  0.00    -0.138 N
ATOM      3  H2  UNL     1      11.495 -40.386   7.373  1.00  0.00     0.189 HD
HETATM    4  C14 UNL     1      12.814 -39.345   8.649  1.00  0.00     0.355 A
HETATM    5  O2  UNL     1      12.705 -40.066   9.699  1.00  0.00    -0.244 OA
HETATM    6  N3  UNL     1      13.571 -38.255   8.484  1.00  0.00    -0.228 N
HETATM    7  N5  UNL     1      13.359 -37.848   7.235  1.00  0.00    -0.126 N
ATOM      8  H5  UNL     1      13.797 -37.034   6.804  1.00  0.00     0.206 HD
ENDROOT
BRANCH   1   9
HETATM    9  N1  UNL     1      12.052 -38.597   5.450  1.00  0.00    -0.158 N
HETATM   10  C12 UNL     1      10.746 -38.506   4.987  1.00  0.00     0.235 C
HETATM   11  O1  UNL     1       9.782 -38.309   5.746  1.00  0.00    -0.273 OA
ATOM     12  H1  UNL     1      12.766 -38.619   4.721  1.00  0.00     0.187 HD
BRANCH  10  13
HETATM   13  C11 UNL     1      10.510 -38.658   3.482  1.00  0.00     0.103 C
BRANCH  13  14
HETATM   14  C10 UNL     1       9.298 -37.870   3.099  1.00  0.00     0.009 C
BRANCH  14  15
HETATM   15  C9  UNL     1       9.320 -36.960   1.974  1.00  0.00     0.001 C
BRANCH  15  16
HETATM   16  C8  UNL     1       9.142 -37.356   0.566  1.00  0.00     0.004 C
BRANCH  16  17
HETATM   17  C7  UNL     1      10.062 -38.294  -0.072  1.00  0.00     0.027 C
BRANCH  17  18
HETATM   18  C6  UNL     1       9.618 -39.706  -0.078  1.00  0.00    -0.031 C
BRANCH  18  19
HETATM   19  C5  UNL     1      10.147 -40.759   0.767  1.00  0.00    -0.031 C
BRANCH  19  20
HETATM   20  C4  UNL     1       9.384 -41.992   1.090  1.00  0.00     0.027 C
BRANCH  20  21
HETATM   21  C3  UNL     1       8.576 -41.755   2.394  1.00  0.00     0.003 C
BRANCH  21  22
HETATM   22  C2  UNL     1       7.553 -42.827   2.570  1.00  0.00    -0.004 C
HETATM   23  C1  UNL     1       7.572 -43.856   1.478  1.00  0.00     0.005 C
ENDBRANCH  21  22
ENDBRANCH  20  21
ENDBRANCH  19  20
ENDBRANCH  18  19
ENDBRANCH  17  18
ENDBRANCH  16  17
ENDBRANCH  15  16
ENDBRANCH  14  15
ENDBRANCH  13  14
ENDBRANCH  10  13
ENDBRANCH   1   9
BRANCH   6  24
HETATM   24  C15 UNL     1      14.440 -37.650   9.464  1.00  0.00     0.156 C
BRANCH  24  25
HETATM   25  C16 UNL     1      13.584 -37.126  10.587  1.00  0.00     0.058 C
BRANCH  25  26
HETATM   26  C17 UNL     1      14.413 -36.582  11.728  1.00  0.00     0.221 C
HETATM   27  N4  UNL     1      15.067 -37.631  12.475  1.00  0.00    -0.040 N
HETATM   28  C18 UNL     1      15.536 -36.930  13.656  1.00  0.00     0.350 C
ATOM     29  H42 UNL     1      14.487 -38.448  12.663  1.00  0.00     0.280 HD
ATOM     30  H41 UNL     1      15.789 -38.137  11.961  1.00  0.00     0.280 HD
HETATM   31  C19 UNL     1      14.367 -36.038  14.007  1.00  0.00     0.205 C
HETATM   32  C20 UNL     1      13.524 -35.950  12.752  1.00  0.00     0.181 C
BRANCH  28  33
HETATM   33  O3  UNL     1      16.702 -36.201  13.403  1.00  0.00    -0.368 OA
ATOM     34  H3  UNL     1      17.443 -36.534  13.895  1.00  0.00     0.212 HD
ENDBRANCH  28  33
BRANCH  31  35
HETATM   35  O4  UNL     1      13.611 -36.669  15.008  1.00  0.00    -0.389 OA
ATOM     36  H4  UNL     1      12.793 -36.965  14.625  1.00  0.00     0.210 HD
ENDBRANCH  31  35
BRANCH  32  37
HETATM   37  O5  UNL     1      13.275 -34.618  12.455  1.00  0.00    -0.391 OA
ATOM     38  H5  UNL     1      12.342 -34.439  12.417  1.00  0.00     0.210 HD
ENDBRANCH  32  37
ENDBRANCH  25  26
ENDBRANCH  24  25
ENDBRANCH   6  24
TORSDOF 17
ENDMDL