MODEL 5
REMARK VINA RESULT: -6.272927188      3.636      7.909
REMARK  15 active torsions:
REMARK  status: ('A' for Active; 'I' for Inactive)
REMARK    1  A    between atoms: C5_6  and  C6_7
REMARK    2  A    between atoms: C6_7  and  N1_8
REMARK    3  A    between atoms: N1_8  and  C7_11
REMARK    4  A    between atoms: C7_11  and  C8_12
REMARK    5  A    between atoms: C8_12  and  C9_13
REMARK    6  A    between atoms: C9_13  and  C10_14
REMARK    7  A    between atoms: C10_14  and  C11_15
REMARK    8  A    between atoms: C11_15  and  C12_16
REMARK    9  A    between atoms: C12_16  and  C13_17
REMARK   10  A    between atoms: C13_17  and  C14_18
REMARK   11  A    between atoms: C14_18  and  C15_19
REMARK   12  A    between atoms: C15_19  and  C16_20
REMARK   13  A    between atoms: C16_20  and  N2_21
REMARK   14  A    between atoms: C18_29  and  C19_30
REMARK   15  A    between atoms: C22_38  and  O4_39
ROOT
HETATM    1  C1  UNL     1      13.489 -41.671  13.020  1.00  0.00     0.048 C
HETATM    2  C2  UNL     1      13.616 -42.286  11.627  1.00  0.00    -0.025 C
HETATM    3  C3  UNL     1      14.199 -41.600  10.671  1.00  0.00     0.062 C
HETATM    4  C4  UNL     1      14.438 -41.946   9.286  1.00  0.00     0.185 C
HETATM    5  O1  UNL     1      15.669 -42.237   9.002  1.00  0.00    -0.288 OA
HETATM    6  C5  UNL     1      13.488 -42.008   8.162  1.00  0.00     0.085 C
HETATM    7  C17 UNL     1      12.995 -43.372   7.842  1.00  0.00     0.254 C
HETATM    8  O2  UNL     1      13.858 -44.120   7.223  1.00  0.00    -0.268 OA
HETATM    9  N3  UNL     1      11.763 -43.962   8.104  1.00  0.00    -0.344 N
ATOM     10  H3  UNL     1      11.790 -44.982   8.097  1.00  0.00     0.163 HD
HETATM   11  C18 UNL     1      10.473 -43.430   8.378  1.00  0.00     0.175 C
HETATM   12  C20 UNL     1      10.046 -43.623   9.820  1.00  0.00     0.062 C
HETATM   13  C21 UNL     1      10.990 -44.444  10.630  1.00  0.00     0.238 C
HETATM   14  N5  UNL     1      11.617 -43.651  11.683  1.00  0.00    -0.045 N
ATOM     15  H51 UNL     1      11.319 -43.957  12.609  1.00  0.00     0.280 HD
ATOM     16  H52 UNL     1      11.248 -42.701  11.705  1.00  0.00     0.280 HD
HETATM   17  C22 UNL     1      13.050 -43.657  11.562  1.00  0.00     0.348 C
ENDROOT
BRANCH   6  18
HETATM   18  C6  UNL     1      12.465 -40.929   8.088  1.00  0.00     0.280 C
BRANCH  18  19
HETATM   19  N1  UNL     1      12.748 -40.046   6.962  1.00  0.00    -0.071 N
ATOM     20  H12 UNL     1      13.693 -40.205   6.614  1.00  0.00     0.277 HD
ATOM     21  H11 UNL     1      12.211 -40.331   6.143  1.00  0.00     0.277 HD
BRANCH  19  22
HETATM   22  C7  UNL     1      12.543 -38.658   7.235  1.00  0.00     0.232 C
BRANCH  22  23
HETATM   23  C8  UNL     1      12.813 -38.408   8.722  1.00  0.00     0.027 C
BRANCH  23  24
HETATM   24  C9  UNL     1      14.257 -37.892   8.877  1.00  0.00     0.002 C
BRANCH  24  25
HETATM   25  C10 UNL     1      14.427 -37.115  10.120  1.00  0.00     0.000 C
BRANCH  25  26
HETATM   26  C11 UNL     1      13.302 -37.162  11.062  1.00  0.00     0.000 C
BRANCH  26  27
HETATM   27  C12 UNL     1      13.378 -36.502  12.391  1.00  0.00     0.000 C
BRANCH  27  28
HETATM   28  C13 UNL     1      13.899 -37.218  13.551  1.00  0.00     0.000 C
BRANCH  28  29
HETATM   29  C14 UNL     1      14.404 -36.429  14.706  1.00  0.00     0.002 C
BRANCH  29  30
HETATM   30  C15 UNL     1      13.540 -35.696  15.616  1.00  0.00     0.027 C
BRANCH  30  31
HETATM   31  C16 UNL     1      14.053 -35.217  16.931  1.00  0.00     0.229 C
BRANCH  31  32
HETATM   32  N2  UNL     1      13.747 -33.777  17.094  1.00  0.00    -0.079 N
ATOM     33  H23 UNL     1      14.586 -33.227  17.284  1.00  0.00     0.274 HD
ATOM     34  H22 UNL     1      13.479 -33.340  16.213  1.00  0.00     0.274 HD
ATOM     35  H21 UNL     1      13.036 -33.654  17.816  1.00  0.00     0.274 HD
ENDBRANCH  31  32
ENDBRANCH  30  31
ENDBRANCH  29  30
ENDBRANCH  28  29
ENDBRANCH  27  28
ENDBRANCH  26  27
ENDBRANCH  25  26
ENDBRANCH  24  25
ENDBRANCH  23  24
ENDBRANCH  22  23
ENDBRANCH  19  22
ENDBRANCH  18  19
ENDBRANCH   6  18
BRANCH  11  36
HETATM   36  C19 UNL     1       9.441 -44.227   7.586  1.00  0.00     0.254 C
HETATM   37  N4  UNL     1      10.004 -44.967   6.499  1.00  0.00    -0.060 NA
HETATM   38  O3  UNL     1       8.240 -44.208   7.889  1.00  0.00    -0.275 OA
ENDBRANCH  11  36
BRANCH  17  39
HETATM   39  O4  UNL     1      13.501 -44.361  12.724  1.00  0.00    -0.366 OA
ATOM     40  H4  UNL     1      12.874 -45.053  12.897  1.00  0.00     0.212 HD
ENDBRANCH  17  39
TORSDOF 15
ENDMDL