MODEL 3
REMARK VINA RESULT: -7.702527495      2.306      8.935
REMARK  14 active torsions:
REMARK  status: ('A' for Active; 'I' for Inactive)
REMARK       I    between atoms: N1_1  and  C1_4
REMARK       I    between atoms: C1_4  and  N3_6
REMARK    1  A    between atoms: N3_6  and  C2_8
REMARK    2  A    between atoms: C3_11  and  O1_12
REMARK    3  A    between atoms: O1_12  and  C4_13
REMARK    4  A    between atoms: C4_13  and  C5_14
REMARK    5  A    between atoms: C5_14  and  C6_15
REMARK    6  A    between atoms: C6_15  and  C7_16
REMARK    7  A    between atoms: C7_16  and  C8_17
REMARK    8  A    between atoms: C8_17  and  C9_18
REMARK    9  A    between atoms: C10_23  and  N7_24
REMARK   10  A    between atoms: C11_26  and  C12_27
REMARK   11  A    between atoms: C12_27  and  C13_28
REMARK   12  A    between atoms: C13_28  and  C14_29
REMARK   13  A    between atoms: C14_29  and  N8_30
REMARK   14  A    between atoms: N8_30  and  C15_32
ROOT
HETATM    1  C2  UNL     1      11.493 -41.024   6.287  1.00  0.00     0.702 A
HETATM    2  N4  UNL     1      12.198 -41.152   7.423  1.00  0.00    -0.153 N
ATOM      3  H4  UNL     1      12.950 -40.497   7.637  1.00  0.00     0.188 HD
HETATM    4  C3  UNL     1      11.903 -42.145   8.274  1.00  0.00     0.252 A
HETATM    5  N6  UNL     1      10.898 -42.986   7.950  1.00  0.00    -0.154 N
ATOM      6  H6  UNL     1      10.685 -43.736   8.607  1.00  0.00     0.188 HD
HETATM    7  C10 UNL     1      10.156 -42.917   6.836  1.00  0.00     0.699 A
HETATM    8  N9  UNL     1      10.511 -41.863   5.992  1.00  0.00    -0.022 N
ATOM      9  H9  UNL     1       9.998 -41.735   5.120  1.00  0.00     0.203 HD
ENDROOT
BRANCH   7  10
HETATM   10  N7  UNL     1       9.235 -43.645   6.485  1.00  0.00    -0.205 N
HETATM   11  C11 UNL     1       8.110 -43.732   5.722  1.00  0.00     0.079 C
ATOM     12  H7  UNL     1       9.361 -44.545   6.948  1.00  0.00     0.183 HD
BRANCH  11  13
HETATM   13  C12 UNL     1       7.654 -42.552   4.932  1.00  0.00     0.046 C
BRANCH  13  14
HETATM   14  C13 UNL     1       8.281 -42.298   3.618  1.00  0.00     0.024 C
BRANCH  14  15
HETATM   15  C14 UNL     1       8.558 -40.904   3.234  1.00  0.00     0.114 C
BRANCH  15  16
HETATM   16  N8  UNL     1       9.497 -40.645   2.210  1.00  0.00    -0.417 N
ATOM     17  H8  UNL     1       9.696 -41.330   1.481  1.00  0.00     0.153 HD
BRANCH  16  18
HETATM   18  C15 UNL     1      10.154 -39.377   2.245  1.00  0.00     0.076 C
HETATM   19  C16 UNL     1      10.878 -39.066   0.957  1.00  0.00     0.024 C
HETATM   20  C17 UNL     1       9.882 -39.000  -0.156  1.00  0.00     0.002 C
HETATM   21  C18 UNL     1       9.075 -37.736   0.012  1.00  0.00     0.000 C
HETATM   22  C19 UNL     1       9.208 -37.198   1.418  1.00  0.00     0.002 C
HETATM   23  C20 UNL     1       9.074 -38.314   2.424  1.00  0.00     0.024 C
ENDBRANCH  16  18
ENDBRANCH  15  16
ENDBRANCH  14  15
ENDBRANCH  13  14
ENDBRANCH  11  13
ENDBRANCH   7  10
BRANCH   4  24
HETATM   24  O1  UNL     1      12.621 -42.278   9.432  1.00  0.00    -0.321 OA
BRANCH  24  25
HETATM   25  C4  UNL     1      13.072 -41.328  10.312  1.00  0.00     0.178 C
BRANCH  25  26
HETATM   26  C5  UNL     1      14.564 -41.184  10.453  1.00  0.00     0.027 C
BRANCH  26  27
HETATM   27  C6  UNL     1      14.946 -39.917  11.174  1.00  0.00     0.002 C
BRANCH  27  28
HETATM   28  C7  UNL     1      13.837 -39.069  11.611  1.00  0.00     0.009 C
BRANCH  28  29
HETATM   29  C8  UNL     1      13.590 -37.777  10.973  1.00  0.00     0.099 C
BRANCH  29  30
HETATM   30  C9  UNL     1      13.419 -37.826   9.502  1.00  0.00     0.231 C
HETATM   31  N5  UNL     1      14.477 -37.523   8.599  1.00  0.00    -0.062 NA
HETATM   32  O2  UNL     1      12.299 -38.150   9.036  1.00  0.00    -0.277 OA
ENDBRANCH  29  30
ENDBRANCH  28  29
ENDBRANCH  27  28
ENDBRANCH  26  27
ENDBRANCH  25  26
ENDBRANCH  24  25
ENDBRANCH   4  24
BRANCH   1  33
HETATM   33  N3  UNL     1      11.737 -40.076   5.418  1.00  0.00    -0.163 N
HETATM   34  C1  UNL     1      11.380 -38.749   5.794  1.00  0.00     0.200 C
HETATM   35  N1  UNL     1      12.321 -38.000   6.218  1.00  0.00    -0.373 N
HETATM   36  N2  UNL     1      10.047 -38.268   5.708  1.00  0.00    -0.063 NA
ATOM     37  H12 UNL     1      12.066 -37.050   6.488  1.00  0.00     0.158 HD
ATOM     38  H11 UNL     1      13.278 -38.345   6.280  1.00  0.00     0.158 HD
ATOM     39  H3  UNL     1      12.162 -40.278   4.513  1.00  0.00     0.187 HD
ENDBRANCH   1  33
TORSDOF 14
ENDMDL