MODEL 2
REMARK VINA RESULT: -6.983848423      1.259      3.167
REMARK  17 active torsions:
REMARK  status: ('A' for Active; 'I' for Inactive)
REMARK    1  A    between atoms: C2_2  and  C3_3
REMARK    2  A    between atoms: C4_6  and  N2_7
REMARK    3  A    between atoms: C5_12  and  N4_13
REMARK    4  A    between atoms: C6_16  and  C7_17
REMARK    5  A    between atoms: C8_18  and  C9_19
REMARK    6  A    between atoms: C9_19  and  N5_20
REMARK    7  A    between atoms: N5_20  and  C10_22
REMARK    8  A    between atoms: C10_22  and  C11_23
REMARK    9  A    between atoms: C11_23  and  C12_24
REMARK   10  A    between atoms: C12_24  and  N6_25
REMARK   11  A    between atoms: N6_25  and  C13_28
REMARK   12  A    between atoms: C13_28  and  C14_29
REMARK   13  A    between atoms: C14_29  and  N7_30
REMARK   14  A    between atoms: N7_30  and  C15_31
REMARK   15  A    between atoms: N7_30  and  C17_33
REMARK   16  A    between atoms: C17_33  and  C18_34
REMARK   17  A    between atoms: C18_34  and  N8_35
ROOT
HETATM    1  N5  UNL     1      12.400 -39.506   8.850  1.00  0.00    -0.372 N
ATOM      2  H5  UNL     1      11.407 -39.513   9.088  1.00  0.00     0.164 HD
ENDROOT
BRANCH   1   3
HETATM    3  C9  UNL     1      13.066 -38.287   8.925  1.00  0.00     0.153 C
BRANCH   3   4
HETATM    4  C8  UNL     1      13.331 -37.908  10.337  1.00  0.00    -0.056 C
HETATM    5  C7  UNL     1      13.571 -37.624  11.495  1.00  0.00    -0.055 C
BRANCH   5   6
HETATM    6  C6  UNL     1      13.880 -37.322  12.863  1.00  0.00     0.085 A
HETATM    7  C3  UNL     1      14.221 -38.335  13.755  1.00  0.00     0.048 A
HETATM    8  N1  UNL     1      14.491 -38.016  15.025  1.00  0.00    -0.194 N
HETATM    9  C4  UNL     1      14.454 -36.763  15.499  1.00  0.00     0.677 A
ATOM     10  H1  UNL     1      14.737 -38.767  15.669  1.00  0.00     0.184 HD
HETATM   11  N3  UNL     1      14.125 -35.787  14.641  1.00  0.00    -0.176 N
HETATM   12  C5  UNL     1      13.840 -36.039  13.344  1.00  0.00     0.135 A
ATOM     13  H3  UNL     1      14.089 -34.824  14.977  1.00  0.00     0.186 HD
BRANCH   7  14
HETATM   14  C2  UNL     1      14.252 -39.707  13.211  1.00  0.00     0.055 C
HETATM   15  C1  UNL     1      15.631 -40.296  13.153  1.00  0.00     0.011 C
ENDBRANCH   7  14
BRANCH   9  16
HETATM   16  N2  UNL     1      14.723 -36.479  16.754  1.00  0.00    -0.234 N
ATOM     17  H22 UNL     1      15.686 -36.502  17.091  1.00  0.00     0.174 HD
ATOM     18  H21 UNL     1      13.996 -36.229  17.425  1.00  0.00     0.174 HD
ENDBRANCH   9  16
BRANCH  12  19
HETATM   19  N4  UNL     1      13.523 -35.085  12.525  1.00  0.00    -0.384 N
ATOM     20  H42 UNL     1      13.347 -34.156  12.909  1.00  0.00     0.157 HD
ATOM     21  H41 UNL     1      13.449 -35.249  11.521  1.00  0.00     0.157 HD
ENDBRANCH  12  19
ENDBRANCH   5   6
ENDBRANCH   3   4
ENDBRANCH   1   3
BRANCH   1  22
HETATM   22  C10 UNL     1      12.971 -40.708   8.478  1.00  0.00     0.062 C
BRANCH  22  23
HETATM   23  C11 UNL     1      12.586 -41.409   7.238  1.00  0.00     0.072 C
BRANCH  23  24
HETATM   24  C12 UNL     1      11.373 -40.959   6.532  1.00  0.00     0.237 C
BRANCH  24  25
HETATM   25  N6  UNL     1      11.637 -40.101   5.395  1.00  0.00    -0.073 N
ATOM     26  H62 UNL     1      12.582 -39.717   5.406  1.00  0.00     0.277 HD
ATOM     27  H61 UNL     1      11.707 -40.621   4.521  1.00  0.00     0.277 HD
BRANCH  25  28
HETATM   28  C13 UNL     1      10.619 -39.073   5.351  1.00  0.00     0.251 C
BRANCH  28  29
HETATM   29  C14 UNL     1      10.631 -38.359   4.004  1.00  0.00     0.144 C
BRANCH  29  30
HETATM   30  N7  UNL     1       9.437 -38.582   3.276  1.00  0.00    -0.409 N
BRANCH  30  31
HETATM   31  C15 UNL     1       9.468 -38.347   1.876  1.00  0.00     0.112 C
HETATM   32  C16 UNL     1       9.497 -36.830   1.652  1.00  0.00     0.026 C
ENDBRANCH  30  31
BRANCH  30  33
HETATM   33  C17 UNL     1       8.609 -39.635   3.750  1.00  0.00     0.147 C
BRANCH  33  34
HETATM   34  C18 UNL     1       8.662 -40.810   2.832  1.00  0.00     0.291 C
BRANCH  34  35
HETATM   35  N8  UNL     1       8.490 -42.087   3.449  1.00  0.00     0.090 N
HETATM   36  C19 UNL     1       8.488 -43.122   2.429  1.00  0.00     0.272 C
HETATM   37  C20 UNL     1       7.514 -44.236   2.732  1.00  0.00     0.030 C
HETATM   38  C21 UNL     1       6.103 -43.730   2.936  1.00  0.00     0.003 C
HETATM   39  C22 UNL     1       6.097 -42.364   3.596  1.00  0.00     0.030 C
HETATM   40  C23 UNL     1       7.399 -42.220   4.356  1.00  0.00     0.272 C
ENDBRANCH  34  35
ENDBRANCH  33  34
ENDBRANCH  30  33
ENDBRANCH  29  30
ENDBRANCH  28  29
ENDBRANCH  25  28
ENDBRANCH  24  25
ENDBRANCH  23  24
ENDBRANCH  22  23
ENDBRANCH   1  22
TORSDOF 17
ENDMDL