MODEL 5
REMARK VINA RESULT: -7.390760877      3.585      5.992
REMARK  16 active torsions:
REMARK  status: ('A' for Active; 'I' for Inactive)
REMARK    1  A    between atoms: N1_1  and  C1_4
REMARK    2  A    between atoms: N3_8  and  C3_10
REMARK    3  A    between atoms: C3_10  and  C4_11
REMARK    4  A    between atoms: C5_12  and  C6_13
REMARK    5  A    between atoms: C6_13  and  N4_14
REMARK    6  A    between atoms: N4_14  and  C7_17
REMARK    7  A    between atoms: C7_17  and  C8_18
REMARK    8  A    between atoms: C8_18  and  C9_19
REMARK    9  A    between atoms: C9_19  and  C10_20
REMARK   10  A    between atoms: C10_20  and  C11_21
REMARK   11  A    between atoms: C11_21  and  C12_22
REMARK   12  A    between atoms: N7_32  and  C16_33
REMARK   13  A    between atoms: C16_33  and  C17_34
REMARK   14  A    between atoms: C17_34  and  C18_35
REMARK   15  A    between atoms: C18_35  and  C19_36
REMARK   16  A    between atoms: C19_36  and  O3_37
ROOT
HETATM    1  C1  UNL     1      34.053  41.257  -6.814  1.00  0.00     0.145 A
HETATM    2  N2  UNL     1      34.947  40.896  -5.884  1.00  0.00    -0.175 N
ATOM      3  H2  UNL     1      35.097  41.497  -5.074  1.00  0.00     0.186 HD
HETATM    4  C2  UNL     1      35.650  39.753  -5.997  1.00  0.00     0.681 A
HETATM    5  N3  UNL     1      36.496  39.484  -5.048  1.00  0.00    -0.223 N
ATOM      6  H3  UNL     1      36.590  40.138  -4.272  1.00  0.00     0.178 HD
HETATM    7  N5  UNL     1      35.501  38.915  -7.034  1.00  0.00    -0.174 N
ATOM      8  H5  UNL     1      36.051  38.057  -7.087  1.00  0.00     0.186 HD
HETATM    9  C13 UNL     1      34.604  39.223  -8.020  1.00  0.00     0.155 A
HETATM   10  C14 UNL     1      33.882  40.403  -7.899  1.00  0.00     0.123 A
HETATM   11  N6  UNL     1      33.107  40.469  -8.969  1.00  0.00    -0.346 N
ATOM     12  H6  UNL     1      32.452  41.223  -9.175  1.00  0.00     0.167 HD
HETATM   13  C15 UNL     1      33.311  39.401  -9.738  1.00  0.00     0.185 A
HETATM   14  N7  UNL     1      34.229  38.634  -9.158  1.00  0.00    -0.327 N
ENDROOT
BRANCH   5  15
HETATM   15  C3  UNL     1      37.313  38.277  -5.057  1.00  0.00     0.165 C
BRANCH  15  16
HETATM   16  C4  UNL     1      38.475  38.533  -4.205  1.00  0.00    -0.009 C
HETATM   17  C5  UNL     1      38.673  37.963  -3.045  1.00  0.00    -0.002 C
BRANCH  17  18
HETATM   18  C6  UNL     1      37.814  36.997  -2.390  1.00  0.00     0.259 C
BRANCH  18  19
HETATM   19  N4  UNL     1      36.925  37.618  -1.397  1.00  0.00    -0.072 N
ATOM     20  H42 UNL     1      35.941  37.441  -1.603  1.00  0.00     0.277 HD
ATOM     21  H41 UNL     1      36.975  37.148  -0.493  1.00  0.00     0.277 HD
BRANCH  19  22
HETATM   22  C7  UNL     1      37.199  38.989  -1.293  1.00  0.00     0.232 C
BRANCH  22  23
HETATM   23  C8  UNL     1      36.302  39.847  -0.466  1.00  0.00     0.027 C
BRANCH  23  24
HETATM   24  C9  UNL     1      35.986  41.205  -0.909  1.00  0.00     0.002 C
BRANCH  24  25
HETATM   25  C10 UNL     1      36.908  42.328  -0.637  1.00  0.00     0.010 C
BRANCH  25  26
HETATM   26  C11 UNL     1      37.135  43.272  -1.789  1.00  0.00     0.113 C
BRANCH  26  27
HETATM   27  C12 UNL     1      37.228  42.486  -3.039  1.00  0.00     0.172 C
HETATM   28  O1  UNL     1      38.221  41.746  -3.217  1.00  0.00    -0.648 OA
HETATM   29  O2  UNL     1      36.258  42.531  -4.031  1.00  0.00    -0.648 OA
ENDBRANCH  26  27
ENDBRANCH  25  26
ENDBRANCH  24  25
ENDBRANCH  23  24
ENDBRANCH  22  23
ENDBRANCH  19  22
ENDBRANCH  18  19
ENDBRANCH  17  18
ENDBRANCH  15  16
ENDBRANCH   5  15
BRANCH   1  30
HETATM   30  N1  UNL     1      33.374  42.333  -6.731  1.00  0.00    -0.383 N
ATOM     31  H12 UNL     1      33.189  42.753  -5.820  1.00  0.00     0.157 HD
ATOM     32  H11 UNL     1      32.997  42.807  -7.550  1.00  0.00     0.157 HD
ENDBRANCH   1  30
BRANCH  14  33
HETATM   33  C16 UNL     1      34.757  37.356  -9.613  1.00  0.00     0.131 C
BRANCH  33  34
HETATM   34  C17 UNL     1      33.790  36.215  -9.506  1.00  0.00     0.023 C
BRANCH  34  35
HETATM   35  C18 UNL     1      33.844  35.593  -8.173  1.00  0.00     0.039 C
BRANCH  35  36
HETATM   36  C19 UNL     1      32.491  35.484  -7.484  1.00  0.00     0.058 C
HETATM   37  C20 UNL     1      31.665  34.369  -8.001  1.00  0.00     0.038 C
HETATM   38  C21 UNL     1      30.533  34.740  -8.901  1.00  0.00     0.003 C
HETATM   39  C22 UNL     1      29.818  35.995  -8.450  1.00  0.00     0.000 C
HETATM   40  C23 UNL     1      30.759  37.155  -8.294  1.00  0.00     0.003 C
HETATM   41  C24 UNL     1      31.854  36.815  -7.364  1.00  0.00     0.038 C
BRANCH  36  42
HETATM   42  O3  UNL     1      32.850  35.109  -6.156  1.00  0.00    -0.390 OA
ATOM     43  H3  UNL     1      33.326  35.871  -5.848  1.00  0.00     0.210 HD
ENDBRANCH  36  42
ENDBRANCH  35  36
ENDBRANCH  34  35
ENDBRANCH  33  34
ENDBRANCH  14  33
TORSDOF 16
ENDMDL