MODEL 3
REMARK VINA RESULT: -7.851439140      4.976      7.394
REMARK  20 active torsions:
REMARK  status: ('A' for Active; 'I' for Inactive)
REMARK    1  A    between atoms: O1_1  and  C1_3
REMARK    2  A    between atoms: C1_3  and  O2_4
REMARK    3  A    between atoms: C1_3  and  C2_6
REMARK    4  A    between atoms: C2_6  and  O3_7
REMARK    5  A    between atoms: C2_6  and  C3_9
REMARK    6  A    between atoms: C4_10  and  C5_11
REMARK    7  A    between atoms: C6_13  and  C7_14
REMARK    8  A    between atoms: C15_22  and  C16_23
REMARK    9  A    between atoms: C16_23  and  O5_24
REMARK   10  A    between atoms: O5_24  and  C17_25
REMARK   11  A    between atoms: C17_25  and  C18_26
REMARK   12  A    between atoms: C18_26  and  C19_27
REMARK   13  A    between atoms: C19_27  and  C20_28
REMARK   14  A    between atoms: C20_28  and  C21_29
REMARK   15  A    between atoms: C21_29  and  C22_30
REMARK   16  A    between atoms: C22_30  and  C23_31
REMARK   17  A    between atoms: C23_31  and  O6_32
REMARK   18  A    between atoms: C23_31  and  C24_34
REMARK   19  A    between atoms: C24_34  and  O7_35
REMARK   20  A    between atoms: C24_34  and  O8_37
ROOT
HETATM    1  C5  UNL     1      39.088  38.724  -3.139  1.00  0.00     0.149 C
HETATM    2  O4  UNL     1      40.090  38.779  -4.103  1.00  0.00    -0.376 OA
HETATM    3  C6  UNL     1      41.013  37.794  -3.667  1.00  0.00     0.126 C
HETATM    4  C13 UNL     1      40.460  36.490  -4.148  1.00  0.00     0.038 C
HETATM    5  C14 UNL     1      39.134  36.258  -3.508  1.00  0.00     0.002 A
HETATM    6  C15 UNL     1      37.873  36.638  -4.216  1.00  0.00     0.021 A
HETATM    7  C25 UNL     1      38.353  37.444  -3.106  1.00  0.00     0.029 A
ENDROOT
BRANCH   6   8
HETATM    8  C16 UNL     1      37.959  36.972  -5.665  1.00  0.00     0.173 C
BRANCH   8   9
HETATM    9  O5  UNL     1      36.775  37.158  -6.325  1.00  0.00    -0.391 OA
BRANCH   9  10
HETATM   10  C17 UNL     1      36.655  36.698  -7.589  1.00  0.00     0.167 C
BRANCH  10  11
HETATM   11  C18 UNL     1      35.394  35.920  -7.826  1.00  0.00     0.026 C
BRANCH  11  12
HETATM   12  C19 UNL     1      34.408  36.535  -8.770  1.00  0.00     0.002 C
BRANCH  12  13
HETATM   13  C20 UNL     1      34.611  37.999  -9.051  1.00  0.00     0.000 C
BRANCH  13  14
HETATM   14  C21 UNL     1      33.459  38.824  -8.456  1.00  0.00     0.003 C
BRANCH  14  15
HETATM   15  C22 UNL     1      33.582  39.008  -6.982  1.00  0.00     0.036 C
BRANCH  15  16
HETATM   16  C23 UNL     1      34.819  39.869  -6.693  1.00  0.00     0.173 C
BRANCH  16  17
HETATM   17  O6  UNL     1      35.193  39.812  -5.372  1.00  0.00    -0.391 OA
ATOM     18  H6  UNL     1      35.808  39.108  -5.204  1.00  0.00     0.210 HD
ENDBRANCH  16  17
BRANCH  16  19
HETATM   19  C24 UNL     1      34.549  41.294  -7.083  1.00  0.00     0.282 C
BRANCH  19  20
HETATM   20  O7  UNL     1      35.698  42.011  -7.345  1.00  0.00    -0.369 OA
ATOM     21  H7  UNL     1      36.391  41.851  -6.714  1.00  0.00     0.212 HD
ENDBRANCH  19  20
BRANCH  19  22
HETATM   22  O8  UNL     1      33.771  41.950  -6.122  1.00  0.00    -0.369 OA
ATOM     23  H8  UNL     1      32.861  42.006  -6.391  1.00  0.00     0.212 HD
ENDBRANCH  19  22
ENDBRANCH  16  19
ENDBRANCH  15  16
ENDBRANCH  14  15
ENDBRANCH  13  14
ENDBRANCH  12  13
ENDBRANCH  11  12
ENDBRANCH  10  11
ENDBRANCH   9  10
ENDBRANCH   8   9
ENDBRANCH   6   8
BRANCH   1  24
HETATM   24  C4  UNL     1      38.293  39.957  -3.187  1.00  0.00     0.004 C
HETATM   25  C3  UNL     1      37.252  40.103  -2.360  1.00  0.00     0.008 C
BRANCH  25  26
HETATM   26  C2  UNL     1      36.414  41.333  -2.368  1.00  0.00     0.195 C
BRANCH  26  27
HETATM   27  C1  UNL     1      36.934  42.300  -3.420  1.00  0.00     0.286 C
BRANCH  27  28
HETATM   28  O1  UNL     1      37.270  43.491  -2.763  1.00  0.00    -0.369 OA
ATOM     29  H1  UNL     1      37.369  43.282  -1.842  1.00  0.00     0.212 HD
ENDBRANCH  27  28
BRANCH  27  30
HETATM   30  O2  UNL     1      35.957  42.612  -4.352  1.00  0.00    -0.369 OA
ATOM     31  H2  UNL     1      35.435  43.316  -3.984  1.00  0.00     0.212 HD
ENDBRANCH  27  30
ENDBRANCH  26  27
BRANCH  26  32
HETATM   32  O3  UNL     1      35.082  41.045  -2.672  1.00  0.00    -0.387 OA
ATOM     33  H3  UNL     1      34.707  40.585  -1.931  1.00  0.00     0.210 HD
ENDBRANCH  26  32
ENDBRANCH  25  26
ENDBRANCH   1  24
BRANCH   3  34
HETATM   34  C7  UNL     1      42.370  38.121  -4.219  1.00  0.00     0.015 C
HETATM   35  C8  UNL     1      43.000  37.010  -4.979  1.00  0.00     0.007 C
HETATM   36  C9  UNL     1      44.349  37.480  -5.484  1.00  0.00     0.000 C
HETATM   37  C10 UNL     1      45.254  37.838  -4.323  1.00  0.00     0.000 C
HETATM   38  C11 UNL     1      44.621  38.941  -3.478  1.00  0.00     0.000 C
HETATM   39  C12 UNL     1      43.273  38.423  -3.019  1.00  0.00     0.007 C
ENDBRANCH   3  34
TORSDOF 20
ENDMDL