MODEL 5
REMARK VINA RESULT: -7.933330520      2.011      3.819
REMARK  19 active torsions:
REMARK  status: ('A' for Active; 'I' for Inactive)
REMARK    1  A    between atoms: C2_2  and  C3_3
REMARK    2  A    between atoms: C4_4  and  C5_5
REMARK    3  A    between atoms: C5_5  and  C6_6
REMARK    4  A    between atoms: C6_6  and  O1_7
REMARK    5  A    between atoms: C6_6  and  C7_9
REMARK    6  A    between atoms: C7_9  and  O2_10
REMARK    7  A    between atoms: C7_9  and  C8_12
REMARK    8  A    between atoms: C8_12  and  O3_13
REMARK    9  A    between atoms: C8_12  and  C9_15
REMARK   10  A    between atoms: C10_16  and  C11_17
REMARK   11  A    between atoms: C11_17  and  C12_18
REMARK   12  A    between atoms: C12_18  and  O4_19
REMARK   13  A    between atoms: C12_18  and  C13_21
REMARK   14  A    between atoms: C14_22  and  C15_23
REMARK   15  A    between atoms: C15_23  and  C16_24
REMARK   16  A    between atoms: C16_24  and  C17_25
REMARK   17  A    between atoms: C17_25  and  C18_26
REMARK   18  A    between atoms: C20_28  and  O5_29
REMARK   19  A    between atoms: C27_38  and  O7_39
ROOT
HETATM    1  C12 UNL     1      33.301  39.326  -9.758  1.00  0.00     0.144 C
ENDROOT
BRANCH   1   2
HETATM    2  C11 UNL     1      33.755  38.803  -8.420  1.00  0.00     0.062 C
BRANCH   2   3
HETATM    3  C10 UNL     1      34.701  39.743  -7.766  1.00  0.00    -0.025 C
HETATM    4  C9  UNL     1      34.334  40.521  -6.741  1.00  0.00     0.003 C
BRANCH   4   5
HETATM    5  C8  UNL     1      35.312  41.447  -6.118  1.00  0.00     0.172 C
BRANCH   5   6
HETATM    6  C7  UNL     1      35.889  40.914  -4.824  1.00  0.00     0.179 C
BRANCH   6   7
HETATM    7  C6  UNL     1      36.634  41.917  -4.025  1.00  0.00     0.153 C
BRANCH   7   8
HETATM    8  C5  UNL     1      37.307  41.412  -2.786  1.00  0.00     0.061 C
BRANCH   8   9
HETATM    9  C4  UNL     1      36.507  41.433  -1.567  1.00  0.00    -0.024 C
HETATM   10  C3  UNL     1      36.632  42.304  -0.597  1.00  0.00    -0.005 C
BRANCH  10  11
HETATM   11  C2  UNL     1      37.560  43.394  -0.531  1.00  0.00    -0.011 C
HETATM   12  C1  UNL     1      37.211  44.606  -0.905  1.00  0.00     0.011 C
ENDBRANCH  10  11
ENDBRANCH   8   9
ENDBRANCH   7   8
BRANCH   7  13
HETATM   13  O1  UNL     1      37.659  42.427  -4.839  1.00  0.00    -0.393 OA
ATOM     14  H1  UNL     1      37.430  42.186  -5.729  1.00  0.00     0.210 HD
ENDBRANCH   7  13
ENDBRANCH   6   7
BRANCH   6  15
HETATM   15  O2  UNL     1      36.535  39.741  -5.108  1.00  0.00    -0.390 OA
ATOM     16  H2  UNL     1      36.822  39.614  -6.005  1.00  0.00     0.210 HD
ENDBRANCH   6  15
ENDBRANCH   5   6
BRANCH   5  17
HETATM   17  O3  UNL     1      34.849  42.742  -6.024  1.00  0.00    -0.389 OA
ATOM     18  H3  UNL     1      34.707  43.157  -6.866  1.00  0.00     0.210 HD
ENDBRANCH   5  17
ENDBRANCH   4   5
ENDBRANCH   2   3
ENDBRANCH   1   2
BRANCH   1  19
HETATM   19  O4  UNL     1      33.275  38.390 -10.767  1.00  0.00    -0.391 OA
ATOM     20  H4  UNL     1      33.945  38.500 -11.433  1.00  0.00     0.210 HD
ENDBRANCH   1  19
BRANCH   1  21
HETATM   21  C13 UNL     1      32.031  40.068  -9.707  1.00  0.00     0.001 C
HETATM   22  C14 UNL     1      31.955  41.375  -9.689  1.00  0.00    -0.028 C
BRANCH  22  23
HETATM   23  C15 UNL     1      33.101  42.282  -9.718  1.00  0.00     0.027 C
BRANCH  23  24
HETATM   24  C16 UNL     1      32.691  43.467 -10.607  1.00  0.00     0.004 C
BRANCH  24  25
HETATM   25  C17 UNL     1      33.047  43.062 -12.029  1.00  0.00     0.008 C
BRANCH  25  26
HETATM   26  C18 UNL     1      32.014  43.696 -12.943  1.00  0.00     0.023 C
HETATM   27  C19 UNL     1      32.667  44.431 -14.082  1.00  0.00     0.039 C
HETATM   28  C20 UNL     1      31.907  44.029 -15.330  1.00  0.00     0.126 C
HETATM   29  C21 UNL     1      31.304  42.668 -14.987  1.00  0.00     0.056 C
HETATM   30  C22 UNL     1      30.095  42.374 -15.816  1.00  0.00     0.088 C
HETATM   31  C27 UNL     1      31.076  42.694 -13.517  1.00  0.00     0.069 C
HETATM   32  C23 UNL     1      28.991  41.728 -15.090  1.00  0.00     0.131 C
HETATM   33  O6  UNL     1      28.318  40.872 -15.627  1.00  0.00    -0.298 OA
HETATM   34  C24 UNL     1      28.664  42.095 -13.688  1.00  0.00     0.054 C
HETATM   35  C25 UNL     1      28.543  40.839 -12.862  1.00  0.00     0.018 C
HETATM   36  C26 UNL     1      29.659  43.081 -13.134  1.00  0.00     0.050 C
BRANCH  28  37
HETATM   37  O5  UNL     1      30.893  44.941 -15.633  1.00  0.00    -0.395 OA
ATOM     38  H5  UNL     1      30.043  44.517 -15.680  1.00  0.00     0.210 HD
ENDBRANCH  28  37
BRANCH  31  39
HETATM   39  O7  UNL     1      31.304  41.400 -13.040  1.00  0.00    -0.389 OA
ATOM     40  H7  UNL     1      30.620  40.789 -13.287  1.00  0.00     0.210 HD
ENDBRANCH  31  39
ENDBRANCH  25  26
ENDBRANCH  24  25
ENDBRANCH  23  24
ENDBRANCH  22  23
ENDBRANCH   1  21
TORSDOF 19
ENDMDL