MODEL 3
REMARK VINA RESULT: -6.623242241      4.747      8.778
REMARK  17 active torsions:
REMARK  status: ('A' for Active; 'I' for Inactive)
REMARK    1  A    between atoms: C5_5  and  O1_6
REMARK    2  A    between atoms: O1_6  and  C6_7
REMARK    3  A    between atoms: C6_7  and  C7_8
REMARK    4  A    between atoms: C7_8  and  C8_9
REMARK    5  A    between atoms: C8_9  and  N1_10
REMARK    6  A    between atoms: N1_10  and  C9_12
REMARK    7  A    between atoms: C9_12  and  C10_13
REMARK    8  A    between atoms: C10_13  and  O2_14
REMARK    9  A    between atoms: C17_22  and  C18_23
REMARK   10  A    between atoms: C18_23  and  C19_24
REMARK   11  A    between atoms: C18_23  and  N2_27
REMARK   12  A    between atoms: C19_24  and  O3_25
REMARK   13  A    between atoms: N2_27  and  C20_30
REMARK   14  A    between atoms: C20_30  and  C21_31
REMARK   15  A    between atoms: C21_31  and  C22_32
REMARK   16  A    between atoms: C22_32  and  C23_33
REMARK   17  A    between atoms: C23_33  and  N3_34
ROOT
HETATM    1  C1  UNL     1      32.242  38.477  -8.158  1.00  0.00     0.016 C
HETATM    2  C2  UNL     1      33.149  38.640  -9.404  1.00  0.00    -0.033 C
HETATM    3  C3  UNL     1      34.545  38.558  -8.832  1.00  0.00     0.013 C
HETATM    4  C4  UNL     1      35.504  37.834  -9.757  1.00  0.00     0.033 C
HETATM    5  C5  UNL     1      35.050  36.384  -9.754  1.00  0.00     0.121 C
HETATM    6  C11 UNL     1      33.592  36.234  -9.999  1.00  0.00     0.037 C
HETATM    7  C12 UNL     1      32.835  37.489 -10.305  1.00  0.00    -0.003 C
HETATM    8  C13 UNL     1      32.918  37.746 -11.767  1.00  0.00     0.006 C
HETATM    9  C14 UNL     1      32.409  39.072 -12.229  1.00  0.00     0.006 C
HETATM   10  C15 UNL     1      33.098  40.151 -11.438  1.00  0.00    -0.005 C
HETATM   11  C16 UNL     1      32.594  41.460 -11.962  1.00  0.00     0.012 C
HETATM   12  C17 UNL     1      33.060  42.680 -11.215  1.00  0.00     0.019 C
HETATM   13  C24 UNL     1      32.985  42.468  -9.714  1.00  0.00     0.007 C
HETATM   14  C25 UNL     1      33.469  41.113  -9.271  1.00  0.00     0.011 C
HETATM   15  C26 UNL     1      32.790  39.979  -9.978  1.00  0.00    -0.033 C
HETATM   16  C27 UNL     1      31.281  40.125  -9.795  1.00  0.00     0.016 C
ENDROOT
BRANCH  12  17
HETATM   17  C18 UNL     1      32.239  43.872 -11.565  1.00  0.00     0.213 C
BRANCH  17  18
HETATM   18  C19 UNL     1      32.648  44.675 -12.744  1.00  0.00     0.197 C
BRANCH  18  19
HETATM   19  O3  UNL     1      33.351  45.834 -12.357  1.00  0.00    -0.399 OA
ATOM     20  H3  UNL     1      32.881  46.622 -12.604  1.00  0.00     0.209 HD
ENDBRANCH  18  19
ENDBRANCH  17  18
BRANCH  17  21
HETATM   21  N2  UNL     1      30.831  43.591 -11.540  1.00  0.00    -0.069 N
ATOM     22  H22 UNL     1      30.666  42.618 -11.281  1.00  0.00     0.277 HD
ATOM     23  H21 UNL     1      30.388  44.059 -10.750  1.00  0.00     0.277 HD
BRANCH  21  24
HETATM   24  C20 UNL     1      30.150  43.905 -12.750  1.00  0.00     0.233 C
BRANCH  24  25
HETATM   25  C21 UNL     1      29.069  42.973 -13.195  1.00  0.00     0.029 C
BRANCH  25  26
HETATM   26  C22 UNL     1      29.636  41.811 -14.010  1.00  0.00     0.029 C
BRANCH  26  27
HETATM   27  C23 UNL     1      29.200  40.466 -13.502  1.00  0.00     0.229 C
BRANCH  27  28
HETATM   28  N3  UNL     1      28.701  40.597 -12.152  1.00  0.00    -0.079 N
ATOM     29  H33 UNL     1      29.441  40.502 -11.457  1.00  0.00     0.274 HD
ATOM     30  H32 UNL     1      28.421  41.553 -11.936  1.00  0.00     0.274 HD
ATOM     31  H31 UNL     1      27.944  39.930 -12.002  1.00  0.00     0.274 HD
ENDBRANCH  27  28
ENDBRANCH  26  27
ENDBRANCH  25  26
ENDBRANCH  24  25
ENDBRANCH  21  24
ENDBRANCH  17  21
ENDBRANCH  12  17
BRANCH   5  32
HETATM   32  O1  UNL     1      35.865  35.553 -10.512  1.00  0.00    -0.386 OA
BRANCH  32  33
HETATM   33  C6  UNL     1      37.239  35.785 -10.255  1.00  0.00     0.169 C
BRANCH  33  34
HETATM   34  C7  UNL     1      37.960  34.476 -10.030  1.00  0.00     0.045 C
BRANCH  34  35
HETATM   35  C8  UNL     1      37.591  33.540 -11.163  1.00  0.00     0.116 C
BRANCH  35  36
HETATM   36  N1  UNL     1      37.564  34.179 -12.446  1.00  0.00    -0.419 N
ATOM     37  H1  UNL     1      37.541  35.194 -12.549  1.00  0.00     0.153 HD
BRANCH  36  38
HETATM   38  C9  UNL     1      37.570  33.297 -13.576  1.00  0.00     0.139 C
BRANCH  38  39
HETATM   39  C10 UNL     1      38.674  32.254 -13.475  1.00  0.00     0.183 C
BRANCH  39  40
HETATM   40  O2  UNL     1      39.686  32.659 -14.342  1.00  0.00    -0.399 OA
ATOM     41  H2  UNL     1      40.506  32.389 -13.947  1.00  0.00     0.209 HD
ENDBRANCH  39  40
ENDBRANCH  38  39
ENDBRANCH  36  38
ENDBRANCH  35  36
ENDBRANCH  34  35
ENDBRANCH  33  34
ENDBRANCH  32  33
ENDBRANCH   5  32
TORSDOF 17
ENDMDL