MODEL 1
REMARK VINA RESULT: -6.965686889      0.000      0.000
REMARK  18 active torsions:
REMARK  status: ('A' for Active; 'I' for Inactive)
REMARK    1  A    between atoms: C2_2  and  C3_3
REMARK    2  A    between atoms: C3_3  and  C4_4
REMARK    3  A    between atoms: C4_4  and  C5_5
REMARK    4  A    between atoms: C5_5  and  C6_6
REMARK    5  A    between atoms: C6_6  and  C7_7
REMARK    6  A    between atoms: C7_7  and  C8_8
REMARK    7  A    between atoms: C8_8  and  C9_9
REMARK    8  A    between atoms: C9_9  and  C10_10
REMARK    9  A    between atoms: C10_10  and  C11_11
REMARK   10  A    between atoms: C11_11  and  C12_12
REMARK   11  A    between atoms: C12_12  and  N1_13
REMARK   12  A    between atoms: N1_13  and  C13_15
REMARK   13  A    between atoms: C14_18  and  N3_19
REMARK   14  A    between atoms: C16_25  and  N5_26
REMARK   15  A    between atoms: C19_29  and  C20_30
REMARK   16  A    between atoms: C20_30  and  N6_31
REMARK   17  A    between atoms: C24_42  and  N9_43
REMARK   18  A    between atoms: N9_43  and  N10_45
ROOT
HETATM    1  C13 UNL     1      33.170  40.164  -9.478  1.00  0.00     0.153 C
HETATM    2  N2  UNL     1      33.857  39.134  -8.895  1.00  0.00    -0.324 N
ATOM      3  H2  UNL     1      33.692  38.216  -9.308  1.00  0.00     0.169 HD
HETATM    4  C14 UNL     1      34.715  39.145  -7.859  1.00  0.00     0.132 C
HETATM    5  C15 UNL     1      34.861  40.084  -6.850  1.00  0.00     0.137 A
HETATM    6  N4  UNL     1      35.497  39.935  -5.685  1.00  0.00    -0.184 N
ATOM      7  H4  UNL     1      35.971  39.084  -5.383  1.00  0.00     0.184 HD
HETATM    8  C16 UNL     1      35.420  41.090  -4.955  1.00  0.00     0.682 A
HETATM    9  N7  UNL     1      34.721  41.954  -5.703  1.00  0.00    -0.174 N
ATOM     10  H7  UNL     1      34.491  42.911  -5.433  1.00  0.00     0.186 HD
HETATM   11  C23 UNL     1      34.363  41.368  -6.872  1.00  0.00     0.154 A
HETATM   12  N8  UNL     1      33.642  41.974  -7.846  1.00  0.00    -0.322 N
ATOM     13  H8  UNL     1      33.641  42.994  -7.850  1.00  0.00     0.169 HD
HETATM   14  C24 UNL     1      32.923  41.362  -8.816  1.00  0.00     0.166 C
ENDROOT
BRANCH   1  15
HETATM   15  N1  UNL     1      32.752  40.015 -10.640  1.00  0.00    -0.353 N
ATOM     16  H1  UNL     1      32.271  40.841 -10.998  1.00  0.00     0.166 HD
BRANCH  15  17
HETATM   17  C12 UNL     1      32.796  38.960 -11.570  1.00  0.00     0.062 C
BRANCH  17  18
HETATM   18  C11 UNL     1      32.287  39.432 -12.933  1.00  0.00     0.044 C
BRANCH  18  19
HETATM   19  C10 UNL     1      31.685  40.801 -12.816  1.00  0.00     0.005 C
BRANCH  19  20
HETATM   20  C9  UNL     1      32.331  41.803 -13.720  1.00  0.00     0.000 C
BRANCH  20  21
HETATM   21  C8  UNL     1      32.639  43.091 -13.015  1.00  0.00     0.000 C
BRANCH  21  22
HETATM   22  C7  UNL     1      32.591  44.263 -13.946  1.00  0.00     0.000 C
BRANCH  22  23
HETATM   23  C6  UNL     1      32.389  43.848 -15.383  1.00  0.00     0.000 C
BRANCH  23  24
HETATM   24  C5  UNL     1      31.134  44.540 -15.901  1.00  0.00     0.000 C
BRANCH  24  25
HETATM   25  C4  UNL     1      30.009  43.540 -15.876  1.00  0.00     0.000 C
BRANCH  25  26
HETATM   26  C3  UNL     1      28.887  44.040 -14.991  1.00  0.00    -0.000 C
BRANCH  26  27
HETATM   27  C2  UNL     1      28.884  43.285 -13.674  1.00  0.00    -0.005 C
HETATM   28  C1  UNL     1      28.298  41.906 -13.876  1.00  0.00     0.005 C
ENDBRANCH  26  27
ENDBRANCH  25  26
ENDBRANCH  24  25
ENDBRANCH  23  24
ENDBRANCH  22  23
ENDBRANCH  21  22
ENDBRANCH  20  21
ENDBRANCH  19  20
ENDBRANCH  18  19
ENDBRANCH  17  18
ENDBRANCH  15  17
ENDBRANCH   1  15
BRANCH  14  29
HETATM   29  N9  UNL     1      31.867  42.000  -9.153  1.00  0.00    -0.289 N
ATOM     30  H9  UNL     1      30.985  41.490  -9.215  1.00  0.00     0.188 HD
BRANCH  29  31
HETATM   31  N10 UNL     1      31.874  43.349  -9.436  1.00  0.00    -0.344 N
ATOM     32 2H10 UNL     1      32.610  43.701 -10.048  1.00  0.00     0.176 HD
ATOM     33 1H10 UNL     1      31.179  43.993  -9.058  1.00  0.00     0.176 HD
ENDBRANCH  29  31
ENDBRANCH  14  29
BRANCH   4  34
HETATM   34  N3  UNL     1      35.538  38.159  -7.752  1.00  0.00    -0.383 N
ATOM     35  H32 UNL     1      35.237  37.331  -8.264  1.00  0.00     0.157 HD
ATOM     36  H31 UNL     1      36.376  38.301  -7.188  1.00  0.00     0.157 HD
ENDBRANCH   4  34
BRANCH   8  37
HETATM   37  N5  UNL     1      35.961  41.326  -3.674  1.00  0.00    -0.217 N
HETATM   38  C17 UNL     1      37.381  41.485  -3.510  1.00  0.00     0.141 C
HETATM   39  C18 UNL     1      37.562  42.878  -2.891  1.00  0.00     0.027 C
HETATM   40  C19 UNL     1      36.960  42.861  -1.530  1.00  0.00     0.014 C
HETATM   41  C21 UNL     1      35.934  41.812  -1.279  1.00  0.00     0.027 C
HETATM   42  C22 UNL     1      35.125  41.419  -2.497  1.00  0.00     0.141 C
BRANCH  40  43
HETATM   43  C20 UNL     1      36.445  44.250  -1.123  1.00  0.00     0.234 C
BRANCH  43  44
HETATM   44  N6  UNL     1      37.584  45.040  -0.743  1.00  0.00    -0.079 N
ATOM     45  H63 UNL     1      38.234  45.198  -1.513  1.00  0.00     0.274 HD
ATOM     46  H62 UNL     1      37.349  46.016  -0.563  1.00  0.00     0.274 HD
ATOM     47  H61 UNL     1      38.021  44.583   0.058  1.00  0.00     0.274 HD
ENDBRANCH  43  44
ENDBRANCH  40  43
ENDBRANCH   8  37
TORSDOF 18
ENDMDL