MODEL 5
REMARK VINA RESULT: -6.653111553      1.931      3.762
REMARK  20 active torsions:
REMARK  status: ('A' for Active; 'I' for Inactive)
REMARK    1  A    between atoms: C1_2  and  C2_3
REMARK       I    between atoms: C1_2  and  N1_26
REMARK    2  A    between atoms: C2_3  and  C3_4
REMARK    3  A    between atoms: C3_4  and  C4_5
REMARK    4  A    between atoms: C4_5  and  C5_6
REMARK    5  A    between atoms: C5_6  and  C6_7
REMARK    6  A    between atoms: C6_7  and  C7_8
REMARK    7  A    between atoms: C7_8  and  C8_9
REMARK    8  A    between atoms: C8_9  and  C9_10
REMARK    9  A    between atoms: C9_10  and  C10_11
REMARK   10  A    between atoms: C10_11  and  C11_12
REMARK   11  A    between atoms: C11_12  and  C12_13
REMARK   12  A    between atoms: C12_13  and  C13_14
REMARK   13  A    between atoms: C13_14  and  C14_15
REMARK   14  A    between atoms: C14_15  and  C15_16
REMARK   15  A    between atoms: C18_19  and  O2_20
REMARK   16  A    between atoms: C19_22  and  O3_23
REMARK   17  A    between atoms: C22_28  and  O4_29
REMARK   18  A    between atoms: C23_31  and  O5_32
REMARK   19  A    between atoms: C24_34  and  O6_35
REMARK   20  A    between atoms: C25_37  and  O7_38
ROOT
HETATM    1  C5  UNL     1      38.104  36.373  -6.534  1.00  0.00    -0.031 C
ENDROOT
BRANCH   1   2
HETATM    2  C4  UNL     1      37.984  37.314  -5.429  1.00  0.00    -0.030 C
BRANCH   2   3
HETATM    3  C3  UNL     1      38.468  37.079  -4.080  1.00  0.00     0.036 C
BRANCH   3   4
HETATM    4  C2  UNL     1      38.950  38.241  -3.298  1.00  0.00     0.107 C
BRANCH   4   5
HETATM    5  C1  UNL     1      37.928  38.694  -2.315  1.00  0.00     0.222 C
HETATM    6  O1  UNL     1      37.406  37.943  -1.445  1.00  0.00    -0.273 OA
HETATM    7  N1  UNL     1      37.499  40.039  -2.336  1.00  0.00    -0.321 N
HETATM    8  C21 UNL     1      38.088  40.934  -3.314  1.00  0.00     0.163 C
HETATM    9  C25 UNL     1      36.492  40.485  -1.410  1.00  0.00     0.254 C
HETATM   10  C22 UNL     1      37.103  42.004  -3.720  1.00  0.00     0.167 C
HETATM   11  C23 UNL     1      35.686  41.630  -3.440  1.00  0.00     0.181 C
HETATM   12  C24 UNL     1      35.363  41.202  -2.061  1.00  0.00     0.198 C
BRANCH  10  13
HETATM   13  O4  UNL     1      37.218  42.281  -5.080  1.00  0.00    -0.391 OA
ATOM     14  H4  UNL     1      36.975  43.182  -5.257  1.00  0.00     0.210 HD
ENDBRANCH  10  13
BRANCH  11  15
HETATM   15  O5  UNL     1      35.194  40.708  -4.394  1.00  0.00    -0.390 OA
ATOM     16  H5  UNL     1      34.280  40.499  -4.238  1.00  0.00     0.210 HD
ENDBRANCH  11  15
BRANCH  12  17
HETATM   17  O6  UNL     1      34.844  42.256  -1.308  1.00  0.00    -0.389 OA
ATOM     18  H6  UNL     1      35.116  42.202  -0.400  1.00  0.00     0.210 HD
ENDBRANCH  12  17
BRANCH   9  19
HETATM   19  O7  UNL     1      37.110  41.335  -0.476  1.00  0.00    -0.374 OA
ATOM     20  H7  UNL     1      37.202  42.192  -0.876  1.00  0.00     0.212 HD
ENDBRANCH   9  19
ENDBRANCH   4   5
ENDBRANCH   3   4
ENDBRANCH   2   3
ENDBRANCH   1   2
BRANCH   1  21
HETATM   21  C6  UNL     1      37.047  36.191  -7.539  1.00  0.00     0.027 C
BRANCH  21  22
HETATM   22  C7  UNL     1      36.023  37.335  -7.511  1.00  0.00     0.004 C
BRANCH  22  23
HETATM   23  C8  UNL     1      34.792  37.054  -8.294  1.00  0.00     0.000 C
BRANCH  23  24
HETATM   24  C9  UNL     1      33.608  37.892  -7.882  1.00  0.00     0.000 C
BRANCH  24  25
HETATM   25  C10 UNL     1      32.541  37.940  -8.934  1.00  0.00     0.000 C
BRANCH  25  26
HETATM   26  C11 UNL     1      32.167  39.343  -9.335  1.00  0.00     0.000 C
BRANCH  26  27
HETATM   27  C12 UNL     1      33.301  40.315  -9.189  1.00  0.00     0.000 C
BRANCH  27  28
HETATM   28  C13 UNL     1      32.736  41.714  -9.210  1.00  0.00     0.000 C
BRANCH  28  29
HETATM   29  C14 UNL     1      33.349  42.589 -10.265  1.00  0.00     0.005 C
BRANCH  29  30
HETATM   30  C15 UNL     1      32.257  42.838 -11.310  1.00  0.00    -0.012 C
HETATM   31  C16 UNL     1      32.719  42.294 -12.637  1.00  0.00     0.007 C
HETATM   32  C17 UNL     1      32.147  43.043 -13.809  1.00  0.00     0.034 C
HETATM   33  C18 UNL     1      32.683  44.456 -13.845  1.00  0.00     0.147 C
HETATM   34  C19 UNL     1      33.145  44.809 -12.450  1.00  0.00     0.147 C
HETATM   35  C20 UNL     1      32.118  44.337 -11.445  1.00  0.00     0.039 C
BRANCH  33  36
HETATM   36  O2  UNL     1      33.700  44.599 -14.782  1.00  0.00    -0.393 OA
ATOM     37  H2  UNL     1      33.978  45.504 -14.865  1.00  0.00     0.210 HD
ENDBRANCH  33  36
BRANCH  34  38
HETATM   38  O3  UNL     1      33.251  46.210 -12.371  1.00  0.00    -0.393 OA
ATOM     39  H3  UNL     1      34.174  46.434 -12.371  1.00  0.00     0.210 HD
ENDBRANCH  34  38
ENDBRANCH  29  30
ENDBRANCH  28  29
ENDBRANCH  27  28
ENDBRANCH  26  27
ENDBRANCH  25  26
ENDBRANCH  24  25
ENDBRANCH  23  24
ENDBRANCH  22  23
ENDBRANCH  21  22
ENDBRANCH   1  21
TORSDOF 20
ENDMDL