MODEL 3
REMARK VINA RESULT: -8.331829617      2.198      3.907
REMARK  15 active torsions:
REMARK  status: ('A' for Active; 'I' for Inactive)
REMARK    1  A    between atoms: N1_1  and  C1_5
REMARK    2  A    between atoms: C1_5  and  C2_6
REMARK    3  A    between atoms: C2_6  and  C3_7
REMARK    4  A    between atoms: C3_7  and  N2_8
REMARK    5  A    between atoms: N2_8  and  C4_10
REMARK    6  A    between atoms: N4_17  and  C8_19
REMARK    7  A    between atoms: C8_19  and  C9_20
REMARK    8  A    between atoms: C12_23  and  N5_24
REMARK    9  A    between atoms: N5_24  and  C13_26
REMARK   10  A    between atoms: C13_26  and  C14_27
REMARK   11  A    between atoms: C14_27  and  C15_28
REMARK   12  A    between atoms: C15_28  and  C16_29
REMARK   13  A    between atoms: C16_29  and  C17_30
REMARK   14  A    between atoms: C17_30  and  N6_31
REMARK   15  A    between atoms: N6_31  and  C18_33
ROOT
HETATM    1  C4  UNL     1      35.041  41.404  -5.141  1.00  0.00     0.682 A
HETATM    2  N3  UNL     1      34.200  41.899  -6.066  1.00  0.00    -0.155 N
ATOM      3  H3  UNL     1      33.794  42.818  -5.888  1.00  0.00     0.187 HD
HETATM    4  C5  UNL     1      33.852  41.283  -7.204  1.00  0.00     0.277 A
HETATM    5  O1  UNL     1      33.054  41.811  -8.032  1.00  0.00    -0.266 OA
HETATM    6  C6  UNL     1      34.387  40.044  -7.468  1.00  0.00     0.121 A
HETATM    7  C7  UNL     1      34.096  39.314  -8.614  1.00  0.00     0.122 A
HETATM    8  N4  UNL     1      33.285  39.820  -9.455  1.00  0.00    -0.369 N
ATOM      9  H4  UNL     1      32.886  40.737  -9.254  1.00  0.00     0.161 HD
HETATM   10  N7  UNL     1      34.639  38.110  -8.833  1.00  0.00    -0.338 N
ATOM     11  H7  UNL     1      34.417  37.588  -9.681  1.00  0.00     0.168 HD
HETATM   12  C24 UNL     1      35.497  37.591  -7.903  1.00  0.00     0.183 A
HETATM   13  N8  UNL     1      35.781  38.291  -6.795  1.00  0.00    -0.337 N
ATOM     14  H8  UNL     1      36.425  37.884  -6.116  1.00  0.00     0.168 HD
HETATM   15  C25 UNL     1      35.255  39.511  -6.531  1.00  0.00     0.141 A
HETATM   16  N9  UNL     1      35.562  40.181  -5.411  1.00  0.00    -0.175 N
ATOM     17  H9  UNL     1      36.206  39.758  -4.742  1.00  0.00     0.186 HD
ENDROOT
BRANCH   8  18
HETATM   18  C8  UNL     1      32.905  39.162 -10.676  1.00  0.00     0.186 C
BRANCH  18  19
HETATM   19  C9  UNL     1      31.410  39.283 -10.836  1.00  0.00     0.073 A
HETATM   20  C10 UNL     1      30.437  38.963  -9.928  1.00  0.00     0.039 A
HETATM   21  C11 UNL     1      29.241  39.239 -10.524  1.00  0.00     0.058 A
HETATM   22  C12 UNL     1      29.513  39.731 -11.801  1.00  0.00     0.143 A
HETATM   23  O2  UNL     1      30.816  39.732 -11.920  1.00  0.00    -0.297 OA
BRANCH  22  24
HETATM   24  N5  UNL     1      28.476  40.105 -12.678  1.00  0.00    -0.371 N
ATOM     25  H5  UNL     1      27.632  39.532 -12.658  1.00  0.00     0.161 HD
BRANCH  24  26
HETATM   26  C13 UNL     1      28.484  41.206 -13.596  1.00  0.00     0.121 C
BRANCH  26  27
HETATM   27  C14 UNL     1      28.998  42.497 -13.096  1.00  0.00     0.020 C
BRANCH  27  28
HETATM   28  C15 UNL     1      28.847  43.700 -13.906  1.00  0.00     0.003 C
BRANCH  28  29
HETATM   29  C16 UNL     1      29.558  43.857 -15.183  1.00  0.00     0.019 C
BRANCH  29  30
HETATM   30  C17 UNL     1      31.022  43.623 -15.235  1.00  0.00     0.114 C
BRANCH  30  31
HETATM   31  N6  UNL     1      31.797  44.613 -14.590  1.00  0.00    -0.417 N
ATOM     32  H6  UNL     1      31.683  45.597 -14.833  1.00  0.00     0.153 HD
BRANCH  31  33
HETATM   33  C18 UNL     1      32.737  44.223 -13.600  1.00  0.00     0.076 C
HETATM   34  C19 UNL     1      32.494  45.192 -12.427  1.00  0.00     0.024 C
HETATM   35  C20 UNL     1      31.589  44.482 -11.418  1.00  0.00     0.002 C
HETATM   36  C21 UNL     1      32.457  43.459 -10.741  1.00  0.00     0.000 C
HETATM   37  C22 UNL     1      32.997  42.521 -11.752  1.00  0.00     0.002 C
HETATM   38  C23 UNL     1      32.618  42.816 -13.192  1.00  0.00     0.024 C
ENDBRANCH  31  33
ENDBRANCH  30  31
ENDBRANCH  29  30
ENDBRANCH  28  29
ENDBRANCH  27  28
ENDBRANCH  26  27
ENDBRANCH  24  26
ENDBRANCH  22  24
ENDBRANCH  18  19
ENDBRANCH   8  18
BRANCH   1  39
HETATM   39  N2  UNL     1      35.356  42.022  -4.053  1.00  0.00    -0.226 N
ATOM     40  H2  UNL     1      34.611  42.550  -3.600  1.00  0.00     0.177 HD
BRANCH  39  41
HETATM   41  C3  UNL     1      36.626  42.048  -3.417  1.00  0.00     0.139 C
BRANCH  41  42
HETATM   42  C2  UNL     1      36.558  42.453  -1.963  1.00  0.00     0.047 C
BRANCH  42  43
HETATM   43  C1  UNL     1      35.636  41.599  -1.153  1.00  0.00     0.231 C
BRANCH  43  44
HETATM   44  N1  UNL     1      36.030  40.185  -1.183  1.00  0.00    -0.079 N
ATOM     45  H13 UNL     1      36.828  40.036  -1.801  1.00  0.00     0.274 HD
ATOM     46  H12 UNL     1      36.455  39.899  -0.301  1.00  0.00     0.274 HD
ATOM     47  H11 UNL     1      35.249  39.578  -1.433  1.00  0.00     0.274 HD
ENDBRANCH  43  44
ENDBRANCH  42  43
ENDBRANCH  41  42
ENDBRANCH  39  41
ENDBRANCH   1  39
TORSDOF 15
ENDMDL