MODEL 3
REMARK VINA RESULT: -7.332358565      3.952     11.908
REMARK  17 active torsions:
REMARK  status: ('A' for Active; 'I' for Inactive)
REMARK    1  A    between atoms: C3_9  and  N4_10
REMARK    2  A    between atoms: N4_10  and  C4_12
REMARK    3  A    between atoms: C4_12  and  C5_13
REMARK    4  A    between atoms: C5_13  and  C6_14
REMARK    5  A    between atoms: C6_14  and  C7_15
REMARK    6  A    between atoms: C7_15  and  C8_16
REMARK    7  A    between atoms: C8_16  and  C9_17
REMARK    8  A    between atoms: C9_17  and  C10_18
REMARK    9  A    between atoms: C10_18  and  C11_19
REMARK   10  A    between atoms: C11_19  and  C12_20
REMARK   11  A    between atoms: C12_20  and  S1_21
REMARK   12  A    between atoms: S1_21  and  C13_22
REMARK   13  A    between atoms: C13_22  and  C14_23
REMARK   14  A    between atoms: C14_23  and  N5_24
REMARK   15  A    between atoms: N5_24  and  C15_26
REMARK   16  A    between atoms: C19_36  and  C20_37
REMARK   17  A    between atoms: N10_39  and  O1_41
ROOT
HETATM    1  C13 UNL     1      32.641  43.874 -11.315  1.00  0.00     0.093 C
ENDROOT
BRANCH   1   2
HETATM    2  S1  UNL     1      33.058  42.572 -10.205  1.00  0.00    -0.168 SA
BRANCH   2   3
HETATM    3  C12 UNL     1      32.045  41.135 -10.152  1.00  0.00     0.074 C
BRANCH   3   4
HETATM    4  C11 UNL     1      32.588  39.865 -10.679  1.00  0.00     0.010 C
BRANCH   4   5
HETATM    5  C10 UNL     1      33.471  39.115  -9.739  1.00  0.00     0.001 C
BRANCH   5   6
HETATM    6  C9  UNL     1      32.818  38.509  -8.560  1.00  0.00     0.000 C
BRANCH   6   7
HETATM    7  C8  UNL     1      33.502  38.772  -7.246  1.00  0.00     0.000 C
BRANCH   7   8
HETATM    8  C7  UNL     1      34.023  40.190  -7.151  1.00  0.00     0.000 C
BRANCH   8   9
HETATM    9  C6  UNL     1      35.123  40.333  -6.144  1.00  0.00     0.002 C
BRANCH   9  10
HETATM   10  C5  UNL     1      35.244  41.689  -5.529  1.00  0.00     0.020 C
BRANCH  10  11
HETATM   11  C4  UNL     1      36.189  41.535  -4.329  1.00  0.00     0.121 C
BRANCH  11  12
HETATM   12  N4  UNL     1      35.383  41.621  -3.136  1.00  0.00    -0.374 N
ATOM     13  H4  UNL     1      34.391  41.835  -3.232  1.00  0.00     0.161 HD
BRANCH  12  14
HETATM   14  C3  UNL     1      35.865  41.441  -1.952  1.00  0.00     0.141 A
HETATM   15  C2  UNL     1      36.388  42.439  -1.164  1.00  0.00     0.068 A
HETATM   16  C1  UNL     1      36.497  43.871  -1.512  1.00  0.00     0.074 C
HETATM   17  N1  UNL     1      36.794  41.895  -0.001  1.00  0.00    -0.287 N
HETATM   18  N2  UNL     1      36.531  40.610  -0.069  1.00  0.00    -0.241 N
ATOM     19  H1  UNL     1      37.222  42.387   0.783  1.00  0.00     0.188 HD
HETATM   20  N3  UNL     1      35.968  40.310  -1.240  1.00  0.00    -0.270 N
ATOM     21  H2  UNL     1      36.729  39.935   0.670  1.00  0.00     0.208 HD
ATOM     22  H3  UNL     1      35.668  39.382  -1.540  1.00  0.00     0.190 HD
ENDBRANCH  12  14
ENDBRANCH  11  12
ENDBRANCH  10  11
ENDBRANCH   9  10
ENDBRANCH   8   9
ENDBRANCH   7   8
ENDBRANCH   6   7
ENDBRANCH   5   6
ENDBRANCH   4   5
ENDBRANCH   3   4
ENDBRANCH   2   3
ENDBRANCH   1   2
BRANCH   1  23
HETATM   23  C14 UNL     1      31.235  44.360 -11.324  1.00  0.00     0.131 C
BRANCH  23  24
HETATM   24  N5  UNL     1      30.779  44.254 -12.719  1.00  0.00    -0.375 N
ATOM     25  H5  UNL     1      30.798  45.076 -13.324  1.00  0.00     0.161 HD
BRANCH  24  26
HETATM   26  C15 UNL     1      30.362  43.141 -13.175  1.00  0.00     0.117 A
HETATM   27  N6  UNL     1      29.461  42.417 -12.440  1.00  0.00    -0.338 N
HETATM   28  C16 UNL     1      29.013  41.244 -12.898  1.00  0.00     0.183 A
ATOM     29  H6  UNL     1      29.132  42.773 -11.543  1.00  0.00     0.168 HD
HETATM   30  N7  UNL     1      29.458  40.798 -14.079  1.00  0.00    -0.338 N
HETATM   31  C17 UNL     1      30.344  41.481 -14.830  1.00  0.00     0.121 A
ATOM     32  H7  UNL     1      29.113  39.903 -14.425  1.00  0.00     0.168 HD
HETATM   33  N8  UNL     1      30.921  41.251 -16.006  1.00  0.00    -0.350 N
HETATM   34  C21 UNL     1      30.833  42.700 -14.392  1.00  0.00     0.067 A
HETATM   35  C18 UNL     1      31.741  42.239 -16.342  1.00  0.00     0.105 A
ATOM     36  H8  UNL     1      30.755  40.422 -16.576  1.00  0.00     0.166 HD
HETATM   37  C19 UNL     1      31.728  43.220 -15.325  1.00  0.00     0.040 A
BRANCH  37  38
HETATM   38  C20 UNL     1      32.495  44.426 -15.361  1.00  0.00     0.148 C
HETATM   39  N9  UNL     1      33.600  44.790 -14.574  1.00  0.00    -0.080 NA
HETATM   40  N10 UNL     1      32.191  45.352 -16.207  1.00  0.00    -0.255 N
ATOM     41  H10 UNL     1      32.806  46.163 -16.142  1.00  0.00     0.195 HD
BRANCH  40  42
HETATM   42  O1  UNL     1      31.279  45.483 -17.122  1.00  0.00    -0.288 OA
ATOM     43  H1  UNL     1      31.026  44.979 -17.886  1.00  0.00     0.244 HD
ENDBRANCH  40  42
ENDBRANCH  37  38
ENDBRANCH  24  26
ENDBRANCH  23  24
ENDBRANCH   1  23
TORSDOF 17
ENDMDL