MODEL 5
REMARK VINA RESULT: -6.119882129      2.999      6.405
REMARK  19 active torsions:
REMARK  status: ('A' for Active; 'I' for Inactive)
REMARK    1  A    between atoms: N1_1  and  C1_4
REMARK    2  A    between atoms: C2_7  and  C3_8
REMARK    3  A    between atoms: C3_8  and  O1_9
REMARK    4  A    between atoms: C3_8  and  O2_11
REMARK    5  A    between atoms: C4_13  and  C5_14
REMARK    6  A    between atoms: C5_14  and  C6_15
REMARK    7  A    between atoms: C6_15  and  C7_16
REMARK    8  A    between atoms: C7_16  and  C8_17
REMARK    9  A    between atoms: C8_17  and  C9_18
REMARK   10  A    between atoms: C9_18  and  N3_19
REMARK   11  A    between atoms: N3_19  and  C10_21
REMARK   12  A    between atoms: C10_21  and  N4_23
REMARK   13  A    between atoms: N4_23  and  C11_25
REMARK   14  A    between atoms: C11_25  and  C12_26
REMARK   15  A    between atoms: C12_26  and  C13_27
REMARK   16  A    between atoms: C13_27  and  C14_28
REMARK   17  A    between atoms: C14_28  and  C15_29
REMARK   18  A    between atoms: C15_29  and  C16_30
REMARK   19  A    between atoms: C16_30  and  N5_31
ROOT
HETATM    1  N3  UNL     1      33.870  42.254  -6.760  1.00  0.00    -0.367 N
ATOM      2  H3  UNL     1      33.514  42.983  -6.140  1.00  0.00     0.161 HD
ENDROOT
BRANCH   1   3
HETATM    3  C9  UNL     1      33.273  42.042  -8.062  1.00  0.00     0.122 C
BRANCH   3   4
HETATM    4  C8  UNL     1      32.190  43.055  -8.331  1.00  0.00     0.020 C
BRANCH   4   5
HETATM    5  C7  UNL     1      31.989  43.219  -9.800  1.00  0.00     0.002 C
BRANCH   5   6
HETATM    6  C6  UNL     1      33.172  42.671 -10.599  1.00  0.00     0.005 C
BRANCH   6   7
HETATM    7  C5  UNL     1      32.750  41.949 -11.821  1.00  0.00     0.048 C
BRANCH   7   8
HETATM    8  C4  UNL     1      31.776  42.670 -12.694  1.00  0.00     0.014 A
HETATM    9  C2  UNL     1      31.844  43.843 -13.385  1.00  0.00     0.079 A
HETATM   10  N2  UNL     1      30.774  44.246 -14.026  1.00  0.00    -0.335 N
HETATM   11  C1  UNL     1      29.677  43.503 -13.980  1.00  0.00     0.143 A
ATOM     12  H2  UNL     1      30.786  45.119 -14.552  1.00  0.00     0.168 HD
HETATM   13  S2  UNL     1      30.136  42.187 -13.010  1.00  0.00    -0.057 SA
BRANCH   9  14
HETATM   14  C3  UNL     1      33.149  44.630 -13.464  1.00  0.00     0.306 C
BRANCH  14  15
HETATM   15  O1  UNL     1      33.454  45.070 -14.711  1.00  0.00    -0.366 OA
ATOM     16  H1  UNL     1      34.204  45.653 -14.743  1.00  0.00     0.213 HD
ENDBRANCH  14  15
BRANCH  14  17
HETATM   17  O2  UNL     1      33.067  45.690 -12.526  1.00  0.00    -0.366 OA
ATOM     18  H2  UNL     1      33.342  46.486 -12.967  1.00  0.00     0.213 HD
ENDBRANCH  14  17
ENDBRANCH   9  14
BRANCH  11  19
HETATM   19  N1  UNL     1      28.511  43.748 -14.559  1.00  0.00    -0.380 N
ATOM     20  H12 UNL     1      28.285  43.800 -15.552  1.00  0.00     0.158 HD
ATOM     21  H11 UNL     1      27.617  43.930 -14.105  1.00  0.00     0.158 HD
ENDBRANCH  11  19
ENDBRANCH   7   8
ENDBRANCH   6   7
ENDBRANCH   5   6
ENDBRANCH   4   5
ENDBRANCH   3   4
ENDBRANCH   1   3
BRANCH   1  22
HETATM   22  C10 UNL     1      34.966  41.426  -6.354  1.00  0.00     0.167 C
HETATM   23  S1  UNL     1      35.687  41.699  -4.901  1.00  0.00    -0.041 SA
BRANCH  22  24
HETATM   24  N4  UNL     1      35.403  40.388  -7.205  1.00  0.00    -0.367 N
ATOM     25  H4  UNL     1      35.960  40.623  -8.027  1.00  0.00     0.161 HD
BRANCH  24  26
HETATM   26  C11 UNL     1      35.089  39.024  -6.952  1.00  0.00     0.122 C
BRANCH  26  27
HETATM   27  C12 UNL     1      34.501  38.228  -8.054  1.00  0.00     0.020 C
BRANCH  27  28
HETATM   28  C13 UNL     1      34.321  38.900  -9.379  1.00  0.00     0.002 C
BRANCH  28  29
HETATM   29  C14 UNL     1      33.127  38.538 -10.160  1.00  0.00     0.002 C
BRANCH  29  30
HETATM   30  C15 UNL     1      31.837  38.752  -9.452  1.00  0.00     0.020 C
BRANCH  30  31
HETATM   31  C16 UNL     1      31.137  37.590  -8.868  1.00  0.00     0.121 C
BRANCH  31  32
HETATM   32  N5  UNL     1      29.851  37.325  -9.405  1.00  0.00    -0.380 N
HETATM   33  C17 UNL     1      29.023  36.430  -8.992  1.00  0.00     0.072 C
HETATM   34  C18 UNL     1      29.422  35.580  -7.849  1.00  0.00     0.076 C
HETATM   35  N6  UNL     1      27.777  36.321  -9.663  1.00  0.00    -0.380 N
HETATM   36  C19 UNL     1      28.332  34.593  -7.479  1.00  0.00     0.009 C
HETATM   37  C20 UNL     1      27.496  34.178  -8.661  1.00  0.00     0.020 C
HETATM   38  C21 UNL     1      26.759  35.420  -9.164  1.00  0.00     0.121 C
ATOM     39  H6  UNL     1      27.599  36.877 -10.499  1.00  0.00     0.160 HD
ATOM     40  H5  UNL     1      29.554  37.899 -10.194  1.00  0.00     0.160 HD
ENDBRANCH  31  32
ENDBRANCH  30  31
ENDBRANCH  29  30
ENDBRANCH  28  29
ENDBRANCH  27  28
ENDBRANCH  26  27
ENDBRANCH  24  26
ENDBRANCH  22  24
ENDBRANCH   1  22
TORSDOF 19
ENDMDL