MODEL 2
REMARK VINA RESULT: -7.841834797      3.292     11.947
REMARK  17 active torsions:
REMARK  status: ('A' for Active; 'I' for Inactive)
REMARK    1  A    between atoms: C4_4  and  N1_5
REMARK    2  A    between atoms: C5_10  and  C6_11
REMARK    3  A    between atoms: C6_11  and  C7_12
REMARK    4  A    between atoms: C7_12  and  C8_13
REMARK    5  A    between atoms: C8_13  and  C9_14
REMARK    6  A    between atoms: C9_14  and  C10_15
REMARK    7  A    between atoms: C10_15  and  C11_16
REMARK    8  A    between atoms: C11_16  and  C12_17
REMARK    9  A    between atoms: C13_18  and  O1_19
REMARK   10  A    between atoms: N3_21  and  C14_22
REMARK   11  A    between atoms: C14_22  and  C15_23
REMARK   12  A    between atoms: C15_23  and  C16_24
REMARK   13  A    between atoms: C16_24  and  C17_25
REMARK   14  A    between atoms: C17_25  and  C18_26
REMARK   15  A    between atoms: C18_26  and  C19_27
REMARK   16  A    between atoms: C19_27  and  N4_28
REMARK   17  A    between atoms: C24_33  and  N5_34
ROOT
HETATM    1  C12 UNL     1      35.356  40.946  -6.084  1.00  0.00     0.062 A
HETATM    2  C13 UNL     1      34.466  41.755  -6.760  1.00  0.00     0.169 A
HETATM    3  N3  UNL     1      33.645  41.287  -7.710  1.00  0.00    -0.162 N
HETATM    4  C24 UNL     1      33.669  39.989  -8.038  1.00  0.00     0.682 A
HETATM    5  N6  UNL     1      34.519  39.146  -7.413  1.00  0.00    -0.156 N
ATOM      6  H6  UNL     1      34.534  38.158  -7.665  1.00  0.00     0.187 HD
HETATM    7  C25 UNL     1      35.358  39.615  -6.443  1.00  0.00     0.270 A
HETATM    8  O2  UNL     1      36.137  38.804  -5.881  1.00  0.00    -0.267 OA
ENDROOT
BRANCH   1   9
HETATM    9  C11 UNL     1      36.228  41.504  -5.053  1.00  0.00     0.049 C
BRANCH   9  10
HETATM   10  C10 UNL     1      35.685  41.430  -3.645  1.00  0.00     0.005 C
BRANCH  10  11
HETATM   11  C9  UNL     1      36.832  41.112  -2.746  1.00  0.00     0.000 C
BRANCH  11  12
HETATM   12  C8  UNL     1      38.006  40.479  -3.404  1.00  0.00     0.000 C
BRANCH  12  13
HETATM   13  C7  UNL     1      38.211  39.045  -3.046  1.00  0.00     0.007 C
BRANCH  13  14
HETATM   14  C6  UNL     1      39.596  38.646  -3.505  1.00  0.00     0.076 C
BRANCH  14  15
HETATM   15  C5  UNL     1      39.600  37.719  -4.648  1.00  0.00     0.082 A
HETATM   16  N2  UNL     1      38.502  37.303  -5.304  1.00  0.00    -0.332 N
HETATM   17  C4  UNL     1      38.631  36.449  -6.338  1.00  0.00     0.101 A
ATOM     18  H2  UNL     1      37.578  37.632  -5.021  1.00  0.00     0.168 HD
HETATM   19  C3  UNL     1      39.863  35.985  -6.747  1.00  0.00     0.072 A
HETATM   20  C2  UNL     1      40.987  36.414  -6.073  1.00  0.00     0.010 A
HETATM   21  C1  UNL     1      42.351  35.935  -6.477  1.00  0.00     0.068 C
HETATM   22  N7  UNL     1      40.804  37.263  -5.052  1.00  0.00    -0.350 N
ATOM     23  H7  UNL     1      41.630  37.585  -4.547  1.00  0.00     0.167 HD
BRANCH  17  24
HETATM   24  N1  UNL     1      37.535  36.075  -6.945  1.00  0.00    -0.385 N
ATOM     25  H12 UNL     1      36.919  35.435  -6.443  1.00  0.00     0.157 HD
ATOM     26  H11 UNL     1      37.310  36.414  -7.880  1.00  0.00     0.157 HD
ENDBRANCH  17  24
ENDBRANCH  14  15
ENDBRANCH  13  14
ENDBRANCH  12  13
ENDBRANCH  11  12
ENDBRANCH  10  11
ENDBRANCH   9  10
ENDBRANCH   1   9
BRANCH   2  27
HETATM   27  O1  UNL     1      34.434  43.099  -6.429  1.00  0.00    -0.345 OA
ATOM     28  H1  UNL     1      33.773  43.642  -6.842  1.00  0.00     0.219 HD
ENDBRANCH   2  27
BRANCH   3  29
HETATM   29  C14 UNL     1      32.728  42.161  -8.393  1.00  0.00     0.150 C
BRANCH  29  30
HETATM   30  C15 UNL     1      33.435  42.609  -9.657  1.00  0.00     0.021 C
BRANCH  30  31
HETATM   31  C16 UNL     1      32.457  43.104 -10.700  1.00  0.00     0.002 C
BRANCH  31  32
HETATM   32  C17 UNL     1      32.740  42.511 -12.053  1.00  0.00     0.002 C
BRANCH  32  33
HETATM   33  C18 UNL     1      32.724  43.612 -13.073  1.00  0.00     0.030 C
BRANCH  33  34
HETATM   34  C19 UNL     1      31.372  43.827 -13.707  1.00  0.00     0.272 C
BRANCH  34  35
HETATM   35  N4  UNL     1      31.462  44.235 -15.102  1.00  0.00     0.088 N
HETATM   36  C20 UNL     1      32.833  44.611 -15.386  1.00  0.00     0.272 C
HETATM   37  C21 UNL     1      33.048  44.241 -16.840  1.00  0.00     0.032 C
HETATM   38  C22 UNL     1      32.307  42.932 -16.917  1.00  0.00     0.032 C
HETATM   39  C23 UNL     1      31.135  43.145 -15.990  1.00  0.00     0.272 C
ENDBRANCH  34  35
ENDBRANCH  33  34
ENDBRANCH  32  33
ENDBRANCH  31  32
ENDBRANCH  30  31
ENDBRANCH  29  30
ENDBRANCH   3  29
BRANCH   4  40
HETATM   40  N5  UNL     1      32.899  39.492  -8.944  1.00  0.00    -0.234 N
ATOM     41  H52 UNL     1      32.044  40.002  -9.165  1.00  0.00     0.174 HD
ATOM     42  H51 UNL     1      33.120  38.625  -9.433  1.00  0.00     0.174 HD
ENDBRANCH   4  40
TORSDOF 17
ENDMDL