MODEL 4
REMARK VINA RESULT: -7.409647325      1.107      1.168
REMARK  13 active torsions:
REMARK  status: ('A' for Active; 'I' for Inactive)
REMARK    1  A    between atoms: C2_2  and  C3_3
REMARK    2  A    between atoms: C3_3  and  C4_4
REMARK    3  A    between atoms: C4_4  and  C5_5
REMARK    4  A    between atoms: C5_5  and  C6_6
REMARK    5  A    between atoms: C6_6  and  N1_7
REMARK       I    between atoms: C7_9  and  N3_11
REMARK    6  A    between atoms: N3_11  and  C8_13
REMARK    7  A    between atoms: C8_13  and  C9_14
REMARK    8  A    between atoms: C9_14  and  C10_15
REMARK    9  A    between atoms: C10_15  and  C11_16
REMARK   10  A    between atoms: C11_16  and  N4_17
REMARK   11  A    between atoms: N4_17  and  C12_19
REMARK   12  A    between atoms: C13_22  and  N6_23
REMARK   13  A    between atoms: C14_28  and  C15_29
ROOT
HETATM    1  C12 UNL     1      13.340  39.972 -10.106  1.00  0.00     0.695 A
HETATM    2  N5  UNL     1      13.757  41.056 -10.783  1.00  0.00    -0.022 N
ATOM      3  H5  UNL     1      13.644  41.988 -10.385  1.00  0.00     0.203 HD
HETATM    4  C13 UNL     1      14.322  40.900 -11.987  1.00  0.00     0.691 A
HETATM    5  N7  UNL     1      14.458  39.666 -12.489  1.00  0.00    -0.179 N
ATOM      6  H7  UNL     1      14.888  39.542 -13.406  1.00  0.00     0.185 HD
HETATM    7  C14 UNL     1      14.037  38.584 -11.805  1.00  0.00     0.121 A
HETATM    8  N9  UNL     1      13.476  38.707 -10.612  1.00  0.00    -0.175 N
HETATM    9  C19 UNL     1      13.039  37.537  -9.911  1.00  0.00     0.177 C
ENDROOT
BRANCH   1  10
HETATM   10  N4  UNL     1      12.799  40.051  -8.956  1.00  0.00    -0.225 N
ATOM     11  H4  UNL     1      12.464  39.166  -8.573  1.00  0.00     0.177 HD
BRANCH  10  12
HETATM   12  C11 UNL     1      12.592  41.182  -8.131  1.00  0.00     0.138 C
BRANCH  12  13
HETATM   13  C10 UNL     1      11.827  40.858  -6.835  1.00  0.00     0.022 C
BRANCH  13  14
HETATM   14  C9  UNL     1      11.375  39.443  -6.822  1.00  0.00     0.021 C
BRANCH  14  15
HETATM   15  C8  UNL     1      11.870  38.664  -5.647  1.00  0.00     0.122 C
BRANCH  15  16
HETATM   16  N3  UNL     1      10.928  37.894  -4.915  1.00  0.00    -0.365 N
HETATM   17  C7  UNL     1       9.957  38.417  -4.034  1.00  0.00     0.183 C
HETATM   18  N1  UNL     1      10.276  39.374  -3.200  1.00  0.00    -0.365 N
HETATM   19  N2  UNL     1       8.642  37.898  -4.046  1.00  0.00    -0.064 NA
ATOM     20  H1  UNL     1      11.231  39.734  -3.208  1.00  0.00     0.162 HD
ATOM     21  H3  UNL     1      10.955  36.882  -5.036  1.00  0.00     0.162 HD
BRANCH  18  22
HETATM   22  C6  UNL     1       9.339  39.936  -2.279  1.00  0.00     0.122 C
BRANCH  22  23
HETATM   23  C5  UNL     1       9.842  39.976  -0.892  1.00  0.00     0.020 C
BRANCH  23  24
HETATM   24  C4  UNL     1      10.239  38.707  -0.228  1.00  0.00     0.002 C
BRANCH  24  25
HETATM   25  C3  UNL     1       9.144  37.967   0.423  1.00  0.00    -0.000 C
BRANCH  25  26
HETATM   26  C2  UNL     1       8.604  36.835  -0.450  1.00  0.00    -0.005 C
HETATM   27  C1  UNL     1       9.716  36.082  -1.122  1.00  0.00     0.005 C
ENDBRANCH  25  26
ENDBRANCH  24  25
ENDBRANCH  23  24
ENDBRANCH  22  23
ENDBRANCH  18  22
ENDBRANCH  15  16
ENDBRANCH  14  15
ENDBRANCH  13  14
ENDBRANCH  12  13
ENDBRANCH  10  12
ENDBRANCH   1  10
BRANCH   4  28
HETATM   28  N6  UNL     1      14.722  41.935 -12.637  1.00  0.00    -0.234 N
ATOM     29  H62 UNL     1      14.065  42.647 -12.956  1.00  0.00     0.174 HD
ATOM     30  H61 UNL     1      15.715  42.048 -12.839  1.00  0.00     0.174 HD
ENDBRANCH   4  28
BRANCH   7  31
HETATM   31  C15 UNL     1      14.237  37.266 -12.453  1.00  0.00     0.081 C
HETATM   32  C16 UNL     1      15.647  36.789 -12.450  1.00  0.00     0.135 C
HETATM   33  N8  UNL     1      15.752  36.021 -13.701  1.00  0.00    -0.360 N
HETATM   34  C17 UNL     1      14.607  36.273 -14.512  1.00  0.00     0.218 C
ATOM     35  H8  UNL     1      16.524  35.404 -13.949  1.00  0.00     0.162 HD
HETATM   36  O1  UNL     1      14.145  35.649 -15.489  1.00  0.00    -0.274 OA
HETATM   37  C18 UNL     1      14.003  37.509 -13.953  1.00  0.00     0.116 C
ENDBRANCH   7  31
TORSDOF 13
ENDMDL