MODEL 3
REMARK VINA RESULT: -7.650935145      2.000      2.477
REMARK  14 active torsions:
REMARK  status: ('A' for Active; 'I' for Inactive)
REMARK    1  A    between atoms: C2_2  and  C3_3
REMARK    2  A    between atoms: C4_6  and  N2_7
REMARK    3  A    between atoms: N2_7  and  C5_9
REMARK    4  A    between atoms: C5_9  and  C6_10
REMARK    5  A    between atoms: C6_10  and  C7_11
REMARK    6  A    between atoms: C7_11  and  C8_12
REMARK    7  A    between atoms: C8_12  and  N3_13
REMARK    8  A    between atoms: C11_16  and  C12_17
REMARK    9  A    between atoms: C12_17  and  O1_18
REMARK   10  A    between atoms: C15_25  and  C16_26
REMARK   11  A    between atoms: C16_26  and  C17_27
REMARK   12  A    between atoms: C17_27  and  C18_28
REMARK   13  A    between atoms: C18_28  and  N5_29
REMARK       I    between atoms: N5_29  and  C19_31
REMARK   14  A    between atoms: N7_33  and  O3_35
ROOT
HETATM    1  C3  UNL     1      13.996  39.801  -9.750  1.00  0.00     0.038 A
HETATM    2  N1  UNL     1      14.692  38.755 -10.215  1.00  0.00    -0.195 N
ATOM      3  H1  UNL     1      15.514  38.947 -10.787  1.00  0.00     0.184 HD
HETATM    4  C4  UNL     1      14.376  37.449  -9.974  1.00  0.00     0.681 A
HETATM    5  N4  UNL     1      13.285  37.266  -9.216  1.00  0.00    -0.156 N
ATOM      6  H4  UNL     1      13.011  36.306  -9.010  1.00  0.00     0.187 HD
HETATM    7  C14 UNL     1      12.529  38.247  -8.710  1.00  0.00     0.267 A
HETATM    8  O2  UNL     1      11.524  37.960  -8.012  1.00  0.00    -0.267 OA
HETATM    9  C15 UNL     1      12.889  39.576  -8.984  1.00  0.00     0.034 A
ENDROOT
BRANCH   4  10
HETATM   10  N2  UNL     1      15.091  36.512 -10.458  1.00  0.00    -0.226 N
ATOM     11  H2  UNL     1      15.563  35.897  -9.796  1.00  0.00     0.177 HD
BRANCH  10  12
HETATM   12  C5  UNL     1      15.287  36.252 -11.838  1.00  0.00     0.138 C
BRANCH  12  13
HETATM   13  C6  UNL     1      14.005  35.727 -12.458  1.00  0.00     0.022 C
BRANCH  13  14
HETATM   14  C7  UNL     1      13.639  36.549 -13.664  1.00  0.00     0.032 C
BRANCH  14  15
HETATM   15  C8  UNL     1      13.354  35.646 -14.818  1.00  0.00     0.272 C
BRANCH  15  16
HETATM   16  N3  UNL     1      14.416  35.578 -15.801  1.00  0.00     0.088 N
HETATM   17  C9  UNL     1      13.976  34.908 -16.984  1.00  0.00     0.273 C
HETATM   18  C10 UNL     1      13.730  35.945 -18.028  1.00  0.00     0.038 C
HETATM   19  C11 UNL     1      14.558  37.120 -17.607  1.00  0.00     0.039 C
HETATM   20  C13 UNL     1      14.956  36.850 -16.165  1.00  0.00     0.279 C
BRANCH  19  21
HETATM   21  C12 UNL     1      13.733  38.412 -17.661  1.00  0.00     0.170 C
BRANCH  21  22
HETATM   22  O1  UNL     1      12.579  38.124 -18.385  1.00  0.00    -0.400 OA
ATOM     23  H1  UNL     1      12.070  38.925 -18.422  1.00  0.00     0.209 HD
ENDBRANCH  21  22
ENDBRANCH  19  21
ENDBRANCH  15  16
ENDBRANCH  14  15
ENDBRANCH  13  14
ENDBRANCH  12  13
ENDBRANCH  10  12
ENDBRANCH   4  10
BRANCH   1  24
HETATM   24  C2  UNL     1      14.482  41.161 -10.044  1.00  0.00     0.054 C
HETATM   25  C1  UNL     1      15.897  41.468  -9.758  1.00  0.00     0.011 C
ENDBRANCH   1  24
BRANCH   9  26
HETATM   26  C16 UNL     1      11.973  40.581  -8.432  1.00  0.00     0.048 C
BRANCH  26  27
HETATM   27  C17 UNL     1      12.263  40.854  -7.002  1.00  0.00     0.025 C
BRANCH  27  28
HETATM   28  C18 UNL     1      11.096  40.506  -6.089  1.00  0.00     0.122 C
BRANCH  28  29
HETATM   29  N5  UNL     1      11.540  39.423  -5.232  1.00  0.00    -0.363 N
HETATM   30  C19 UNL     1      10.560  38.665  -4.557  1.00  0.00     0.208 C
HETATM   31  N6  UNL     1       9.511  38.082  -5.293  1.00  0.00    -0.062 NA
HETATM   32  N7  UNL     1      10.622  38.507  -3.296  1.00  0.00    -0.241 N
ATOM     33  H7  UNL     1       9.907  37.957  -2.820  1.00  0.00     0.197 HD
ATOM     34  H5  UNL     1      12.532  39.216  -5.121  1.00  0.00     0.162 HD
BRANCH  32  35
HETATM   35  O3  UNL     1      11.632  39.067  -2.579  1.00  0.00    -0.287 OA
ATOM     36  H3  UNL     1      12.519  38.736  -2.656  1.00  0.00     0.244 HD
ENDBRANCH  32  35
ENDBRANCH  28  29
ENDBRANCH  27  28
ENDBRANCH  26  27
ENDBRANCH   9  26
TORSDOF 14
ENDMDL