MODEL 1
REMARK VINA RESULT: -7.152488204      0.000      0.000
REMARK  15 active torsions:
REMARK  status: ('A' for Active; 'I' for Inactive)
REMARK    1  A    between atoms: C2_2  and  C3_4
REMARK    2  A    between atoms: C3_4  and  C4_5
REMARK    3  A    between atoms: C4_5  and  C5_6
REMARK    4  A    between atoms: C5_6  and  S1_7
REMARK    5  A    between atoms: S1_7  and  C6_8
REMARK    6  A    between atoms: S1_7  and  C13_21
REMARK    7  A    between atoms: C6_8  and  C7_9
REMARK    8  A    between atoms: C7_9  and  C8_10
REMARK    9  A    between atoms: C8_10  and  C9_11
REMARK   10  A    between atoms: C9_11  and  C10_12
REMARK   11  A    between atoms: C12_15  and  N2_16
REMARK   12  A    between atoms: C14_23  and  C15_24
REMARK   13  A    between atoms: C15_24  and  O2_25
REMARK   14  A    between atoms: C16_27  and  O3_28
REMARK   15  A    between atoms: C17_30  and  O4_31
ROOT
HETATM    1  S1  UNL     1      14.053  39.087  -9.553  1.00  0.00    -0.189 SA
ENDROOT
BRANCH   1   2
HETATM    2  C5  UNL     1      13.098  40.577  -9.616  1.00  0.00     0.066 C
BRANCH   2   3
HETATM    3  C4  UNL     1      13.420  41.519  -8.516  1.00  0.00     0.015 C
BRANCH   3   4
HETATM    4  C3  UNL     1      14.681  42.270  -8.799  1.00  0.00     0.054 C
BRANCH   4   5
HETATM    5  C2  UNL     1      15.059  43.321  -7.846  1.00  0.00     0.015 C
HETATM    6  C1  UNL     1      16.244  43.929  -8.021  1.00  0.00     0.035 C
HETATM    7  N1  UNL     1      14.279  43.787  -6.763  1.00  0.00    -0.108 NA
ENDBRANCH   4   5
ENDBRANCH   3   4
ENDBRANCH   2   3
ENDBRANCH   1   2
BRANCH   1   8
HETATM    8  C6  UNL     1      13.462  37.974  -8.308  1.00  0.00     0.066 C
BRANCH   8   9
HETATM    9  C7  UNL     1      12.076  38.266  -7.864  1.00  0.00     0.010 C
BRANCH   9  10
HETATM   10  C8  UNL     1      12.003  38.280  -6.364  1.00  0.00     0.007 C
BRANCH  10  11
HETATM   11  C9  UNL     1      10.943  39.174  -5.873  1.00  0.00     0.057 C
BRANCH  11  12
HETATM   12  C10 UNL     1      10.523  38.829  -4.441  1.00  0.00     0.018 A
HETATM   13  C11 UNL     1       9.241  38.405  -4.242  1.00  0.00     0.078 A
HETATM   14  S2  UNL     1       9.192  38.136  -2.556  1.00  0.00    -0.064 SA
HETATM   15  C12 UNL     1      10.798  38.574  -2.196  1.00  0.00     0.142 A
HETATM   16  N3  UNL     1      11.304  38.908  -3.377  1.00  0.00    -0.340 N
ATOM     17  H3  UNL     1      12.272  39.218  -3.461  1.00  0.00     0.167 HD
BRANCH  15  18
HETATM   18  N2  UNL     1      11.427  38.592  -1.038  1.00  0.00    -0.380 N
ATOM     19  H22 UNL     1      11.395  37.871  -0.317  1.00  0.00     0.158 HD
ATOM     20  H21 UNL     1      12.047  39.300  -0.643  1.00  0.00     0.158 HD
ENDBRANCH  15  18
ENDBRANCH  11  12
ENDBRANCH  10  11
ENDBRANCH   9  10
ENDBRANCH   8   9
ENDBRANCH   1   8
BRANCH   1  21
HETATM   21  C13 UNL     1      14.115  38.233 -11.081  1.00  0.00     0.205 C
HETATM   22  O1  UNL     1      15.309  38.329 -11.749  1.00  0.00    -0.363 OA
HETATM   23  C14 UNL     1      15.459  37.152 -12.484  1.00  0.00     0.178 C
HETATM   24  C16 UNL     1      15.123  36.109 -11.410  1.00  0.00     0.181 C
HETATM   25  C17 UNL     1      13.888  36.758 -10.794  1.00  0.00     0.187 C
BRANCH  23  26
HETATM   26  C15 UNL     1      16.873  36.979 -12.966  1.00  0.00     0.198 C
BRANCH  26  27
HETATM   27  O2  UNL     1      16.886  35.978 -13.927  1.00  0.00    -0.398 OA
ATOM     28  H2  UNL     1      17.238  35.189 -13.530  1.00  0.00     0.209 HD
ENDBRANCH  26  27
ENDBRANCH  23  26
BRANCH  24  29
HETATM   29  O3  UNL     1      14.853  34.881 -11.960  1.00  0.00    -0.390 OA
ATOM     30  H3  UNL     1      13.970  34.591 -11.761  1.00  0.00     0.210 HD
ENDBRANCH  24  29
BRANCH  25  31
HETATM   31  O4  UNL     1      12.731  36.271 -11.350  1.00  0.00    -0.390 OA
ATOM     32  H4  UNL     1      12.236  35.718 -10.758  1.00  0.00     0.210 HD
ENDBRANCH  25  31
ENDBRANCH   1  21
TORSDOF 15
ENDMDL