MODEL 4
REMARK VINA RESULT: -7.112030759      3.505      9.437
REMARK  14 active torsions:
REMARK  status: ('A' for Active; 'I' for Inactive)
REMARK    1  A    between atoms: N1_2  and  C2_4
REMARK    2  A    between atoms: C3_7  and  N3_8
REMARK    3  A    between atoms: C7_16  and  S1_17
REMARK    4  A    between atoms: S1_17  and  C8_18
REMARK    5  A    between atoms: C8_18  and  C9_19
REMARK    6  A    between atoms: C9_19  and  C10_20
REMARK    7  A    between atoms: C10_20  and  C11_21
REMARK    8  A    between atoms: C11_21  and  C12_22
REMARK    9  A    between atoms: C12_22  and  N5_23
REMARK   10  A    between atoms: N5_23  and  C14_25
REMARK   11  A    between atoms: C14_25  and  C15_26
REMARK       I    between atoms: C15_26  and  N6_28
REMARK   12  A    between atoms: N6_28  and  C16_30
REMARK   13  A    between atoms: C16_30  and  C17_31
REMARK   14  A    between atoms: C17_31  and  N7_32
ROOT
HETATM    1  C2  UNL     1      13.295  37.560 -10.764  1.00  0.00     0.145 A
HETATM    2  N2  UNL     1      13.303  36.453 -11.528  1.00  0.00    -0.175 N
ATOM      3  H2  UNL     1      13.066  35.550 -11.117  1.00  0.00     0.186 HD
HETATM    4  C3  UNL     1      13.626  36.533 -12.842  1.00  0.00     0.678 A
HETATM    5  N4  UNL     1      13.939  37.708 -13.396  1.00  0.00    -0.189 N
ATOM      6  H4  UNL     1      14.178  37.742 -14.387  1.00  0.00     0.184 HD
HETATM    7  C4  UNL     1      13.947  38.857 -12.674  1.00  0.00     0.088 A
HETATM    8  C5  UNL     1      14.225  40.162 -12.998  1.00  0.00     0.001 A
HETATM    9  C6  UNL     1      14.617  40.665 -14.321  1.00  0.00     0.054 C
HETATM   10  C7  UNL     1      14.060  40.889 -11.819  1.00  0.00     0.078 A
HETATM   11  N8  UNL     1      13.699  40.047 -10.842  1.00  0.00    -0.345 N
ATOM     12  H8  UNL     1      13.512  40.311  -9.874  1.00  0.00     0.167 HD
HETATM   13  C18 UNL     1      13.621  38.786 -11.340  1.00  0.00     0.106 A
ENDROOT
BRANCH  10  14
HETATM   14  S1  UNL     1      14.313  42.634 -11.697  1.00  0.00    -0.112 SA
BRANCH  14  15
HETATM   15  C8  UNL     1      15.578  43.090 -10.494  1.00  0.00     0.081 C
BRANCH  15  16
HETATM   16  C9  UNL     1      14.998  44.071  -9.480  1.00  0.00     0.010 C
BRANCH  16  17
HETATM   17  C10 UNL     1      15.417  43.640  -8.092  1.00  0.00     0.002 C
BRANCH  17  18
HETATM   18  C11 UNL     1      14.384  42.788  -7.411  1.00  0.00     0.020 C
BRANCH  18  19
HETATM   19  C12 UNL     1      12.993  43.157  -7.841  1.00  0.00     0.122 C
BRANCH  19  20
HETATM   20  N5  UNL     1      12.106  42.059  -7.922  1.00  0.00    -0.390 N
HETATM   21  C13 UNL     1      11.306  41.996  -9.082  1.00  0.00     0.149 C
BRANCH  20  22
HETATM   22  C14 UNL     1      12.537  40.806  -7.441  1.00  0.00     0.160 C
BRANCH  22  23
HETATM   23  C15 UNL     1      11.497  39.955  -6.826  1.00  0.00     0.256 C
HETATM   24  O1  UNL     1      10.980  39.043  -7.497  1.00  0.00    -0.267 OA
HETATM   25  N6  UNL     1      11.080  40.159  -5.489  1.00  0.00    -0.355 N
ATOM     26  H6  UNL     1      11.521  40.911  -4.960  1.00  0.00     0.162 HD
BRANCH  25  27
HETATM   27  C16 UNL     1      10.074  39.372  -4.829  1.00  0.00     0.150 C
BRANCH  27  28
HETATM   28  C17 UNL     1      10.641  38.372  -3.858  1.00  0.00     0.249 C
BRANCH  28  29
HETATM   29  N7  UNL     1      11.357  39.034  -2.783  1.00  0.00    -0.078 N
ATOM     30  H73 UNL     1      11.700  39.951  -3.069  1.00  0.00     0.274 HD
ATOM     31  H72 UNL     1      10.726  39.329  -2.038  1.00  0.00     0.274 HD
ATOM     32  H71 UNL     1      12.110  38.446  -2.426  1.00  0.00     0.274 HD
ENDBRANCH  28  29
ENDBRANCH  27  28
ENDBRANCH  25  27
ENDBRANCH  22  23
ENDBRANCH  20  22
ENDBRANCH  19  20
ENDBRANCH  18  19
ENDBRANCH  17  18
ENDBRANCH  16  17
ENDBRANCH  15  16
ENDBRANCH  14  15
ENDBRANCH  10  14
BRANCH   1  33
HETATM   33  N1  UNL     1      12.990  37.530  -9.511  1.00  0.00    -0.378 N
HETATM   34  C1  UNL     1      14.017  37.518  -8.514  1.00  0.00     0.147 C
ATOM     35  H1  UNL     1      12.009  37.514  -9.228  1.00  0.00     0.160 HD
ENDBRANCH   1  33
BRANCH   4  36
HETATM   36  N3  UNL     1      13.623  35.452 -13.541  1.00  0.00    -0.234 N
ATOM     37  H32 UNL     1      14.265  34.688 -13.328  1.00  0.00     0.174 HD
ATOM     38  H31 UNL     1      12.962  35.375 -14.314  1.00  0.00     0.174 HD
ENDBRANCH   4  36
TORSDOF 14
ENDMDL