MODEL 5
REMARK VINA RESULT: -8.285924158      1.173      1.629
REMARK  12 active torsions:
REMARK  status: ('A' for Active; 'I' for Inactive)
REMARK    1  A    between atoms: N3_4  and  C2_6
REMARK    2  A    between atoms: C2_6  and  C3_7
REMARK    3  A    between atoms: C3_7  and  C4_8
REMARK    4  A    between atoms: C4_8  and  C5_9
REMARK    5  A    between atoms: C5_9  and  N4_10
REMARK    6  A    between atoms: C5_9  and  C12_18
REMARK    7  A    between atoms: N4_10  and  C6_12
REMARK    8  A    between atoms: C12_18  and  C13_20
REMARK    9  A    between atoms: C13_20  and  C14_21
REMARK   10  A    between atoms: C14_21  and  C15_22
REMARK   11  A    between atoms: C17_28  and  C18_29
REMARK   12  A    between atoms: C18_29  and  N7_30
ROOT
HETATM    1  C5  UNL     1      10.482  39.012  -4.083  1.00  0.00     0.147 C
ENDROOT
BRANCH   1   2
HETATM    2  C4  UNL     1      11.013  38.259  -5.263  1.00  0.00     0.034 C
BRANCH   2   3
HETATM    3  C3  UNL     1      11.313  39.250  -6.396  1.00  0.00     0.022 C
BRANCH   3   4
HETATM    4  C2  UNL     1      12.554  38.679  -7.090  1.00  0.00     0.122 C
BRANCH   4   5
HETATM    5  N3  UNL     1      12.293  38.346  -8.470  1.00  0.00    -0.367 N
HETATM    6  C1  UNL     1      13.163  37.728  -9.165  1.00  0.00     0.196 C
HETATM    7  N1  UNL     1      14.400  37.364  -8.575  1.00  0.00    -0.067 NA
HETATM    8  N2  UNL     1      12.972  37.371 -10.531  1.00  0.00    -0.067 NA
ATOM      9  H3  UNL     1      11.403  38.610  -8.892  1.00  0.00     0.161 HD
ENDBRANCH   4   5
ENDBRANCH   3   4
ENDBRANCH   2   3
ENDBRANCH   1   2
BRANCH   1  10
HETATM   10  N4  UNL     1      11.075  38.644  -2.870  1.00  0.00    -0.406 N
ATOM     11  H4  UNL     1      12.073  38.816  -2.750  1.00  0.00     0.154 HD
BRANCH  10  12
HETATM   12  C6  UNL     1      10.381  38.058  -1.821  1.00  0.00     0.077 C
HETATM   13  C7  UNL     1      10.714  38.659  -0.453  1.00  0.00     0.024 C
HETATM   14  C8  UNL     1       9.536  38.415   0.442  1.00  0.00     0.002 C
HETATM   15  C9  UNL     1       8.515  37.473  -0.113  1.00  0.00     0.000 C
HETATM   16  C10 UNL     1       9.056  36.277  -0.818  1.00  0.00     0.002 C
HETATM   17  C11 UNL     1      10.330  36.591  -1.636  1.00  0.00     0.024 C
ENDBRANCH  10  12
ENDBRANCH   1  10
BRANCH   1  18
HETATM   18  C12 UNL     1       8.986  38.776  -4.069  1.00  0.00     0.149 C
HETATM   19  O1  UNL     1       8.550  37.828  -4.683  1.00  0.00    -0.296 OA
BRANCH  18  20
HETATM   20  C13 UNL     1       8.074  39.668  -3.329  1.00  0.00     0.081 C
BRANCH  20  21
HETATM   21  C14 UNL     1       8.437  41.107  -3.415  1.00  0.00     0.016 C
BRANCH  21  22
HETATM   22  C15 UNL     1       7.499  42.080  -2.848  1.00  0.00     0.031 C
HETATM   23  C16 UNL     1       7.940  42.733  -1.562  1.00  0.00     0.145 C
HETATM   24  N5  UNL     1       8.967  43.616  -2.027  1.00  0.00    -0.340 N
HETATM   25  N6  UNL     1       8.711  43.965  -3.206  1.00  0.00    -0.334 N
ATOM     26  H5  UNL     1       9.779  43.915  -1.487  1.00  0.00     0.179 HD
HETATM   27  C17 UNL     1       7.514  43.379  -3.672  1.00  0.00     0.122 C
ATOM     28  H6  UNL     1       9.295  44.593  -3.758  1.00  0.00     0.180 HD
BRANCH  27  29
HETATM   29  C18 UNL     1       7.409  43.156  -5.123  1.00  0.00     0.149 C
BRANCH  29  30
HETATM   30  N7  UNL     1       8.268  44.115  -5.787  1.00  0.00    -0.365 N
HETATM   31  C19 UNL     1       9.374  43.859  -6.346  1.00  0.00     0.197 C
HETATM   32  N8  UNL     1       9.991  42.581  -6.434  1.00  0.00    -0.067 NA
HETATM   33  N9  UNL     1      10.077  44.947  -6.949  1.00  0.00    -0.067 NA
ATOM     34  H7  UNL     1       7.954  45.085  -5.804  1.00  0.00     0.161 HD
ENDBRANCH  29  30
ENDBRANCH  27  29
ENDBRANCH  21  22
ENDBRANCH  20  21
ENDBRANCH  18  20
ENDBRANCH   1  18
TORSDOF 12
ENDMDL