MODEL 2
REMARK VINA RESULT: -7.121417479      3.521     10.017
REMARK  14 active torsions:
REMARK  status: ('A' for Active; 'I' for Inactive)
REMARK    1  A    between atoms: N1_4  and  C4_5
REMARK    2  A    between atoms: C4_5  and  C5_6
REMARK    3  A    between atoms: C5_6  and  N2_7
REMARK    4  A    between atoms: N2_7  and  C6_9
REMARK    5  A    between atoms: C7_12  and  N4_13
REMARK    6  A    between atoms: C8_18  and  N6_19
REMARK    7  A    between atoms: N6_19  and  C9_21
REMARK    8  A    between atoms: C9_21  and  C10_22
REMARK    9  A    between atoms: C10_22  and  C11_23
REMARK   10  A    between atoms: C11_23  and  C12_24
REMARK   11  A    between atoms: C12_24  and  C13_25
REMARK   12  A    between atoms: C13_25  and  C14_26
REMARK   13  A    between atoms: C14_26  and  C15_27
REMARK   14  A    between atoms: C15_27  and  C16_28
ROOT
HETATM    1  C6  UNL     1      11.421  40.896  -6.672  1.00  0.00     0.711 A
HETATM    2  N3  UNL     1      11.791  39.673  -6.270  1.00  0.00    -0.021 N
ATOM      3  H3  UNL     1      12.563  39.194  -6.734  1.00  0.00     0.203 HD
HETATM    4  C7  UNL     1      11.142  39.080  -5.255  1.00  0.00     0.705 A
HETATM    5  N5  UNL     1      10.120  39.724  -4.650  1.00  0.00    -0.022 N
ATOM      6  H5  UNL     1       9.636  39.261  -3.880  1.00  0.00     0.203 HD
HETATM    7  C8  UNL     1       9.720  40.948  -5.022  1.00  0.00     0.707 A
HETATM    8  N7  UNL     1      10.384  41.537  -6.049  1.00  0.00    -0.021 N
ATOM      9  H7  UNL     1      10.107  42.469  -6.360  1.00  0.00     0.203 HD
ENDROOT
BRANCH   1  10
HETATM   10  N2  UNL     1      12.032  41.466  -7.631  1.00  0.00    -0.203 N
ATOM     11  H2  UNL     1      12.884  41.952  -7.350  1.00  0.00     0.183 HD
BRANCH  10  12
HETATM   12  C5  UNL     1      11.754  41.552  -9.004  1.00  0.00     0.098 C
BRANCH  12  13
HETATM   13  C4  UNL     1      12.977  41.376  -9.893  1.00  0.00     0.162 C
BRANCH  13  14
HETATM   14  N1  UNL     1      13.781  40.251  -9.578  1.00  0.00    -0.404 N
HETATM   15  C3  UNL     1      15.172  40.401  -9.845  1.00  0.00     0.149 C
HETATM   16  C2  UNL     1      15.407  40.000 -11.298  1.00  0.00     0.199 C
HETATM   17  C1  UNL     1      16.789  40.316 -11.771  1.00  0.00     0.041 C
HETATM   18  N8  UNL     1      15.139  38.598 -11.381  1.00  0.00    -0.064 N
HETATM   19  C18 UNL     1      13.789  38.261 -11.046  1.00  0.00     0.199 C
ATOM     20  H82 UNL     1      15.386  38.236 -12.302  1.00  0.00     0.278 HD
ATOM     21  H81 UNL     1      15.798  38.069 -10.810  1.00  0.00     0.278 HD
HETATM   22  C17 UNL     1      13.238  38.968  -9.847  1.00  0.00     0.149 C
HETATM   23  C19 UNL     1      13.759  36.749 -10.780  1.00  0.00     0.041 C
ENDBRANCH  13  14
ENDBRANCH  12  13
ENDBRANCH  10  12
ENDBRANCH   1  10
BRANCH   4  24
HETATM   24  N4  UNL     1      11.502  37.911  -4.879  1.00  0.00    -0.234 N
ATOM     25  H42 UNL     1      11.337  37.591  -3.925  1.00  0.00     0.174 HD
ATOM     26  H41 UNL     1      11.960  37.292  -5.547  1.00  0.00     0.174 HD
ENDBRANCH   4  24
BRANCH   7  27
HETATM   27  N6  UNL     1       8.749  41.555  -4.434  1.00  0.00    -0.225 N
ATOM     28  H6  UNL     1       8.380  42.425  -4.819  1.00  0.00     0.177 HD
BRANCH  27  29
HETATM   29  C9  UNL     1       8.188  40.996  -3.227  1.00  0.00     0.138 C
BRANCH  29  30
HETATM   30  C10 UNL     1       8.213  42.007  -2.094  1.00  0.00     0.020 C
BRANCH  30  31
HETATM   31  C11 UNL     1       9.372  41.727  -1.158  1.00  0.00     0.002 C
BRANCH  31  32
HETATM   32  C12 UNL     1       9.453  40.266  -0.804  1.00  0.00     0.000 C
BRANCH  32  33
HETATM   33  C13 UNL     1      10.822  39.698  -1.085  1.00  0.00     0.001 C
BRANCH  33  34
HETATM   34  C14 UNL     1      10.824  38.204  -0.918  1.00  0.00     0.010 C
BRANCH  34  35
HETATM   35  C15 UNL     1       9.406  37.674  -0.696  1.00  0.00     0.113 C
BRANCH  35  36
HETATM   36  C16 UNL     1       8.962  36.838  -1.856  1.00  0.00     0.172 C
HETATM   37  O1  UNL     1       8.515  35.686  -1.672  1.00  0.00    -0.648 OA
HETATM   38  O2  UNL     1       9.049  37.351  -3.146  1.00  0.00    -0.648 OA
ENDBRANCH  35  36
ENDBRANCH  34  35
ENDBRANCH  33  34
ENDBRANCH  32  33
ENDBRANCH  31  32
ENDBRANCH  30  31
ENDBRANCH  29  30
ENDBRANCH  27  29
ENDBRANCH   7  27
TORSDOF 14
ENDMDL