MODEL 5
REMARK VINA RESULT: -6.514633229      2.903      4.700
REMARK  11 active torsions:
REMARK  status: ('A' for Active; 'I' for Inactive)
REMARK    1  A    between atoms: C5_9  and  S1_10
REMARK    2  A    between atoms: S1_10  and  C6_13
REMARK    3  A    between atoms: C6_13  and  C7_14
REMARK    4  A    between atoms: C7_14  and  C8_15
REMARK    5  A    between atoms: C8_15  and  C9_16
REMARK    6  A    between atoms: C9_16  and  C10_17
REMARK    7  A    between atoms: C10_17  and  C11_18
REMARK    8  A    between atoms: C11_18  and  C12_19
REMARK    9  A    between atoms: C12_19  and  C13_20
REMARK   10  A    between atoms: C13_20  and  N3_21
REMARK   11  A    between atoms: C15_26  and  N6_27
REMARK       I    between atoms: N6_27  and  C16_29
ROOT
HETATM    1  N1  UNL     1      11.123  37.891  -6.155  1.00  0.00    -0.191 NA
HETATM    2  C1  UNL     1      11.543  38.767  -6.780  1.00  0.00     0.103 C
HETATM    3  C2  UNL     1      12.065  39.888  -7.521  1.00  0.00     0.088 A
HETATM    4  C3  UNL     1      11.874  41.179  -7.019  1.00  0.00     0.116 A
HETATM    5  N2  UNL     1      12.346  42.276  -7.621  1.00  0.00    -0.331 N
ATOM      6  H2  UNL     1      12.189  43.203  -7.228  1.00  0.00     0.168 HD
HETATM    7  C4  UNL     1      13.033  42.112  -8.762  1.00  0.00     0.269 A
HETATM    8  O1  UNL     1      13.469  43.166  -9.310  1.00  0.00    -0.266 OA
HETATM    9  C5  UNL     1      13.280  40.899  -9.344  1.00  0.00     0.155 A
HETATM   10  C15 UNL     1      12.775  39.761  -8.691  1.00  0.00     0.084 A
ENDROOT
BRANCH  10  11
HETATM   11  N6  UNL     1      13.010  38.541  -9.291  1.00  0.00    -0.328 N
HETATM   12  C16 UNL     1      14.018  37.595  -9.147  1.00  0.00     0.186 C
HETATM   13  N7  UNL     1      14.825  37.342 -10.111  1.00  0.00    -0.373 N
HETATM   14  N8  UNL     1      14.140  36.866  -7.938  1.00  0.00    -0.064 NA
ATOM     15  H72 UNL     1      14.737  37.866 -10.981  1.00  0.00     0.158 HD
ATOM     16  H71 UNL     1      15.564  36.647 -10.005  1.00  0.00     0.158 HD
ATOM     17  H6  UNL     1      12.302  38.281  -9.977  1.00  0.00     0.168 HD
ENDBRANCH  10  11
BRANCH   9  18
HETATM   18  S1  UNL     1      14.171  40.818 -10.809  1.00  0.00     0.183 S
HETATM   19  O2  UNL     1      15.556  40.399 -10.507  1.00  0.00    -0.222 OA
HETATM   20  O3  UNL     1      13.569  39.642 -11.610  1.00  0.00    -0.222 OA
BRANCH  18  21
HETATM   21  C6  UNL     1      14.098  42.187 -11.845  1.00  0.00     0.146 C
BRANCH  21  22
HETATM   22  C7  UNL     1      12.768  42.376 -12.487  1.00  0.00     0.015 C
BRANCH  22  23
HETATM   23  C8  UNL     1      12.711  42.484 -13.965  1.00  0.00     0.001 C
BRANCH  23  24
HETATM   24  C9  UNL     1      13.849  41.627 -14.586  1.00  0.00     0.000 C
BRANCH  24  25
HETATM   25  C10 UNL     1      13.255  40.941 -15.794  1.00  0.00     0.000 C
BRANCH  25  26
HETATM   26  C11 UNL     1      13.910  39.622 -16.064  1.00  0.00     0.002 C
BRANCH  26  27
HETATM   27  C12 UNL     1      14.569  39.102 -14.818  1.00  0.00     0.020 C
BRANCH  27  28
HETATM   28  C13 UNL     1      14.486  37.583 -14.756  1.00  0.00     0.122 C
BRANCH  28  29
HETATM   29  N3  UNL     1      14.056  37.121 -13.463  1.00  0.00    -0.367 N
HETATM   30  C14 UNL     1      13.327  36.082 -13.343  1.00  0.00     0.196 C
HETATM   31  N4  UNL     1      12.938  35.681 -12.032  1.00  0.00    -0.067 NA
HETATM   32  N5  UNL     1      12.891  35.314 -14.459  1.00  0.00    -0.067 NA
ATOM     33  H3  UNL     1      14.339  37.634 -12.627  1.00  0.00     0.161 HD
ENDBRANCH  28  29
ENDBRANCH  27  28
ENDBRANCH  26  27
ENDBRANCH  25  26
ENDBRANCH  24  25
ENDBRANCH  23  24
ENDBRANCH  22  23
ENDBRANCH  21  22
ENDBRANCH  18  21
ENDBRANCH   9  18
TORSDOF 11
ENDMDL