MODEL 5
REMARK VINA RESULT: -6.494779015      3.608      7.887
REMARK  14 active torsions:
REMARK  status: ('A' for Active; 'I' for Inactive)
REMARK    1  A    between atoms: C2_2  and  C3_3
REMARK    2  A    between atoms: C3_3  and  C4_4
REMARK    3  A    between atoms: C4_4  and  N1_5
REMARK    4  A    between atoms: N1_5  and  C5_7
REMARK    5  A    between atoms: C6_10  and  N3_11
REMARK    6  A    between atoms: N6_22  and  C10_24
REMARK    7  A    between atoms: C10_24  and  C11_25
REMARK    8  A    between atoms: C11_25  and  N7_26
REMARK    9  A    between atoms: C11_25  and  C12_30
REMARK   10  A    between atoms: C12_30  and  C13_31
REMARK   11  A    between atoms: C13_31  and  C14_32
REMARK   12  A    between atoms: C14_32  and  N8_33
REMARK   13  A    between atoms: N8_33  and  C15_34
REMARK   14  A    between atoms: N8_33  and  C17_36
ROOT
HETATM    1  C5  UNL     1      13.333  38.393 -10.042  1.00  0.00     0.680 A
HETATM    2  N2  UNL     1      14.273  39.158 -10.550  1.00  0.00    -0.175 N
ATOM      3  H2  UNL     1      14.771  38.814 -11.371  1.00  0.00     0.186 HD
HETATM    4  C6  UNL     1      14.632  40.385 -10.054  1.00  0.00     0.144 A
HETATM    5  C7  UNL     1      13.945  40.826  -8.950  1.00  0.00     0.112 A
HETATM    6  N4  UNL     1      14.212  42.017  -8.383  1.00  0.00    -0.303 N
ATOM      7  H4  UNL     1      14.941  42.615  -8.772  1.00  0.00     0.171 HD
HETATM    8  C8  UNL     1      13.518  42.419  -7.303  1.00  0.00     0.326 A
HETATM    9  O1  UNL     1      13.810  43.564  -6.797  1.00  0.00    -0.247 OA
HETATM   10  N5  UNL     1      12.573  41.666  -6.779  1.00  0.00    -0.293 N
ATOM     11  H5  UNL     1      12.077  42.018  -5.959  1.00  0.00     0.172 HD
HETATM   12  C9  UNL     1      12.212  40.420  -7.278  1.00  0.00     0.135 A
HETATM   13  N6  UNL     1      11.333  39.799  -6.727  1.00  0.00    -0.372 N
ATOM     14  H6  UNL     1      11.075  40.432  -5.971  1.00  0.00     0.161 HD
HETATM   15  C19 UNL     1      12.952  40.024  -8.409  1.00  0.00     0.123 A
HETATM   16  N9  UNL     1      12.650  38.835  -8.940  1.00  0.00    -0.186 N
ATOM     17  H9  UNL     1      11.915  38.260  -8.528  1.00  0.00     0.184 HD
ENDROOT
BRANCH  13  18
HETATM   18  C10 UNL     1      10.502  38.778  -6.522  1.00  0.00     0.154 C
BRANCH  18  19
HETATM   19  C11 UNL     1      10.389  38.345  -5.021  1.00  0.00     0.201 C
BRANCH  19  20
HETATM   20  N7  UNL     1      11.733  38.144  -4.563  1.00  0.00    -0.073 N
ATOM     21  H73 UNL     1      11.895  38.489  -3.616  1.00  0.00     0.274 HD
ATOM     22  H72 UNL     1      11.957  37.166  -4.378  1.00  0.00     0.274 HD
ATOM     23  H71 UNL     1      12.338  38.575  -5.262  1.00  0.00     0.274 HD
ENDBRANCH  19  20
BRANCH  19  24
HETATM   24  C12 UNL     1       9.603  39.406  -4.375  1.00  0.00     0.039 C
BRANCH  24  25
HETATM   25  C13 UNL     1       8.795  39.112  -3.166  1.00  0.00     0.047 C
BRANCH  25  26
HETATM   26  C14 UNL     1       9.559  39.325  -1.908  1.00  0.00     0.063 C
BRANCH  26  27
HETATM   27  N8  UNL     1       9.488  38.297  -0.955  1.00  0.00    -0.375 N
BRANCH  27  28
HETATM   28  C15 UNL     1      10.037  37.041  -1.271  1.00  0.00     0.058 C
HETATM   29  C16 UNL     1       9.117  35.857  -1.239  1.00  0.00     0.055 C
ENDBRANCH  27  28
BRANCH  27  30
HETATM   30  C17 UNL     1       9.701  38.648   0.411  1.00  0.00     0.122 C
HETATM   31  C18 UNL     1       8.609  38.192   1.342  1.00  0.00     0.027 C
ENDBRANCH  27  30
ENDBRANCH  26  27
ENDBRANCH  25  26
ENDBRANCH  24  25
ENDBRANCH  19  24
ENDBRANCH  18  19
ENDBRANCH  13  18
BRANCH   4  32
HETATM   32  N3  UNL     1      15.550  41.044 -10.613  1.00  0.00    -0.383 N
ATOM     33  H32 UNL     1      16.492  41.132 -10.233  1.00  0.00     0.157 HD
ATOM     34  H31 UNL     1      15.367  41.524 -11.495  1.00  0.00     0.157 HD
ENDBRANCH   4  32
BRANCH   1  35
HETATM   35  N1  UNL     1      12.966  37.240 -10.469  1.00  0.00    -0.226 N
ATOM     36  H1  UNL     1      12.035  36.906 -10.218  1.00  0.00     0.177 HD
BRANCH  35  37
HETATM   37  C4  UNL     1      13.786  36.406 -11.270  1.00  0.00     0.138 C
BRANCH  37  38
HETATM   38  C3  UNL     1      13.021  35.802 -12.450  1.00  0.00     0.020 C
BRANCH  38  39
HETATM   39  C2  UNL     1      13.908  36.027 -13.671  1.00  0.00    -0.003 C
HETATM   40  C1  UNL     1      14.102  37.526 -13.860  1.00  0.00     0.005 C
ENDBRANCH  38  39
ENDBRANCH  37  38
ENDBRANCH  35  37
ENDBRANCH   1  35
TORSDOF 14
ENDMDL