MODEL 1
REMARK VINA RESULT: -7.556251637      0.000      0.000
REMARK  17 active torsions:
REMARK  status: ('A' for Active; 'I' for Inactive)
REMARK    1  A    between atoms: C2_2  and  C3_3
REMARK    2  A    between atoms: C3_3  and  N1_5
REMARK    3  A    between atoms: C3_3  and  C5_9
REMARK    4  A    between atoms: C5_9  and  N2_10
REMARK    5  A    between atoms: N2_10  and  O1_11
REMARK    6  A    between atoms: N2_10  and  C6_13
REMARK    7  A    between atoms: C6_13  and  C7_14
REMARK    8  A    between atoms: C7_14  and  C8_15
REMARK    9  A    between atoms: C8_15  and  C9_16
REMARK   10  A    between atoms: C9_16  and  C10_17
REMARK   11  A    between atoms: C10_17  and  C11_18
REMARK   12  A    between atoms: C11_18  and  N3_19
REMARK   13  A    between atoms: N3_19  and  C12_21
REMARK   14  A    between atoms: C12_21  and  C13_22
REMARK   15  A    between atoms: C17_29  and  N5_30
REMARK   16  A    between atoms: C18_34  and  O2_35
REMARK   17  A    between atoms: C19_37  and  O3_38
ROOT
HETATM    1  N3  UNL     1      13.638  41.097  -8.809  1.00  0.00    -0.382 N
ATOM      2  H3  UNL     1      14.610  41.371  -8.949  1.00  0.00     0.164 HD
ENDROOT
BRANCH   1   3
HETATM    3  C11 UNL     1      12.955  41.730  -7.775  1.00  0.00     0.060 C
BRANCH   3   4
HETATM    4  C10 UNL     1      11.490  41.365  -7.666  1.00  0.00     0.044 C
BRANCH   4   5
HETATM    5  C9  UNL     1      11.281  40.531  -6.438  1.00  0.00     0.005 C
BRANCH   5   6
HETATM    6  C8  UNL     1      11.466  39.065  -6.660  1.00  0.00     0.002 C
BRANCH   6   7
HETATM    7  C7  UNL     1      11.153  38.259  -5.387  1.00  0.00     0.022 C
BRANCH   7   8
HETATM    8  C6  UNL     1      10.244  39.122  -4.578  1.00  0.00     0.155 C
BRANCH   8   9
HETATM    9  N2  UNL     1       9.124  38.469  -3.997  1.00  0.00    -0.274 N
BRANCH   9  10
HETATM   10  C5  UNL     1       8.793  38.713  -2.653  1.00  0.00     0.127 C
BRANCH  10  11
HETATM   11  C3  UNL     1       9.387  37.850  -1.610  1.00  0.00     0.153 C
HETATM   12  C4  UNL     1       8.402  37.022  -0.818  1.00  0.00     0.052 C
BRANCH  11  13
HETATM   13  C2  UNL     1      10.337  38.563  -0.696  1.00  0.00     0.039 C
HETATM   14  C1  UNL     1       9.781  38.610   0.728  1.00  0.00     0.008 C
ENDBRANCH  11  13
BRANCH  11  15
HETATM   15  N1  UNL     1      10.210  36.846  -2.332  1.00  0.00    -0.066 N
ATOM     16  H13 UNL     1      11.120  36.676  -1.903  1.00  0.00     0.275 HD
ATOM     17  H12 UNL     1       9.859  35.892  -2.251  1.00  0.00     0.275 HD
ATOM     18  H11 UNL     1      10.267  37.182  -3.293  1.00  0.00     0.275 HD
ENDBRANCH  11  15
ENDBRANCH  10  11
ENDBRANCH   9  10
BRANCH   9  19
HETATM   19  O1  UNL     1       8.489  37.722  -4.656  1.00  0.00    -0.288 OA
ATOM     20  H1  UNL     1       7.638  37.970  -4.996  1.00  0.00     0.244 HD
ENDBRANCH   9  19
ENDBRANCH   8   9
ENDBRANCH   7   8
ENDBRANCH   6   7
ENDBRANCH   5   6
ENDBRANCH   4   5
ENDBRANCH   3   4
ENDBRANCH   1   3
BRANCH   1  21
HETATM   21  C12 UNL     1      13.141  40.143  -9.660  1.00  0.00     0.067 C
BRANCH  21  22
HETATM   22  C13 UNL     1      13.999  38.957  -9.905  1.00  0.00     0.058 C
HETATM   23  C14 UNL     1      14.052  37.904  -8.858  1.00  0.00     0.243 C
HETATM   24  N4  UNL     1      14.599  36.751  -9.617  1.00  0.00    -0.070 N
HETATM   25  C15 UNL     1      13.772  36.769 -10.776  1.00  0.00     0.195 C
ATOM     26  H42 UNL     1      15.603  36.782  -9.795  1.00  0.00     0.277 HD
ATOM     27  H41 UNL     1      14.624  35.866  -9.111  1.00  0.00     0.277 HD
HETATM   28  C16 UNL     1      14.407  35.981 -11.905  1.00  0.00     0.069 C
HETATM   29  C20 UNL     1      13.540  38.194 -11.142  1.00  0.00     0.058 C
HETATM   30  C17 UNL     1      13.851  36.401 -13.252  1.00  0.00     0.216 C
HETATM   31  C18 UNL     1      14.092  37.852 -13.558  1.00  0.00     0.177 C
HETATM   32  C19 UNL     1      14.385  38.655 -12.303  1.00  0.00     0.155 C
BRANCH  30  33
HETATM   33  N5  UNL     1      14.467  35.559 -14.263  1.00  0.00    -0.072 N
ATOM     34  H53 UNL     1      15.265  35.030 -13.908  1.00  0.00     0.274 HD
ATOM     35  H52 UNL     1      13.886  34.763 -14.525  1.00  0.00     0.274 HD
ATOM     36  H51 UNL     1      14.707  36.155 -15.055  1.00  0.00     0.274 HD
ENDBRANCH  30  33
BRANCH  31  37
HETATM   37  O2  UNL     1      15.213  38.006 -14.381  1.00  0.00    -0.391 OA
ATOM     38  H2  UNL     1      15.895  37.390 -14.141  1.00  0.00     0.210 HD
ENDBRANCH  31  37
BRANCH  32  39
HETATM   39  O3  UNL     1      15.725  38.598 -11.947  1.00  0.00    -0.392 OA
ATOM     40  H3  UNL     1      16.135  39.455 -11.963  1.00  0.00     0.210 HD
ENDBRANCH  32  39
ENDBRANCH  21  22
ENDBRANCH   1  21
TORSDOF 17
ENDMDL