MODEL 2
REMARK VINA RESULT: -8.103874769      1.192      1.892
REMARK  15 active torsions:
REMARK  status: ('A' for Active; 'I' for Inactive)
REMARK    1  A    between atoms: C2_2  and  N3_14
REMARK    2  A    between atoms: N1_3  and  C3_5
REMARK    3  A    between atoms: C3_5  and  C4_6
REMARK    4  A    between atoms: C4_6  and  C5_7
REMARK    5  A    between atoms: C5_7  and  N2_8
REMARK    6  A    between atoms: N3_14  and  C11_16
REMARK    7  A    between atoms: C11_16  and  C12_17
REMARK    8  A    between atoms: C12_17  and  C13_18
REMARK    9  A    between atoms: C14_19  and  C15_20
REMARK   10  A    between atoms: C15_20  and  C16_21
REMARK   11  A    between atoms: C17_24  and  C18_25
REMARK   12  A    between atoms: C18_25  and  O1_26
REMARK   13  A    between atoms: C19_28  and  O2_29
REMARK   14  A    between atoms: C20_31  and  O3_32
REMARK   15  A    between atoms: C21_34  and  O4_35
ROOT
HETATM    1  C13 UNL     1      13.176  40.320  -9.759  1.00  0.00    -0.029 C
HETATM    2  C14 UNL     1      14.059  39.579 -10.385  1.00  0.00    -0.028 C
ENDROOT
BRANCH   1   3
HETATM    3  C12 UNL     1      13.387  41.262  -8.653  1.00  0.00     0.046 C
BRANCH   3   4
HETATM    4  C11 UNL     1      12.341  41.172  -7.593  1.00  0.00     0.124 C
BRANCH   4   5
HETATM    5  N3  UNL     1      11.659  39.922  -7.659  1.00  0.00    -0.380 N
ATOM      6  H3  UNL     1      10.970  39.778  -8.398  1.00  0.00     0.160 HD
BRANCH   5   7
HETATM    7  C2  UNL     1      11.901  38.878  -6.745  1.00  0.00     0.072 C
HETATM    8  C1  UNL     1      12.975  37.898  -7.162  1.00  0.00     0.088 C
HETATM    9  N1  UNL     1      11.354  38.640  -5.644  1.00  0.00    -0.360 N
ATOM     10  H1  UNL     1      11.722  37.805  -5.188  1.00  0.00     0.166 HD
BRANCH   9  11
HETATM   11  C3  UNL     1      10.344  39.274  -4.903  1.00  0.00     0.064 C
BRANCH  11  12
HETATM   12  C4  UNL     1       9.328  38.277  -4.356  1.00  0.00     0.074 C
BRANCH  12  13
HETATM   13  C5  UNL     1       9.115  38.384  -2.887  1.00  0.00     0.277 C
BRANCH  13  14
HETATM   14  N2  UNL     1      10.087  37.758  -2.055  1.00  0.00     0.088 N
HETATM   15  C6  UNL     1      10.777  38.796  -1.310  1.00  0.00     0.272 C
HETATM   16  C7  UNL     1       9.922  39.399  -0.232  1.00  0.00     0.030 C
HETATM   17  C8  UNL     1       9.426  38.310   0.723  1.00  0.00     0.003 C
HETATM   18  C9  UNL     1       8.623  37.339  -0.131  1.00  0.00     0.030 C
HETATM   19  C10 UNL     1       9.596  36.764  -1.156  1.00  0.00     0.272 C
ENDBRANCH  13  14
ENDBRANCH  12  13
ENDBRANCH  11  12
ENDBRANCH   9  11
ENDBRANCH   5   7
ENDBRANCH   4   5
ENDBRANCH   3   4
ENDBRANCH   1   3
BRANCH   2  20
HETATM   20  C15 UNL     1      13.660  38.657 -11.510  1.00  0.00     0.054 C
BRANCH  20  21
HETATM   21  C16 UNL     1      14.832  37.861 -12.014  1.00  0.00     0.111 C
HETATM   22  N4  UNL     1      15.016  37.934 -13.420  1.00  0.00    -0.406 N
HETATM   23  C17 UNL     1      14.333  36.978 -14.217  1.00  0.00     0.132 C
ATOM     24  H4  UNL     1      15.615  38.644 -13.841  1.00  0.00     0.154 HD
HETATM   25  C19 UNL     1      13.354  36.100 -13.539  1.00  0.00     0.173 C
HETATM   26  C20 UNL     1      13.716  35.680 -12.154  1.00  0.00     0.179 C
HETATM   27  C21 UNL     1      14.836  36.449 -11.547  1.00  0.00     0.172 C
BRANCH  23  28
HETATM   28  C18 UNL     1      15.379  36.197 -15.005  1.00  0.00     0.191 C
BRANCH  28  29
HETATM   29  O1  UNL     1      14.902  36.138 -16.324  1.00  0.00    -0.399 OA
ATOM     30  H1  UNL     1      15.549  35.644 -16.814  1.00  0.00     0.209 HD
ENDBRANCH  28  29
ENDBRANCH  23  28
BRANCH  25  31
HETATM   31  O2  UNL     1      13.245  34.918 -14.307  1.00  0.00    -0.391 OA
ATOM     32  H2  UNL     1      13.557  34.201 -13.768  1.00  0.00     0.210 HD
ENDBRANCH  25  31
BRANCH  26  33
HETATM   33  O3  UNL     1      14.030  34.323 -12.061  1.00  0.00    -0.390 OA
ATOM     34  H3  UNL     1      13.980  33.991 -11.172  1.00  0.00     0.210 HD
ENDBRANCH  26  33
BRANCH  27  35
HETATM   35  O4  UNL     1      14.693  36.396 -10.141  1.00  0.00    -0.391 OA
ATOM     36  H4  UNL     1      13.787  36.541  -9.895  1.00  0.00     0.210 HD
ENDBRANCH  27  35
ENDBRANCH  20  21
ENDBRANCH   2  20
TORSDOF 15
ENDMDL