MODEL 4
REMARK VINA RESULT: -8.073066420      2.413      6.412
REMARK  11 active torsions:
REMARK  status: ('A' for Active; 'I' for Inactive)
REMARK    1  A    between atoms: N1_1  and  C1_4
REMARK    2  A    between atoms: C4_13  and  C5_14
REMARK       I    between atoms: C5_14  and  N5_16
REMARK    3  A    between atoms: N5_16  and  C6_18
REMARK    4  A    between atoms: C6_18  and  C7_19
REMARK    5  A    between atoms: C6_18  and  C11_27
REMARK    6  A    between atoms: C7_19  and  C8_20
REMARK    7  A    between atoms: C8_20  and  C9_21
REMARK    8  A    between atoms: C9_21  and  N6_22
REMARK    9  A    between atoms: C11_27  and  C12_28
REMARK   10  A    between atoms: C12_28  and  C13_29
REMARK   11  A    between atoms: C13_29  and  N9_30
ROOT
HETATM    1  C5  UNL     1      13.059  38.246  -7.882  1.00  0.00     0.286 C
HETATM    2  O1  UNL     1      14.039  37.489  -7.693  1.00  0.00    -0.264 OA
HETATM    3  N5  UNL     1      12.799  38.819  -9.163  1.00  0.00    -0.350 N
ATOM      4  H5  UNL     1      11.996  39.433  -9.295  1.00  0.00     0.163 HD
ENDROOT
BRANCH   1   5
HETATM    5  C4  UNL     1      12.185  38.528  -6.754  1.00  0.00     0.176 A
HETATM    6  N4  UNL     1      11.926  37.760  -5.678  1.00  0.00    -0.322 N
HETATM    7  C3  UNL     1      11.064  38.379  -4.861  1.00  0.00     0.139 A
ATOM      8  H4  UNL     1      12.330  36.838  -5.509  1.00  0.00     0.169 HD
HETATM    9  N3  UNL     1      10.465  38.113  -3.690  1.00  0.00    -0.337 N
HETATM   10  C17 UNL     1      10.749  39.608  -5.439  1.00  0.00     0.122 A
HETATM   11  C2  UNL     1       9.612  38.939  -3.070  1.00  0.00     0.183 A
ATOM     12  H3  UNL     1      10.674  37.221  -3.241  1.00  0.00     0.168 HD
HETATM   13  N2  UNL     1       9.300  40.143  -3.630  1.00  0.00    -0.337 N
HETATM   14  C1  UNL     1       9.869  40.464  -4.803  1.00  0.00     0.131 A
ATOM     15  H2  UNL     1       8.653  40.783  -3.169  1.00  0.00     0.168 HD
HETATM   16  N10 UNL     1      11.456  39.641  -6.577  1.00  0.00    -0.332 N
ATOM     17  H10 UNL     1      11.441  40.421  -7.234  1.00  0.00     0.168 HD
BRANCH  14  18
HETATM   18  N1  UNL     1       9.578  41.596  -5.333  1.00  0.00    -0.383 N
ATOM     19  H12 UNL     1      10.291  42.321  -5.412  1.00  0.00     0.157 HD
ATOM     20  H11 UNL     1       8.626  41.745  -5.668  1.00  0.00     0.157 HD
ENDBRANCH  14  18
ENDBRANCH   1   5
BRANCH   3  21
HETATM   21  C6  UNL     1      13.683  38.525 -10.275  1.00  0.00     0.085 C
BRANCH  21  22
HETATM   22  C7  UNL     1      13.139  37.324 -11.002  1.00  0.00     0.027 C
BRANCH  22  23
HETATM   23  C8  UNL     1      14.175  36.259 -11.227  1.00  0.00     0.022 C
BRANCH  23  24
HETATM   24  C9  UNL     1      13.752  35.442 -12.430  1.00  0.00     0.122 C
BRANCH  24  25
HETATM   25  N6  UNL     1      14.620  35.786 -13.523  1.00  0.00    -0.367 N
HETATM   26  C10 UNL     1      14.237  35.811 -14.767  1.00  0.00     0.196 C
HETATM   27  N7  UNL     1      12.894  35.485 -15.089  1.00  0.00    -0.067 NA
HETATM   28  N8  UNL     1      15.188  36.165 -15.752  1.00  0.00    -0.067 NA
ATOM     29  H6  UNL     1      15.590  36.023 -13.313  1.00  0.00     0.161 HD
ENDBRANCH  24  25
ENDBRANCH  23  24
ENDBRANCH  22  23
ENDBRANCH  21  22
BRANCH  21  30
HETATM   30  C11 UNL     1      13.845  39.720 -11.171  1.00  0.00     0.027 C
BRANCH  30  31
HETATM   31  C12 UNL     1      15.083  40.523 -10.831  1.00  0.00     0.032 C
BRANCH  31  32
HETATM   32  C13 UNL     1      14.616  41.854 -10.322  1.00  0.00     0.272 C
BRANCH  32  33
HETATM   33  N9  UNL     1      14.622  42.029  -8.934  1.00  0.00     0.088 N
HETATM   34  C14 UNL     1      13.367  42.300  -8.262  1.00  0.00     0.274 C
HETATM   35  C15 UNL     1      14.218  42.932  -7.150  1.00  0.00     0.060 C
HETATM   36  C16 UNL     1      15.152  43.203  -8.343  1.00  0.00     0.274 C
ENDBRANCH  32  33
ENDBRANCH  31  32
ENDBRANCH  30  31
ENDBRANCH  21  30
ENDBRANCH   3  21
TORSDOF 11
ENDMDL