MODEL 4
REMARK VINA RESULT: -7.189879062      4.229     10.045
REMARK  13 active torsions:
REMARK  status: ('A' for Active; 'I' for Inactive)
REMARK    1  A    between atoms: N1_5  and  C5_6
REMARK    2  A    between atoms: C5_6  and  C6_7
REMARK    3  A    between atoms: C6_7  and  C7_8
REMARK    4  A    between atoms: N2_9  and  C8_11
REMARK    5  A    between atoms: C10_13  and  N3_14
REMARK    6  A    between atoms: N3_14  and  C11_15
REMARK    7  A    between atoms: N3_14  and  C14_18
REMARK    8  A    between atoms: C11_15  and  C12_16
REMARK    9  A    between atoms: C14_18  and  C15_19
REMARK   10  A    between atoms: C15_19  and  C16_20
REMARK   11  A    between atoms: C16_20  and  O1_21
REMARK   12  A    between atoms: C17_25  and  N5_26
REMARK   13  A    between atoms: C20_33  and  N7_34
ROOT
HETATM    1  C1  UNL     1      17.478  38.106 -13.190  1.00  0.00     0.012 C
HETATM    2  C2  UNL     1      16.548  37.982 -13.954  1.00  0.00    -0.109 C
HETATM    3  C3  UNL     1      15.393  37.814 -14.874  1.00  0.00     0.112 C
HETATM    4  C4  UNL     1      14.167  37.709 -13.933  1.00  0.00     0.141 C
HETATM    5  N1  UNL     1      13.978  36.330 -13.729  1.00  0.00    -0.392 N
HETATM    6  C18 UNL     1      13.371  35.751 -14.903  1.00  0.00     0.124 C
HETATM    7  C19 UNL     1      14.386  35.819 -16.017  1.00  0.00     0.054 C
HETATM    8  C20 UNL     1      15.645  36.537 -15.611  1.00  0.00     0.202 C
ENDROOT
BRANCH   8   9
HETATM    9  N7  UNL     1      16.382  36.851 -16.819  1.00  0.00    -0.074 N
ATOM     10  H73 UNL     1      15.909  37.543 -17.400  1.00  0.00     0.274 HD
ATOM     11  H72 UNL     1      17.232  37.383 -16.634  1.00  0.00     0.274 HD
ATOM     12  H71 UNL     1      16.564  35.979 -17.315  1.00  0.00     0.274 HD
ENDBRANCH   8   9
BRANCH   5  13
HETATM   13  C5  UNL     1      13.594  35.794 -12.512  1.00  0.00     0.063 C
BRANCH  13  14
HETATM   14  C6  UNL     1      13.270  36.610 -11.346  1.00  0.00     0.088 C
BRANCH  14  15
HETATM   15  C7  UNL     1      14.363  36.783 -10.335  1.00  0.00     0.067 C
HETATM   16  N2  UNL     1      14.118  37.364  -9.138  1.00  0.00    -0.355 N
ATOM     17  H2  UNL     1      14.809  36.930  -8.525  1.00  0.00     0.166 HD
BRANCH  16  18
HETATM   18  C8  UNL     1      13.518  38.127  -8.388  1.00  0.00     0.124 A
HETATM   19  C9  UNL     1      13.332  39.482  -8.769  1.00  0.00     0.098 A
HETATM   20  C10 UNL     1      12.679  40.372  -7.973  1.00  0.00     0.122 A
HETATM   21  N4  UNL     1      12.210  39.925  -6.799  1.00  0.00    -0.177 N
HETATM   22  C17 UNL     1      12.382  38.631  -6.427  1.00  0.00     0.679 A
ATOM     23  H4  UNL     1      11.716  40.565  -6.178  1.00  0.00     0.185 HD
HETATM   24  N6  UNL     1      13.024  37.741  -7.201  1.00  0.00    -0.177 N
ATOM     25  H6  UNL     1      13.136  36.777  -6.889  1.00  0.00     0.185 HD
BRANCH  20  26
HETATM   26  N3  UNL     1      12.468  41.758  -8.355  1.00  0.00    -0.367 N
BRANCH  26  27
HETATM   27  C11 UNL     1      13.612  42.517  -8.733  1.00  0.00     0.124 C
BRANCH  27  28
HETATM   28  C12 UNL     1      14.442  43.002  -7.598  1.00  0.00     0.015 C
HETATM   29  C13 UNL     1      15.688  43.743  -7.938  1.00  0.00     0.006 C
ENDBRANCH  27  28
ENDBRANCH  26  27
BRANCH  26  30
HETATM   30  C14 UNL     1      11.129  42.295  -8.329  1.00  0.00     0.126 C
BRANCH  30  31
HETATM   31  C15 UNL     1      10.702  42.605  -9.777  1.00  0.00     0.046 C
BRANCH  31  32
HETATM   32  C16 UNL     1       9.512  43.551  -9.771  1.00  0.00     0.165 C
BRANCH  32  33
HETATM   33  O1  UNL     1       8.676  43.129 -10.800  1.00  0.00    -0.401 OA
ATOM     34  H1  UNL     1       8.192  43.898 -11.079  1.00  0.00     0.209 HD
ENDBRANCH  32  33
ENDBRANCH  31  32
ENDBRANCH  30  31
ENDBRANCH  26  30
ENDBRANCH  20  26
BRANCH  22  35
HETATM   35  N5  UNL     1      11.906  38.244  -5.274  1.00  0.00    -0.234 N
ATOM     36  H52 UNL     1      12.379  38.535  -4.419  1.00  0.00     0.174 HD
ATOM     37  H51 UNL     1      11.071  37.660  -5.263  1.00  0.00     0.174 HD
ENDBRANCH  22  35
ENDBRANCH  16  18
ENDBRANCH  14  15
ENDBRANCH  13  14
ENDBRANCH   5  13
TORSDOF 13
ENDMDL