MODEL 2
REMARK VINA RESULT: -7.860426518      0.894      1.214
REMARK  14 active torsions:
REMARK  status: ('A' for Active; 'I' for Inactive)
REMARK    1  A    between atoms: N1_1  and  C1_4
REMARK    2  A    between atoms: C3_8  and  C4_9
REMARK    3  A    between atoms: C4_9  and  C5_10
REMARK    4  A    between atoms: C5_10  and  O1_11
REMARK    5  A    between atoms: O1_11  and  C6_12
REMARK       I    between atoms: N3_15  and  C9_16
REMARK       I    between atoms: C9_16  and  N4_18
REMARK    6  A    between atoms: N4_18  and  C10_20
REMARK    7  A    between atoms: C10_20  and  C11_21
REMARK    8  A    between atoms: C11_21  and  C12_22
REMARK    9  A    between atoms: C12_22  and  O3_23
REMARK   10  A    between atoms: O3_23  and  C13_24
REMARK   11  A    between atoms: C13_24  and  C14_25
REMARK   12  A    between atoms: C14_25  and  C15_26
REMARK   13  A    between atoms: C15_26  and  O4_27
REMARK   14  A    between atoms: C18_31  and  N5_32
ROOT
HETATM    1  C6  UNL     1      13.729  39.186  -8.966  1.00  0.00     0.124 C
HETATM    2  C7  UNL     1      12.762  40.312  -9.354  1.00  0.00     0.052 C
HETATM    3  C8  UNL     1      12.547  41.105  -8.099  1.00  0.00     0.130 C
HETATM    4  N3  UNL     1      11.969  40.251  -7.093  1.00  0.00    -0.334 N
HETATM    5  C9  UNL     1      10.992  40.845  -6.213  1.00  0.00     0.318 C
HETATM    6  O2  UNL     1      10.718  42.050  -6.402  1.00  0.00    -0.247 OA
HETATM    7  N4  UNL     1      10.372  40.114  -5.188  1.00  0.00    -0.343 N
ATOM      8  H4  UNL     1      10.629  39.135  -5.066  1.00  0.00     0.164 HD
HETATM    9  C16 UNL     1      12.299  38.863  -6.910  1.00  0.00     0.130 C
HETATM   10  C17 UNL     1      13.031  38.214  -8.037  1.00  0.00     0.052 C
ENDROOT
BRANCH   1  11
HETATM   11  O1  UNL     1      14.096  38.571 -10.135  1.00  0.00    -0.385 OA
BRANCH  11  12
HETATM   12  C5  UNL     1      13.571  37.321 -10.312  1.00  0.00     0.173 C
BRANCH  12  13
HETATM   13  C4  UNL     1      14.568  36.276 -10.737  1.00  0.00     0.070 C
BRANCH  13  14
HETATM   14  C3  UNL     1      14.611  36.154 -12.218  1.00  0.00     0.004 A
HETATM   15  C2  UNL     1      13.532  35.666 -12.942  1.00  0.00     0.117 A
HETATM   16  N2  UNL     1      13.574  35.560 -14.286  1.00  0.00    -0.202 N
HETATM   17  C1  UNL     1      14.661  35.921 -14.987  1.00  0.00     0.677 A
ATOM     18  H2  UNL     1      12.759  35.197 -14.782  1.00  0.00     0.183 HD
HETATM   19  N6  UNL     1      15.709  36.394 -14.296  1.00  0.00    -0.177 N
HETATM   20  C18 UNL     1      15.719  36.520 -12.954  1.00  0.00     0.122 A
ATOM     21  H6  UNL     1      16.543  36.673 -14.814  1.00  0.00     0.185 HD
BRANCH  17  22
HETATM   22  N1  UNL     1      14.704  35.818 -16.287  1.00  0.00    -0.234 N
ATOM     23  H12 UNL     1      14.413  36.592 -16.884  1.00  0.00     0.174 HD
ATOM     24  H11 UNL     1      15.027  34.967 -16.747  1.00  0.00     0.174 HD
ENDBRANCH  17  22
BRANCH  20  25
HETATM   25  N5  UNL     1      16.751  36.980 -12.327  1.00  0.00    -0.385 N
ATOM     26  H52 UNL     1      17.222  36.435 -11.605  1.00  0.00     0.157 HD
ATOM     27  H51 UNL     1      17.092  37.911 -12.568  1.00  0.00     0.157 HD
ENDBRANCH  20  25
ENDBRANCH  13  14
ENDBRANCH  12  13
ENDBRANCH  11  12
ENDBRANCH   1  11
BRANCH   7  28
HETATM   28  C10 UNL     1       9.401  40.679  -4.309  1.00  0.00     0.126 C
BRANCH  28  29
HETATM   29  C11 UNL     1       8.403  39.649  -3.754  1.00  0.00     0.046 C
BRANCH  29  30
HETATM   30  C12 UNL     1       8.912  38.320  -4.115  1.00  0.00     0.169 C
BRANCH  30  31
HETATM   31  O3  UNL     1       9.604  37.545  -3.317  1.00  0.00    -0.391 OA
BRANCH  31  32
HETATM   32  C13 UNL     1       9.419  37.259  -2.043  1.00  0.00     0.169 C
BRANCH  32  33
HETATM   33  C14 UNL     1      10.503  37.622  -1.053  1.00  0.00     0.052 C
BRANCH  33  34
HETATM   34  C15 UNL     1      10.934  39.056  -1.147  1.00  0.00     0.166 C
BRANCH  34  35
HETATM   35  O4  UNL     1      11.763  39.152  -2.279  1.00  0.00    -0.401 OA
ATOM     36  H4  UNL     1      12.657  39.165  -1.958  1.00  0.00     0.209 HD
ENDBRANCH  34  35
ENDBRANCH  33  34
ENDBRANCH  32  33
ENDBRANCH  31  32
ENDBRANCH  30  31
ENDBRANCH  29  30
ENDBRANCH  28  29
ENDBRANCH   7  28
TORSDOF 14
ENDMDL