MODEL 3
REMARK VINA RESULT: -8.215727556      3.849      9.824
REMARK  13 active torsions:
REMARK  status: ('A' for Active; 'I' for Inactive)
REMARK    1  A    between atoms: C2_2  and  C3_3
REMARK    2  A    between atoms: C3_3  and  C4_4
REMARK    3  A    between atoms: C4_4  and  C5_5
REMARK    4  A    between atoms: C5_5  and  C6_6
REMARK    5  A    between atoms: C6_6  and  C7_7
REMARK    6  A    between atoms: C7_7  and  C8_8
REMARK    7  A    between atoms: C8_8  and  C9_9
REMARK    8  A    between atoms: C9_9  and  N1_10
REMARK    9  A    between atoms: N1_10  and  C10_12
REMARK   10  A    between atoms: C11_15  and  N3_16
REMARK   11  A    between atoms: C12_21  and  N5_22
REMARK   12  A    between atoms: N5_22  and  O1_24
REMARK   13  A    between atoms: O1_24  and  C13_25
ROOT
HETATM    1  C10 UNL     1      12.547  38.672  -8.306  1.00  0.00     0.707 A
HETATM    2  N2  UNL     1      12.143  39.937  -8.469  1.00  0.00    -0.022 N
ATOM      3  H2  UNL     1      12.237  40.386  -9.380  1.00  0.00     0.203 HD
HETATM    4  C11 UNL     1      11.615  40.621  -7.441  1.00  0.00     0.705 A
HETATM    5  N4  UNL     1      11.473  40.066  -6.224  1.00  0.00    -0.020 N
ATOM      6  H4  UNL     1      11.071  40.590  -5.447  1.00  0.00     0.203 HD
HETATM    7  C12 UNL     1      11.881  38.794  -6.068  1.00  0.00     0.731 A
HETATM    8  N8  UNL     1      12.418  38.098  -7.112  1.00  0.00    -0.020 N
ATOM      9  H8  UNL     1      12.723  37.134  -6.977  1.00  0.00     0.203 HD
ENDROOT
BRANCH   7  10
HETATM   10  N5  UNL     1      11.768  38.223  -4.932  1.00  0.00    -0.094 N
ATOM     11  H5  UNL     1      12.608  37.919  -4.439  1.00  0.00     0.213 HD
BRANCH  10  12
HETATM   12  O1  UNL     1      10.554  38.013  -4.369  1.00  0.00    -0.241 OA
BRANCH  12  13
HETATM   13  C13 UNL     1      10.112  38.804  -3.298  1.00  0.00     0.336 C
HETATM   14  C14 UNL     1       8.712  38.409  -3.004  1.00  0.00     0.266 C
HETATM   15  O2  UNL     1       7.793  39.180  -3.370  1.00  0.00    -0.270 OA
HETATM   16  N6  UNL     1       8.485  37.181  -2.324  1.00  0.00    -0.276 N
HETATM   17  C15 UNL     1       9.482  36.588  -1.489  1.00  0.00     0.329 C
ATOM     18  H6  UNL     1       7.587  36.711  -2.435  1.00  0.00     0.173 HD
HETATM   19  O3  UNL     1       9.254  35.503  -0.901  1.00  0.00    -0.247 OA
HETATM   20  N7  UNL     1      10.708  37.308  -1.388  1.00  0.00    -0.276 N
HETATM   21  C16 UNL     1      10.924  38.535  -2.073  1.00  0.00     0.266 C
ATOM     22  H7  UNL     1      11.455  36.930  -0.806  1.00  0.00     0.173 HD
HETATM   23  O4  UNL     1      11.760  39.391  -1.693  1.00  0.00    -0.270 OA
ENDBRANCH  12  13
ENDBRANCH  10  12
ENDBRANCH   7  10
BRANCH   4  24
HETATM   24  N3  UNL     1      11.227  41.835  -7.594  1.00  0.00    -0.234 N
ATOM     25  H32 UNL     1      11.660  42.382  -8.337  1.00  0.00     0.174 HD
ATOM     26  H31 UNL     1      10.509  42.231  -6.988  1.00  0.00     0.174 HD
ENDBRANCH   4  24
BRANCH   1  27
HETATM   27  N1  UNL     1      13.046  38.068  -9.333  1.00  0.00    -0.225 N
ATOM     28  H1  UNL     1      12.533  38.106 -10.213  1.00  0.00     0.177 HD
BRANCH  27  29
HETATM   29  C9  UNL     1      14.299  37.342  -9.297  1.00  0.00     0.138 C
BRANCH  29  30
HETATM   30  C8  UNL     1      14.455  36.607 -10.589  1.00  0.00     0.020 C
BRANCH  30  31
HETATM   31  C7  UNL     1      13.180  36.617 -11.431  1.00  0.00     0.002 C
BRANCH  31  32
HETATM   32  C6  UNL     1      13.352  35.565 -12.475  1.00  0.00     0.000 C
BRANCH  32  33
HETATM   33  C5  UNL     1      13.400  36.137 -13.899  1.00  0.00     0.000 C
BRANCH  33  34
HETATM   34  C4  UNL     1      14.799  36.358 -14.347  1.00  0.00     0.000 C
BRANCH  34  35
HETATM   35  C3  UNL     1      15.250  37.757 -14.345  1.00  0.00    -0.000 C
BRANCH  35  36
HETATM   36  C2  UNL     1      14.258  38.854 -14.252  1.00  0.00    -0.005 C
HETATM   37  C1  UNL     1      14.299  39.744 -13.070  1.00  0.00     0.005 C
ENDBRANCH  35  36
ENDBRANCH  34  35
ENDBRANCH  33  34
ENDBRANCH  32  33
ENDBRANCH  31  32
ENDBRANCH  30  31
ENDBRANCH  29  30
ENDBRANCH  27  29
ENDBRANCH   1  27
TORSDOF 13
ENDMDL