MODEL 2
REMARK VINA RESULT: -7.551688668      1.998      3.567
REMARK  11 active torsions:
REMARK  status: ('A' for Active; 'I' for Inactive)
REMARK    1  A    between atoms: N1_2  and  C2_3
REMARK    2  A    between atoms: C2_3  and  C3_4
REMARK    3  A    between atoms: C3_4  and  C4_5
REMARK    4  A    between atoms: C4_5  and  C5_6
REMARK    5  A    between atoms: C5_6  and  C6_7
REMARK    6  A    between atoms: C6_7  and  O1_8
REMARK    7  A    between atoms: O1_8  and  S1_9
REMARK    8  A    between atoms: S1_9  and  N2_10
REMARK    9  A    between atoms: C7_17  and  C8_18
REMARK   10  A    between atoms: C8_18  and  C9_19
REMARK   11  A    between atoms: C10_24  and  C11_25
ROOT
HETATM    1  C1  UNL     1      17.433  39.924 -12.397  1.00  0.00     0.313 C
HETATM    2  N1  UNL     1      15.969  39.985 -12.266  1.00  0.00     0.070 N
HETATM    3  N3  UNL     1      15.577  38.894 -11.551  1.00  0.00    -0.215 N
ATOM      4  H3  UNL     1      15.981  38.823 -10.617  1.00  0.00     0.194 HD
HETATM    5  C7  UNL     1      14.795  37.962 -11.860  1.00  0.00     0.045 C
HETATM    6  C10 UNL     1      14.127  37.943 -13.196  1.00  0.00     0.168 C
HETATM    7  N8  UNL     1      14.179  39.289 -13.783  1.00  0.00    -0.340 N
ATOM      8  H8  UNL     1      13.419  39.640 -14.367  1.00  0.00     0.163 HD
HETATM    9  C14 UNL     1      15.325  40.085 -13.510  1.00  0.00     0.299 C
HETATM   10  N9  UNL     1      15.727  40.885 -14.444  1.00  0.00    -0.363 N
ATOM     11  H91 UNL     1      15.259  40.959 -15.347  1.00  0.00     0.159 HD
ATOM     12  H92 UNL     1      16.549  41.457 -14.248  1.00  0.00     0.159 HD
ENDROOT
BRANCH   2  13
HETATM   13  C2  UNL     1      15.722  41.155 -11.428  1.00  0.00     0.275 C
BRANCH  13  14
HETATM   14  C3  UNL     1      15.599  40.793  -9.983  1.00  0.00     0.031 C
BRANCH  14  15
HETATM   15  C4  UNL     1      14.487  41.598  -9.357  1.00  0.00     0.004 C
BRANCH  15  16
HETATM   16  C5  UNL     1      13.147  40.936  -9.397  1.00  0.00     0.028 C
BRANCH  16  17
HETATM   17  C6  UNL     1      12.566  41.015  -7.994  1.00  0.00     0.192 C
BRANCH  17  18
HETATM   18  O1  UNL     1      12.864  39.822  -7.329  1.00  0.00    -0.260 OA
BRANCH  18  19
HETATM   19  S1  UNL     1      11.545  39.208  -6.527  1.00  0.00     0.355 S
HETATM   20  O2  UNL     1      10.623  40.285  -6.068  1.00  0.00    -0.176 OA
HETATM   21  O3  UNL     1      10.779  38.347  -7.505  1.00  0.00    -0.176 OA
BRANCH  19  22
HETATM   22  N2  UNL     1      11.983  38.202  -5.206  1.00  0.00    -0.306 N
ATOM     23  H22 UNL     1      12.877  37.714  -5.155  1.00  0.00     0.171 HD
ATOM     24  H21 UNL     1      11.256  38.153  -4.492  1.00  0.00     0.171 HD
ENDBRANCH  19  22
ENDBRANCH  18  19
ENDBRANCH  17  18
ENDBRANCH  16  17
ENDBRANCH  15  16
ENDBRANCH  14  15
ENDBRANCH  13  14
ENDBRANCH   2  13
BRANCH   5  25
HETATM   25  C8  UNL     1      14.500  36.850 -10.914  1.00  0.00     0.129 C
BRANCH  25  26
HETATM   26  C9  UNL     1      13.811  37.267  -9.684  1.00  0.00     0.092 C
HETATM   27  N4  UNL     1      12.607  37.682  -9.712  1.00  0.00    -0.391 N
ATOM     28  H42 UNL     1      12.098  37.705 -10.596  1.00  0.00     0.157 HD
ATOM     29  H41 UNL     1      12.128  37.972  -8.859  1.00  0.00     0.157 HD
HETATM   30  N5  UNL     1      14.514  37.236  -8.463  1.00  0.00    -0.088 NA
ENDBRANCH  25  26
ENDBRANCH   5  25
BRANCH   6  31
HETATM   31  C11 UNL     1      14.802  36.978 -14.114  1.00  0.00     0.004 A
HETATM   32  C12 UNL     1      14.192  36.111 -14.989  1.00  0.00     0.118 A
HETATM   33  N6  UNL     1      15.140  35.423 -15.627  1.00  0.00    -0.312 N
HETATM   34  N7  UNL     1      16.321  35.809 -15.204  1.00  0.00    -0.312 N
ATOM     35  H6  UNL     1      14.972  34.708 -16.335  1.00  0.00     0.186 HD
HETATM   36  C13 UNL     1      16.153  36.777 -14.261  1.00  0.00     0.118 A
ATOM     37  H7  UNL     1      17.216  35.444 -15.528  1.00  0.00     0.186 HD
ENDBRANCH   6  31
TORSDOF 11
ENDMDL