MODEL 5
REMARK VINA RESULT: -7.950204139      1.176      1.671
REMARK  10 active torsions:
REMARK  status: ('A' for Active; 'I' for Inactive)
REMARK    1  A    between atoms: C2_2  and  C3_3
REMARK    2  A    between atoms: C3_3  and  C4_4
REMARK    3  A    between atoms: C4_4  and  N1_5
REMARK    4  A    between atoms: N1_5  and  C5_7
REMARK    5  A    between atoms: C7_12  and  S1_13
REMARK    6  A    between atoms: S1_13  and  C8_14
REMARK    7  A    between atoms: C8_14  and  C9_15
REMARK    8  A    between atoms: N5_22  and  C13_24
REMARK    9  A    between atoms: C13_24  and  C14_25
REMARK   10  A    between atoms: C14_25  and  N6_26
REMARK       I    between atoms: N6_26  and  C15_28
ROOT
HETATM    1  C5  UNL     1      11.213  38.617  -4.873  1.00  0.00     0.681 A
HETATM    2  N2  UNL     1      10.805  39.855  -5.171  1.00  0.00    -0.177 N
ATOM      3  H2  UNL     1      10.155  40.318  -4.536  1.00  0.00     0.185 HD
HETATM    4  C6  UNL     1      11.215  40.529  -6.286  1.00  0.00     0.152 A
HETATM    5  N3  UNL     1      10.737  41.844  -6.532  1.00  0.00    -0.081 NA
HETATM    6  C7  UNL     1      12.086  39.949  -7.167  1.00  0.00     0.086 A
HETATM    7  C12 UNL     1      12.520  38.645  -6.858  1.00  0.00     0.137 A
HETATM    8  N5  UNL     1      13.317  37.981  -7.556  1.00  0.00    -0.373 N
ATOM      9  H5  UNL     1      13.505  37.060  -7.159  1.00  0.00     0.161 HD
HETATM   10  N9  UNL     1      12.060  38.036  -5.717  1.00  0.00    -0.176 N
ATOM     11  H9  UNL     1      12.383  37.091  -5.508  1.00  0.00     0.186 HD
ENDROOT
BRANCH   6  12
HETATM   12  S1  UNL     1      12.665  40.736  -8.619  1.00  0.00    -0.121 SA
BRANCH  12  13
HETATM   13  C8  UNL     1      13.882  42.003  -8.385  1.00  0.00     0.112 C
BRANCH  13  14
HETATM   14  C9  UNL     1      15.094  41.740  -9.309  1.00  0.00     0.197 C
HETATM   15  C10 UNL     1      16.135  42.855  -9.245  1.00  0.00     0.061 C
HETATM   16  C11 UNL     1      16.229  42.602 -10.740  1.00  0.00     0.235 C
HETATM   17  N4  UNL     1      14.828  42.192 -10.667  1.00  0.00    -0.070 N
ATOM     18  H42 UNL     1      14.427  41.563 -11.362  1.00  0.00     0.277 HD
ATOM     19  H41 UNL     1      14.076  42.853 -10.863  1.00  0.00     0.277 HD
ENDBRANCH  13  14
ENDBRANCH  12  13
ENDBRANCH   6  12
BRANCH   8  20
HETATM   20  C13 UNL     1      14.007  38.192  -8.741  1.00  0.00     0.141 C
BRANCH  20  21
HETATM   21  C14 UNL     1      13.734  37.076  -9.774  1.00  0.00     0.142 C
BRANCH  21  22
HETATM   22  N6  UNL     1      13.059  37.688 -10.879  1.00  0.00    -0.363 N
HETATM   23  C15 UNL     1      13.704  38.112 -12.065  1.00  0.00     0.183 C
HETATM   24  N7  UNL     1      14.132  39.451 -12.241  1.00  0.00    -0.064 NA
HETATM   25  N8  UNL     1      13.907  37.269 -13.003  1.00  0.00    -0.369 N
HETATM   26  C16 UNL     1      13.475  35.901 -12.833  1.00  0.00     0.148 C
ATOM     27  H8  UNL     1      14.371  37.559 -13.864  1.00  0.00     0.161 HD
ATOM     28  H6  UNL     1      12.051  37.828 -10.805  1.00  0.00     0.162 HD
ENDBRANCH  21  22
ENDBRANCH  20  21
ENDBRANCH   8  20
BRANCH   1  29
HETATM   29  N1  UNL     1      10.779  38.036  -3.802  1.00  0.00    -0.226 N
ATOM     30  H1  UNL     1      11.466  37.518  -3.255  1.00  0.00     0.177 HD
BRANCH  29  31
HETATM   31  C4  UNL     1       9.451  38.042  -3.307  1.00  0.00     0.138 C
BRANCH  31  32
HETATM   32  C3  UNL     1       9.317  37.477  -1.912  1.00  0.00     0.020 C
BRANCH  32  33
HETATM   33  C2  UNL     1      10.348  38.047  -0.971  1.00  0.00    -0.003 C
HETATM   34  C1  UNL     1       9.717  38.623   0.276  1.00  0.00     0.005 C
ENDBRANCH  32  33
ENDBRANCH  31  32
ENDBRANCH  29  31
ENDBRANCH   1  29
TORSDOF 10
ENDMDL