MODEL 4
REMARK VINA RESULT: -6.931816708      3.576      9.852
REMARK  11 active torsions:
REMARK  status: ('A' for Active; 'I' for Inactive)
REMARK    1  A    between atoms: C2_2  and  S1_3
REMARK    2  A    between atoms: S1_3  and  C3_4
REMARK    3  A    between atoms: C3_4  and  C4_5
REMARK    4  A    between atoms: C4_5  and  N1_6
REMARK    5  A    between atoms: N1_6  and  C5_9
REMARK    6  A    between atoms: C5_9  and  C6_10
REMARK    7  A    between atoms: C6_10  and  N2_11
REMARK    8  A    between atoms: N2_11  and  S2_13
REMARK    9  A    between atoms: S2_13  and  N3_16
REMARK   10  A    between atoms: N3_16  and  C7_18
REMARK   11  A    between atoms: C13_26  and  N5_27
ROOT
HETATM    1  N3  UNL     1      14.146  39.474  -9.811  1.00  0.00    -0.292 N
ATOM      2  H3  UNL     1      14.854  40.183  -9.619  1.00  0.00     0.174 HD
ENDROOT
BRANCH   1   3
HETATM    3  S2  UNL     1      13.511  38.437  -8.588  1.00  0.00     0.315 S
HETATM    4  O1  UNL     1      12.280  37.782  -9.203  1.00  0.00    -0.183 OA
HETATM    5  O2  UNL     1      14.445  37.320  -8.248  1.00  0.00    -0.183 OA
BRANCH   3   6
HETATM    6  N2  UNL     1      12.975  39.265  -7.193  1.00  0.00    -0.301 N
ATOM      7  H2  UNL     1      13.613  39.709  -6.532  1.00  0.00     0.173 HD
BRANCH   6   8
HETATM    8  C6  UNL     1      11.551  39.280  -7.036  1.00  0.00     0.161 C
BRANCH   8   9
HETATM    9  C5  UNL     1      11.108  40.325  -6.036  1.00  0.00     0.252 C
BRANCH   9  10
HETATM   10  N1  UNL     1      11.096  39.732  -4.716  1.00  0.00    -0.073 N
ATOM     11  H12 UNL     1      10.738  40.388  -4.021  1.00  0.00     0.277 HD
ATOM     12  H11 UNL     1      12.043  39.615  -4.355  1.00  0.00     0.277 HD
BRANCH  10  13
HETATM   13  C4  UNL     1      10.364  38.482  -4.682  1.00  0.00     0.242 C
BRANCH  13  14
HETATM   14  C3  UNL     1       9.276  38.466  -3.668  1.00  0.00     0.101 C
BRANCH  14  15
HETATM   15  S1  UNL     1       9.948  38.835  -2.036  1.00  0.00    -0.168 SA
BRANCH  15  16
HETATM   16  C2  UNL     1       9.527  37.631  -0.777  1.00  0.00     0.069 C
HETATM   17  C1  UNL     1       9.636  36.203  -1.199  1.00  0.00     0.016 C
ENDBRANCH  15  16
ENDBRANCH  14  15
ENDBRANCH  13  14
ENDBRANCH  10  13
ENDBRANCH   9  10
ENDBRANCH   8   9
ENDBRANCH   6   8
ENDBRANCH   3   6
ENDBRANCH   1   3
BRANCH   1  18
HETATM   18  C7  UNL     1      13.603  39.260 -11.115  1.00  0.00     0.145 C
HETATM   19  C8  UNL     1      13.924  40.408 -12.087  1.00  0.00     0.032 C
HETATM   20  C9  UNL     1      15.369  40.632 -12.303  1.00  0.00     0.007 C
HETATM   21  C10 UNL     1      16.269  39.517 -11.842  1.00  0.00     0.046 C
HETATM   22  C11 UNL     1      15.594  38.232 -12.062  1.00  0.00     0.036 A
HETATM   23  C12 UNL     1      14.277  38.079 -11.708  1.00  0.00     0.061 A
HETATM   24  C14 UNL     1      16.244  37.157 -12.618  1.00  0.00     0.267 A
HETATM   25  N4  UNL     1      13.620  36.907 -11.897  1.00  0.00    -0.193 N
HETATM   26  C13 UNL     1      14.303  35.871 -12.450  1.00  0.00     0.679 A
ATOM     27  H4  UNL     1      12.640  36.808 -11.631  1.00  0.00     0.184 HD
HETATM   28  N6  UNL     1      15.595  35.971 -12.812  1.00  0.00    -0.156 N
ATOM     29  H6  UNL     1      16.081  35.175 -13.225  1.00  0.00     0.187 HD
HETATM   30  O3  UNL     1      17.457  37.316 -12.937  1.00  0.00    -0.267 OA
BRANCH  26  31
HETATM   31  N5  UNL     1      13.701  34.732 -12.643  1.00  0.00    -0.234 N
ATOM     32  H52 UNL     1      12.688  34.741 -12.767  1.00  0.00     0.174 HD
ATOM     33  H51 UNL     1      14.246  33.870 -12.667  1.00  0.00     0.174 HD
ENDBRANCH  26  31
ENDBRANCH   1  18
TORSDOF 11
ENDMDL