MODEL 1
REMARK VINA RESULT: -7.012956009      0.000      0.000
REMARK  12 active torsions:
REMARK  status: ('A' for Active; 'I' for Inactive)
REMARK    1  A    between atoms: O1_2  and  C2_3
REMARK    2  A    between atoms: C2_3  and  C3_4
REMARK    3  A    between atoms: N2_9  and  C5_10
REMARK    4  A    between atoms: C5_10  and  C6_11
REMARK    5  A    between atoms: C6_11  and  N3_12
REMARK    6  A    between atoms: N3_12  and  C7_15
REMARK    7  A    between atoms: C7_15  and  C8_16
REMARK    8  A    between atoms: C8_16  and  C9_17
REMARK    9  A    between atoms: C9_17  and  C10_18
REMARK   10  A    between atoms: C10_18  and  N4_19
REMARK   11  A    between atoms: C16_27  and  N6_28
REMARK   12  A    between atoms: C17_33  and  N8_34
ROOT
HETATM    1  C3  UNL     1      13.864  41.841  -9.755  1.00  0.00     0.150 C
HETATM    2  N1  UNL     1      13.849  41.928  -8.285  1.00  0.00    -0.332 N
ATOM      3  H1  UNL     1      14.503  42.555  -7.816  1.00  0.00     0.165 HD
HETATM    4  C4  UNL     1      12.952  41.166  -7.510  1.00  0.00     0.324 C
HETATM    5  O2  UNL     1      12.547  41.522  -6.399  1.00  0.00    -0.247 OA
HETATM    6  N2  UNL     1      12.485  39.911  -8.035  1.00  0.00    -0.283 N
HETATM    7  C15 UNL     1      12.987  39.569  -9.337  1.00  0.00     0.139 A
HETATM    8  N5  UNL     1      12.815  38.278  -9.763  1.00  0.00    -0.176 N
ATOM      9  H5  UNL     1      12.192  37.656  -9.248  1.00  0.00     0.186 HD
HETATM   10  C16 UNL     1      13.461  37.818 -10.855  1.00  0.00     0.679 A
HETATM   11  N7  UNL     1      14.284  38.619 -11.546  1.00  0.00    -0.177 N
ATOM     12  H7  UNL     1      14.761  38.244 -12.365  1.00  0.00     0.186 HD
HETATM   13  C17 UNL     1      14.506  39.919 -11.192  1.00  0.00     0.127 A
HETATM   14  C18 UNL     1      13.829  40.369 -10.073  1.00  0.00     0.056 A
ENDROOT
BRANCH   6  15
HETATM   15  C5  UNL     1      11.585  39.062  -7.328  1.00  0.00     0.163 C
BRANCH  15  16
HETATM   16  C6  UNL     1      12.286  38.101  -6.393  1.00  0.00     0.252 C
BRANCH  16  17
HETATM   17  N3  UNL     1      11.658  38.079  -5.089  1.00  0.00    -0.074 N
ATOM     18  H32 UNL     1      11.379  37.133  -4.828  1.00  0.00     0.277 HD
ATOM     19  H31 UNL     1      12.334  38.256  -4.347  1.00  0.00     0.277 HD
BRANCH  17  20
HETATM   20  C7  UNL     1      10.553  38.988  -5.015  1.00  0.00     0.232 C
BRANCH  20  21
HETATM   21  C8  UNL     1       9.363  38.388  -4.344  1.00  0.00     0.029 C
BRANCH  21  22
HETATM   22  C9  UNL     1       9.484  38.438  -2.861  1.00  0.00     0.032 C
BRANCH  22  23
HETATM   23  C10 UNL     1       9.686  37.058  -2.262  1.00  0.00     0.272 C
BRANCH  23  24
HETATM   24  N4  UNL     1       9.693  37.117  -0.808  1.00  0.00     0.088 N
HETATM   25  C11 UNL     1       8.333  37.178  -0.284  1.00  0.00     0.272 C
HETATM   26  C12 UNL     1       8.595  37.609   1.143  1.00  0.00     0.032 C
HETATM   27  C13 UNL     1       9.549  38.775   0.902  1.00  0.00     0.032 C
HETATM   28  C14 UNL     1      10.270  38.373  -0.345  1.00  0.00     0.272 C
ENDBRANCH  23  24
ENDBRANCH  22  23
ENDBRANCH  21  22
ENDBRANCH  20  21
ENDBRANCH  17  20
ENDBRANCH  16  17
ENDBRANCH  15  16
ENDBRANCH   6  15
BRANCH   1  29
HETATM   29  C2  UNL     1      12.553  42.542 -10.106  1.00  0.00     0.197 C
BRANCH  29  30
HETATM   30  O1  UNL     1      12.072  42.640 -11.305  1.00  0.00    -0.394 OA
HETATM   31  C1  UNL     1      12.635  43.072 -12.424  1.00  0.00     0.201 C
ENDBRANCH  29  30
ENDBRANCH   1  29
BRANCH  10  32
HETATM   32  N6  UNL     1      13.269  36.591 -11.220  1.00  0.00    -0.234 N
ATOM     33  H62 UNL     1      12.368  36.136 -11.069  1.00  0.00     0.174 HD
ATOM     34  H61 UNL     1      14.037  36.086 -11.662  1.00  0.00     0.174 HD
ENDBRANCH  10  32
BRANCH  13  35
HETATM   35  N8  UNL     1      15.322  40.640 -11.872  1.00  0.00    -0.384 N
ATOM     36  H82 UNL     1      15.044  41.212 -12.670  1.00  0.00     0.157 HD
ATOM     37  H81 UNL     1      16.307  40.680 -11.611  1.00  0.00     0.157 HD
ENDBRANCH  13  35
TORSDOF 12
ENDMDL