MODEL 1
REMARK VINA RESULT: -7.882749555      0.000      0.000
REMARK  14 active torsions:
REMARK  status: ('A' for Active; 'I' for Inactive)
REMARK    1  A    between atoms: C2_2  and  N1_3
REMARK    2  A    between atoms: N1_3  and  C3_4
REMARK    3  A    between atoms: N1_3  and  C6_11
REMARK    4  A    between atoms: C3_4  and  C4_5
REMARK    5  A    between atoms: C4_5  and  C5_6
REMARK    6  A    between atoms: C5_6  and  N2_7
REMARK    7  A    between atoms: C6_11  and  C7_12
REMARK    8  A    between atoms: C7_12  and  N3_13
REMARK    9  A    between atoms: N3_13  and  C8_15
REMARK   10  A    between atoms: C12_19  and  N4_20
REMARK   11  A    between atoms: C14_25  and  N6_26
REMARK   12  A    between atoms: N6_26  and  C15_28
REMARK   13  A    between atoms: C15_28  and  C16_29
REMARK   14  A    between atoms: C16_29  and  C17_30
ROOT
HETATM    1  C8  UNL     1      14.021  37.888  -9.105  1.00  0.00     0.106 A
HETATM    2  C9  UNL     1      13.831  39.205  -9.565  1.00  0.00     0.050 A
HETATM    3  C10 UNL     1      13.104  40.132  -8.853  1.00  0.00     0.023 A
HETATM    4  C11 UNL     1      12.549  39.771  -7.664  1.00  0.00     0.053 A
HETATM    5  C12 UNL     1      11.805  40.667  -6.895  1.00  0.00     0.134 A
HETATM    6  N5  UNL     1      11.323  40.127  -5.717  1.00  0.00    -0.176 N
ATOM      7  H5  UNL     1      10.770  40.739  -5.115  1.00  0.00     0.186 HD
HETATM    8  C14 UNL     1      11.516  38.895  -5.306  1.00  0.00     0.681 A
HETATM    9  N9  UNL     1      12.225  38.053  -6.048  1.00  0.00    -0.176 N
ATOM     10  H9  UNL     1      12.379  37.094  -5.736  1.00  0.00     0.186 HD
HETATM   11  C18 UNL     1      12.741  38.483  -7.222  1.00  0.00     0.136 A
HETATM   12  N10 UNL     1      13.456  37.591  -7.933  1.00  0.00    -0.327 N
ATOM     13  H10 UNL     1      13.569  36.649  -7.561  1.00  0.00     0.169 HD
ENDROOT
BRANCH   1  14
HETATM   14  N3  UNL     1      14.672  37.130  -9.789  1.00  0.00    -0.354 N
ATOM     15  H3  UNL     1      15.582  37.084  -9.331  1.00  0.00     0.166 HD
BRANCH  14  16
HETATM   16  C7  UNL     1      14.788  36.300 -10.880  1.00  0.00     0.082 C
BRANCH  16  17
HETATM   17  C6  UNL     1      13.598  36.252 -11.766  1.00  0.00     0.171 C
BRANCH  17  18
HETATM   18  N1  UNL     1      13.794  36.673 -13.130  1.00  0.00    -0.370 N
BRANCH  18  19
HETATM   19  C2  UNL     1      14.760  37.684 -13.230  1.00  0.00     0.059 C
HETATM   20  C1  UNL     1      14.171  39.087 -13.315  1.00  0.00     0.055 C
ENDBRANCH  18  19
BRANCH  18  21
HETATM   21  C3  UNL     1      13.418  35.858 -14.169  1.00  0.00     0.065 C
BRANCH  21  22
HETATM   22  C4  UNL     1      14.292  35.851 -15.367  1.00  0.00     0.072 C
BRANCH  22  23
HETATM   23  C5  UNL     1      13.765  35.402 -16.667  1.00  0.00     0.234 C
BRANCH  23  24
HETATM   24  N2  UNL     1      13.812  33.968 -16.887  1.00  0.00    -0.079 N
ATOM     25  H23 UNL     1      13.102  33.502 -16.323  1.00  0.00     0.274 HD
ATOM     26  H22 UNL     1      13.473  33.744 -17.822  1.00  0.00     0.274 HD
ATOM     27  H21 UNL     1      14.723  33.536 -16.731  1.00  0.00     0.274 HD
ENDBRANCH  23  24
ENDBRANCH  22  23
ENDBRANCH  21  22
ENDBRANCH  18  21
ENDBRANCH  17  18
ENDBRANCH  16  17
ENDBRANCH  14  16
ENDBRANCH   1  14
BRANCH   5  28
HETATM   28  N4  UNL     1      11.557  41.826  -7.167  1.00  0.00    -0.361 N
HETATM   29  C13 UNL     1      10.707  42.741  -7.662  1.00  0.00     0.120 C
ATOM     30  H4  UNL     1      12.385  42.351  -6.887  1.00  0.00     0.165 HD
ENDBRANCH   5  28
BRANCH   8  31
HETATM   31  N6  UNL     1      11.040  38.457  -4.185  1.00  0.00    -0.226 N
ATOM     32  H6  UNL     1      11.700  38.103  -3.493  1.00  0.00     0.177 HD
BRANCH  31  33
HETATM   33  C15 UNL     1       9.652  38.438  -3.855  1.00  0.00     0.145 C
BRANCH  33  34
HETATM   34  C16 UNL     1       9.461  38.404  -2.353  1.00  0.00     0.092 C
BRANCH  34  35
HETATM   35  C17 UNL     1       9.539  37.050  -1.806  1.00  0.00     0.088 C
HETATM   36  N7  UNL     1      10.614  36.635  -1.251  1.00  0.00    -0.391 N
ATOM     37  H72 UNL     1      11.425  37.251  -1.192  1.00  0.00     0.157 HD
ATOM     38  H71 UNL     1      10.668  35.690  -0.870  1.00  0.00     0.157 HD
HETATM   39  N8  UNL     1       8.414  36.196  -1.887  1.00  0.00    -0.088 NA
ENDBRANCH  34  35
ENDBRANCH  33  34
ENDBRANCH  31  33
ENDBRANCH   8  31
TORSDOF 14
ENDMDL