MODEL 3
REMARK VINA RESULT: -6.754492503      1.100      1.706
REMARK  14 active torsions:
REMARK  status: ('A' for Active; 'I' for Inactive)
REMARK    1  A    between atoms: C2_2  and  C3_3
REMARK    2  A    between atoms: C3_3  and  N1_4
REMARK    3  A    between atoms: N1_4  and  C4_5
REMARK    4  A    between atoms: N1_4  and  C14_27
REMARK    5  A    between atoms: C4_5  and  C5_6
REMARK    6  A    between atoms: C5_6  and  C6_7
REMARK    7  A    between atoms: C6_7  and  O1_8
REMARK    8  A    between atoms: O1_8  and  C7_9
REMARK    9  A    between atoms: C8_10  and  C9_11
REMARK   10  A    between atoms: C9_11  and  O2_12
REMARK   11  A    between atoms: C10_17  and  C11_18
REMARK   12  A    between atoms: C11_18  and  O3_19
REMARK   13  A    between atoms: C12_21  and  O4_22
REMARK   14  A    between atoms: C13_24  and  O5_25
ROOT
HETATM    1  C7  UNL     1      12.506  40.316  -7.492  1.00  0.00     0.185 C
HETATM    2  C8  UNL     1      11.175  40.932  -7.188  1.00  0.00     0.241 C
HETATM    3  N2  UNL     1      10.919  40.777  -5.753  1.00  0.00    -0.058 N
ATOM      4  H21 UNL     1      10.151  41.355  -5.411  1.00  0.00     0.278 HD
ATOM      5  H22 UNL     1      11.648  41.179  -5.163  1.00  0.00     0.278 HD
HETATM    6  C10 UNL     1      10.715  39.353  -5.536  1.00  0.00     0.240 C
HETATM    7  C12 UNL     1      11.943  38.555  -5.906  1.00  0.00     0.182 C
HETATM    8  C13 UNL     1      12.236  38.787  -7.388  1.00  0.00     0.180 C
ENDROOT
BRANCH   1   9
HETATM    9  O1  UNL     1      12.975  40.639  -8.723  1.00  0.00    -0.381 OA
BRANCH   9  10
HETATM   10  C6  UNL     1      14.205  41.209  -8.823  1.00  0.00     0.173 C
BRANCH  10  11
HETATM   11  C5  UNL     1      15.092  40.723  -9.943  1.00  0.00     0.070 C
BRANCH  11  12
HETATM   12  C4  UNL     1      14.162  40.590 -11.145  1.00  0.00     0.060 C
BRANCH  12  13
HETATM   13  N1  UNL     1      14.635  39.686 -12.108  1.00  0.00    -0.389 N
BRANCH  13  14
HETATM   14  C3  UNL     1      15.252  40.229 -13.263  1.00  0.00     0.122 C
BRANCH  14  15
HETATM   15  C2  UNL     1      16.690  40.504 -13.281  1.00  0.00     0.015 C
HETATM   16  C1  UNL     1      17.631  39.582 -12.620  1.00  0.00     0.006 C
ENDBRANCH  14  15
ENDBRANCH  13  14
BRANCH  13  17
HETATM   17  C14 UNL     1      13.887  38.494 -12.347  1.00  0.00     0.083 C
HETATM   18  C15 UNL     1      13.438  37.727 -11.181  1.00  0.00     0.025 C
HETATM   19  C16 UNL     1      14.327  36.654 -10.668  1.00  0.00     0.002 C
HETATM   20  C17 UNL     1      14.632  35.567 -11.652  1.00  0.00     0.000 C
HETATM   21  C18 UNL     1      13.620  35.418 -12.734  1.00  0.00     0.000 C
HETATM   22  C19 UNL     1      13.542  36.511 -13.731  1.00  0.00     0.002 C
HETATM   23  C20 UNL     1      14.495  37.638 -13.444  1.00  0.00     0.025 C
ENDBRANCH  13  17
ENDBRANCH  12  13
ENDBRANCH  11  12
ENDBRANCH  10  11
ENDBRANCH   9  10
ENDBRANCH   1   9
BRANCH   2  24
HETATM   24  C9  UNL     1      10.965  42.320  -7.656  1.00  0.00     0.199 C
BRANCH  24  25
HETATM   25  O2  UNL     1      11.989  43.157  -7.232  1.00  0.00    -0.399 OA
ATOM     26  H2  UNL     1      11.891  44.032  -7.589  1.00  0.00     0.209 HD
ENDBRANCH  24  25
ENDBRANCH   2  24
BRANCH   8  27
HETATM   27  O5  UNL     1      13.302  38.055  -7.835  1.00  0.00    -0.390 OA
ATOM     28  H5  UNL     1      13.499  38.243  -8.745  1.00  0.00     0.210 HD
ENDBRANCH   8  27
BRANCH   7  29
HETATM   29  O4  UNL     1      11.722  37.217  -5.697  1.00  0.00    -0.391 OA
ATOM     30  H4  UNL     1      10.963  36.928  -6.190  1.00  0.00     0.210 HD
ENDBRANCH   7  29
BRANCH   6  31
HETATM   31  C11 UNL     1      10.334  39.064  -4.117  1.00  0.00     0.199 C
BRANCH  31  32
HETATM   32  O3  UNL     1      11.468  38.998  -3.336  1.00  0.00    -0.399 OA
ATOM     33  H3  UNL     1      11.800  39.875  -3.179  1.00  0.00     0.209 HD
ENDBRANCH  31  32
ENDBRANCH   6  31
TORSDOF 14
ENDMDL