MODEL 5
REMARK VINA RESULT: -6.868148628      3.677      5.437
REMARK  16 active torsions:
REMARK  status: ('A' for Active; 'I' for Inactive)
REMARK    1  A    between atoms: C3_3  and  C4_4
REMARK    2  A    between atoms: C4_4  and  N1_5
REMARK    3  A    between atoms: N1_5  and  C5_6
REMARK    4  A    between atoms: N1_5  and  C8_13
REMARK    5  A    between atoms: C5_6  and  C6_7
REMARK    6  A    between atoms: C6_7  and  C7_8
REMARK    7  A    between atoms: C7_8  and  N2_9
REMARK    8  A    between atoms: C8_13  and  C9_14
REMARK    9  A    between atoms: C9_14  and  C10_15
REMARK   10  A    between atoms: C10_15  and  O1_16
REMARK   11  A    between atoms: C12_23  and  N5_24
REMARK       I    between atoms: N7_30  and  C14_32
REMARK       I    between atoms: C14_32  and  N8_34
REMARK   12  A    between atoms: N8_34  and  C15_36
REMARK   13  A    between atoms: C15_36  and  C16_37
REMARK   14  A    between atoms: C16_37  and  C17_38
REMARK   15  A    between atoms: C17_38  and  C18_39
REMARK   16  A    between atoms: C18_39  and  N9_40
ROOT
HETATM    1  C1  UNL     1      14.476  38.741 -10.559  1.00  0.00     0.051 C
HETATM    2  C2  UNL     1      13.650  39.821  -9.974  1.00  0.00    -0.027 A
HETATM    3  C3  UNL     1      13.647  41.045 -10.591  1.00  0.00     0.056 A
HETATM    4  N3  UNL     1      12.875  41.983 -10.018  1.00  0.00    -0.340 N
ATOM      5  H3  UNL     1      12.857  42.902 -10.459  1.00  0.00     0.167 HD
HETATM    6  C11 UNL     1      12.132  41.820  -8.925  1.00  0.00     0.136 A
HETATM    7  N4  UNL     1      11.383  42.814  -8.415  1.00  0.00    -0.176 N
ATOM      8  H4  UNL     1      11.378  43.726  -8.871  1.00  0.00     0.186 HD
HETATM    9  C12 UNL     1      10.641  42.620  -7.315  1.00  0.00     0.679 A
HETATM   10  N6  UNL     1      10.643  41.427  -6.712  1.00  0.00    -0.176 N
ATOM     11  H6  UNL     1      10.078  41.283  -5.874  1.00  0.00     0.186 HD
HETATM   12  C13 UNL     1      11.387  40.411  -7.201  1.00  0.00     0.139 A
HETATM   13  N7  UNL     1      11.386  39.281  -6.629  1.00  0.00    -0.293 N
ATOM     14  H7  UNL     1      11.973  38.569  -7.062  1.00  0.00     0.172 HD
HETATM   15  C14 UNL     1      10.690  38.873  -5.485  1.00  0.00     0.321 C
HETATM   16  O2  UNL     1       9.872  37.942  -5.579  1.00  0.00    -0.247 OA
HETATM   17  N8  UNL     1      10.914  39.510  -4.249  1.00  0.00    -0.343 N
ATOM     18  H8  UNL     1      11.592  40.270  -4.187  1.00  0.00     0.164 HD
HETATM   19  C19 UNL     1      12.162  40.563  -8.326  1.00  0.00     0.060 A
HETATM   20  C20 UNL     1      12.913  39.518  -8.817  1.00  0.00    -0.036 A
HETATM   21  C21 UNL     1      12.962  38.183  -8.208  1.00  0.00     0.050 C
ENDROOT
BRANCH   3  22
HETATM   22  C4  UNL     1      14.461  41.301 -11.803  1.00  0.00     0.120 C
BRANCH  22  23
HETATM   23  N1  UNL     1      15.728  41.842 -11.631  1.00  0.00    -0.368 N
BRANCH  23  24
HETATM   24  C5  UNL     1      15.960  43.014 -10.916  1.00  0.00     0.065 C
BRANCH  24  25
HETATM   25  C6  UNL     1      16.546  42.872  -9.545  1.00  0.00     0.072 C
BRANCH  25  26
HETATM   26  C7  UNL     1      15.689  43.443  -8.458  1.00  0.00     0.234 C
BRANCH  26  27
HETATM   27  N2  UNL     1      16.550  44.314  -7.650  1.00  0.00    -0.079 N
ATOM     28  H23 UNL     1      17.397  43.849  -7.322  1.00  0.00     0.274 HD
ATOM     29  H22 UNL     1      17.007  45.045  -8.194  1.00  0.00     0.274 HD
ATOM     30  H21 UNL     1      15.972  44.679  -6.892  1.00  0.00     0.274 HD
ENDBRANCH  26  27
ENDBRANCH  25  26
ENDBRANCH  24  25
ENDBRANCH  23  24
BRANCH  23  31
HETATM   31  C8  UNL     1      16.757  41.427 -12.535  1.00  0.00     0.129 C
BRANCH  31  32
HETATM   32  C9  UNL     1      17.587  40.281 -12.035  1.00  0.00     0.046 C
BRANCH  32  33
HETATM   33  C10 UNL     1      17.409  39.142 -13.047  1.00  0.00     0.165 C
BRANCH  33  34
HETATM   34  O1  UNL     1      17.578  37.901 -12.423  1.00  0.00    -0.401 OA
ATOM     35  H1  UNL     1      16.865  37.316 -12.649  1.00  0.00     0.209 HD
ENDBRANCH  33  34
ENDBRANCH  32  33
ENDBRANCH  31  32
ENDBRANCH  23  31
ENDBRANCH  22  23
ENDBRANCH   3  22
BRANCH   9  36
HETATM   36  N5  UNL     1       9.917  43.616  -6.843  1.00  0.00    -0.234 N
ATOM     37  H52 UNL     1       8.898  43.565  -6.839  1.00  0.00     0.174 HD
ATOM     38  H51 UNL     1      10.385  44.444  -6.476  1.00  0.00     0.174 HD
ENDBRANCH   9  36
BRANCH  17  39
HETATM   39  C15 UNL     1      10.192  39.096  -3.071  1.00  0.00     0.124 C
BRANCH  39  40
HETATM   40  C16 UNL     1      11.037  39.105  -1.846  1.00  0.00     0.021 C
BRANCH  40  41
HETATM   41  C17 UNL     1      10.284  38.353  -0.746  1.00  0.00     0.029 C
BRANCH  41  42
HETATM   42  C18 UNL     1       9.253  37.468  -1.384  1.00  0.00     0.229 C
BRANCH  42  43
HETATM   43  N9  UNL     1       9.620  36.079  -1.142  1.00  0.00    -0.079 N
ATOM     44  H93 UNL     1      10.609  35.898  -1.320  1.00  0.00     0.274 HD
ATOM     45  H92 UNL     1       9.611  35.838  -0.151  1.00  0.00     0.274 HD
ATOM     46  H91 UNL     1       9.007  35.479  -1.696  1.00  0.00     0.274 HD
ENDBRANCH  42  43
ENDBRANCH  41  42
ENDBRANCH  40  41
ENDBRANCH  39  40
ENDBRANCH  17  39
TORSDOF 16
ENDMDL