MODEL 2
REMARK VINA RESULT: -8.035872699      3.279      8.412
REMARK  16 active torsions:
REMARK  status: ('A' for Active; 'I' for Inactive)
REMARK    1  A    between atoms: C2_2  and  N1_3
REMARK       I    between atoms: N1_3  and  C3_5
REMARK       I    between atoms: C3_5  and  N2_7
REMARK    2  A    between atoms: N2_7  and  C4_9
REMARK    3  A    between atoms: C4_9  and  C5_10
REMARK    4  A    between atoms: C5_10  and  C6_11
REMARK    5  A    between atoms: C6_11  and  C7_12
REMARK    6  A    between atoms: C7_12  and  N3_13
REMARK    7  A    between atoms: C9_18  and  N5_19
REMARK    8  A    between atoms: N5_19  and  C10_21
REMARK    9  A    between atoms: C10_21  and  C11_22
REMARK   10  A    between atoms: C11_22  and  C12_23
REMARK   11  A    between atoms: C12_23  and  N6_24
REMARK   12  A    between atoms: C13_30  and  N8_31
REMARK   13  A    between atoms: N8_31  and  N9_33
REMARK   14  A    between atoms: N9_33  and  C14_35
REMARK   15  A    between atoms: C14_35  and  C15_36
REMARK   16  A    between atoms: C15_36  and  N10_37
ROOT
HETATM    1  N3  UNL     1      13.841  38.505 -10.047  1.00  0.00    -0.225 N
ATOM      2  H3  UNL     1      14.075  39.182 -10.774  1.00  0.00     0.177 HD
HETATM    3  C8  UNL     1      13.345  38.949  -8.966  1.00  0.00     0.707 A
HETATM    4  N4  UNL     1      13.156  40.307  -8.846  1.00  0.00    -0.022 N
ATOM      5  H4  UNL     1      13.421  40.910  -9.625  1.00  0.00     0.203 HD
HETATM    6  C9  UNL     1      12.640  40.862  -7.750  1.00  0.00     0.707 A
HETATM    7  N7  UNL     1      12.290  40.061  -6.718  1.00  0.00    -0.020 N
ATOM      8  H7  UNL     1      11.894  40.479  -5.876  1.00  0.00     0.203 HD
HETATM    9  C13 UNL     1      12.450  38.738  -6.776  1.00  0.00     0.725 A
HETATM   10  N11 UNL     1      12.982  38.201  -7.914  1.00  0.00    -0.020 N
ATOM     11  H11 UNL     1      13.109  37.190  -7.966  1.00  0.00     0.203 HD
ENDROOT
BRANCH   1  12
HETATM   12  C7  UNL     1      14.092  37.140 -10.314  1.00  0.00     0.138 C
BRANCH  12  13
HETATM   13  C6  UNL     1      13.143  36.708 -11.420  1.00  0.00     0.022 C
BRANCH  13  14
HETATM   14  C5  UNL     1      13.886  35.823 -12.415  1.00  0.00     0.021 C
BRANCH  14  15
HETATM   15  C4  UNL     1      13.703  36.474 -13.762  1.00  0.00     0.124 C
BRANCH  15  16
HETATM   16  N2  UNL     1      13.348  35.484 -14.734  1.00  0.00    -0.343 N
HETATM   17  C3  UNL     1      14.133  35.278 -15.887  1.00  0.00     0.316 C
HETATM   18  N1  UNL     1      13.731  34.273 -16.798  1.00  0.00    -0.344 N
HETATM   19  O1  UNL     1      15.165  35.929 -16.156  1.00  0.00    -0.247 OA
ATOM     20  H1  UNL     1      12.893  33.722 -16.609  1.00  0.00     0.164 HD
ATOM     21  H2  UNL     1      12.512  34.918 -14.589  1.00  0.00     0.164 HD
BRANCH  18  22
HETATM   22  C2  UNL     1      14.497  34.026 -17.985  1.00  0.00     0.120 C
HETATM   23  C1  UNL     1      15.316  32.759 -17.853  1.00  0.00     0.026 C
ENDBRANCH  18  22
ENDBRANCH  15  16
ENDBRANCH  14  15
ENDBRANCH  13  14
ENDBRANCH  12  13
ENDBRANCH   1  12
BRANCH   6  24
HETATM   24  N5  UNL     1      12.457  42.124  -7.621  1.00  0.00    -0.225 N
ATOM     25  H5  UNL     1      12.620  42.591  -6.730  1.00  0.00     0.177 HD
BRANCH  24  26
HETATM   26  C10 UNL     1      12.016  42.861  -8.774  1.00  0.00     0.139 C
BRANCH  26  27
HETATM   27  C11 UNL     1      10.677  42.468  -9.295  1.00  0.00     0.047 C
BRANCH  27  28
HETATM   28  C12 UNL     1      10.093  43.596 -10.106  1.00  0.00     0.231 C
BRANCH  28  29
HETATM   29  N6  UNL     1       8.820  43.169 -10.638  1.00  0.00    -0.079 N
ATOM     30  H63 UNL     1       8.461  42.336 -10.171  1.00  0.00     0.274 HD
ATOM     31  H62 UNL     1       8.061  43.804 -10.394  1.00  0.00     0.274 HD
ATOM     32  H61 UNL     1       8.916  43.042 -11.645  1.00  0.00     0.274 HD
ENDBRANCH  28  29
ENDBRANCH  27  28
ENDBRANCH  26  27
ENDBRANCH  24  26
ENDBRANCH   6  24
BRANCH   9  33
HETATM   33  N8  UNL     1      12.125  37.926  -5.819  1.00  0.00    -0.135 N
ATOM     34  H8  UNL     1      12.323  36.927  -5.868  1.00  0.00     0.205 HD
BRANCH  33  35
HETATM   35  N9  UNL     1      11.488  38.502  -4.717  1.00  0.00    -0.321 N
ATOM     36  H9  UNL     1      12.029  38.920  -3.960  1.00  0.00     0.180 HD
BRANCH  35  37
HETATM   37  C14 UNL     1      10.042  38.489  -4.676  1.00  0.00     0.170 C
BRANCH  37  38
HETATM   38  C15 UNL     1       9.587  39.240  -3.471  1.00  0.00     0.293 C
BRANCH  38  39
HETATM   39  N10 UNL     1       9.836  38.512  -2.250  1.00  0.00     0.090 N
HETATM   40  C16 UNL     1       9.198  37.237  -2.242  1.00  0.00     0.272 C
HETATM   41  C17 UNL     1       9.172  36.533  -0.936  1.00  0.00     0.030 C
HETATM   42  C18 UNL     1       8.837  37.446   0.226  1.00  0.00     0.003 C
HETATM   43  C19 UNL     1       9.892  38.547   0.203  1.00  0.00     0.030 C
HETATM   44  C20 UNL     1       9.726  39.296  -1.075  1.00  0.00     0.272 C
ENDBRANCH  38  39
ENDBRANCH  37  38
ENDBRANCH  35  37
ENDBRANCH  33  35
ENDBRANCH   9  33
TORSDOF 16
ENDMDL