MODEL 4
REMARK VINA RESULT: -6.937719315      0.918      1.273
REMARK  16 active torsions:
REMARK  status: ('A' for Active; 'I' for Inactive)
REMARK       I    between atoms: C1_2  and  N3_23
REMARK       I    between atoms: N2_3  and  C2_5
REMARK    1  A    between atoms: C2_5  and  C3_7
REMARK    2  A    between atoms: C3_7  and  C4_8
REMARK    3  A    between atoms: C5_10  and  C6_11
REMARK    4  A    between atoms: C6_11  and  O3_12
REMARK    5  A    between atoms: C7_14  and  O4_15
REMARK    6  A    between atoms: C8_17  and  O5_18
REMARK    7  A    between atoms: C9_20  and  O6_21
REMARK    8  A    between atoms: N3_23  and  C10_25
REMARK    9  A    between atoms: C10_25  and  C11_26
REMARK   10  A    between atoms: C11_26  and  C12_27
REMARK   11  A    between atoms: C12_27  and  C13_28
REMARK   12  A    between atoms: C13_28  and  C14_29
REMARK   13  A    between atoms: C14_29  and  C15_30
REMARK   14  A    between atoms: C15_30  and  C16_31
REMARK   15  A    between atoms: C16_31  and  N4_32
REMARK   16  A    between atoms: N4_32  and  C17_34
ROOT
HETATM    1  N1  UNL     1      13.017  36.431 -11.322  1.00  0.00    -0.063 NA
HETATM    2  C1  UNL     1      14.408  36.491 -11.065  1.00  0.00     0.190 C
HETATM    3  N2  UNL     1      14.924  37.057 -10.021  1.00  0.00    -0.301 N
ATOM      4  H2  UNL     1      15.939  37.053  -9.919  1.00  0.00     0.171 HD
HETATM    5  C2  UNL     1      14.142  37.688  -9.004  1.00  0.00     0.226 C
HETATM    6  O1  UNL     1      14.036  37.056  -7.927  1.00  0.00    -0.273 OA
HETATM    7  N3  UNL     1      15.267  35.881 -12.052  1.00  0.00    -0.364 N
ATOM      8  H3  UNL     1      15.308  34.866 -12.152  1.00  0.00     0.162 HD
ENDROOT
BRANCH   5   9
HETATM    9  C3  UNL     1      13.554  38.983  -9.317  1.00  0.00     0.137 C
BRANCH   9  10
HETATM   10  C4  UNL     1      12.744  39.630  -8.241  1.00  0.00     0.162 C
HETATM   11  O2  UNL     1      11.562  38.987  -7.977  1.00  0.00    -0.373 OA
HETATM   12  C5  UNL     1      11.069  39.355  -6.744  1.00  0.00     0.176 C
HETATM   13  C7  UNL     1      11.250  40.826  -6.423  1.00  0.00     0.180 C
HETATM   14  C8  UNL     1      11.420  41.644  -7.688  1.00  0.00     0.180 C
HETATM   15  C9  UNL     1      12.670  41.110  -8.375  1.00  0.00     0.178 C
BRANCH  12  16
HETATM   16  C6  UNL     1      11.653  38.522  -5.627  1.00  0.00     0.198 C
BRANCH  16  17
HETATM   17  O3  UNL     1      11.810  37.183  -6.053  1.00  0.00    -0.398 OA
ATOM     18  H3  UNL     1      11.677  36.591  -5.322  1.00  0.00     0.209 HD
ENDBRANCH  16  17
ENDBRANCH  12  16
BRANCH  13  19
HETATM   19  O4  UNL     1      10.180  41.327  -5.689  1.00  0.00    -0.390 OA
ATOM     20  H4  UNL     1      10.406  41.442  -4.774  1.00  0.00     0.210 HD
ENDBRANCH  13  19
BRANCH  14  21
HETATM   21  O5  UNL     1      10.312  41.616  -8.503  1.00  0.00    -0.390 OA
ATOM     22  H5  UNL     1      10.262  42.361  -9.090  1.00  0.00     0.210 HD
ENDBRANCH  14  21
BRANCH  15  23
HETATM   23  O6  UNL     1      12.701  41.532  -9.683  1.00  0.00    -0.390 OA
ATOM     24  H6  UNL     1      12.338  42.401  -9.799  1.00  0.00     0.210 HD
ENDBRANCH  15  23
ENDBRANCH   9  10
ENDBRANCH   5   9
BRANCH   7  25
HETATM   25  C10 UNL     1      16.069  36.741 -12.898  1.00  0.00     0.122 C
BRANCH  25  26
HETATM   26  C11 UNL     1      15.703  36.677 -14.344  1.00  0.00     0.020 C
BRANCH  26  27
HETATM   27  C12 UNL     1      14.318  37.327 -14.612  1.00  0.00     0.002 C
BRANCH  27  28
HETATM   28  C13 UNL     1      14.633  38.628 -15.267  1.00  0.00     0.000 C
BRANCH  28  29
HETATM   29  C14 UNL     1      14.230  39.852 -14.602  1.00  0.00     0.005 C
BRANCH  29  30
HETATM   30  C15 UNL     1      14.176  39.949 -13.145  1.00  0.00     0.044 C
BRANCH  30  31
HETATM   31  C16 UNL     1      14.505  41.231 -12.504  1.00  0.00     0.056 C
BRANCH  31  32
HETATM   32  N4  UNL     1      15.335  41.227 -11.403  1.00  0.00    -0.398 N
ATOM     33  H4  UNL     1      15.321  40.366 -10.857  1.00  0.00     0.159 HD
BRANCH  32  34
HETATM   34  C17 UNL     1      16.172  42.196 -10.931  1.00  0.00     0.080 C
HETATM   35  C18 UNL     1      17.645  41.891 -10.933  1.00  0.00     0.025 C
HETATM   36  C19 UNL     1      18.227  43.107 -10.172  1.00  0.00     0.002 C
HETATM   37  C20 UNL     1      17.127  43.568  -9.262  1.00  0.00     0.002 C
HETATM   38  C21 UNL     1      15.966  42.637  -9.474  1.00  0.00     0.025 C
ENDBRANCH  32  34
ENDBRANCH  31  32
ENDBRANCH  30  31
ENDBRANCH  29  30
ENDBRANCH  28  29
ENDBRANCH  27  28
ENDBRANCH  26  27
ENDBRANCH  25  26
ENDBRANCH   7  25
TORSDOF 16
ENDMDL