MODEL 5
REMARK VINA RESULT: -6.788103524      1.360      1.943
REMARK  16 active torsions:
REMARK  status: ('A' for Active; 'I' for Inactive)
REMARK    1  A    between atoms: C3_3  and  C4_4
REMARK    2  A    between atoms: C4_4  and  C5_5
REMARK    3  A    between atoms: C5_5  and  C6_6
REMARK    4  A    between atoms: C6_6  and  C7_7
REMARK    5  A    between atoms: C7_7  and  C8_8
REMARK    6  A    between atoms: C8_8  and  C9_9
REMARK    7  A    between atoms: C9_9  and  C10_10
REMARK    8  A    between atoms: C10_10  and  C11_11
REMARK    9  A    between atoms: C11_11  and  N1_12
REMARK       I    between atoms: N1_12  and  C12_14
REMARK       I    between atoms: C12_14  and  N2_16
REMARK   10  A    between atoms: N2_16  and  C13_18
REMARK   11  A    between atoms: C14_23  and  C15_24
REMARK   12  A    between atoms: C15_24  and  O2_25
REMARK   13  A    between atoms: C15_24  and  C16_27
REMARK   14  A    between atoms: C18_29  and  O3_30
REMARK   15  A    between atoms: C19_32  and  C20_33
REMARK   16  A    between atoms: C20_33  and  O4_34
ROOT
HETATM    1  C1  UNL     1      13.071  38.144  -9.264  1.00  0.00     0.012 C
HETATM    2  C2  UNL     1      13.536  37.418 -10.111  1.00  0.00    -0.117 C
HETATM    3  C3  UNL     1      14.118  36.542 -11.145  1.00  0.00     0.093 C
ENDROOT
BRANCH   3   4
HETATM    4  C4  UNL     1      13.394  36.828 -12.424  1.00  0.00     0.012 C
BRANCH   4   5
HETATM    5  C5  UNL     1      14.248  37.713 -13.334  1.00  0.00     0.001 C
BRANCH   5   6
HETATM    6  C6  UNL     1      13.828  39.138 -13.123  1.00  0.00     0.000 C
BRANCH   6   7
HETATM    7  C7  UNL     1      15.015  40.102 -13.154  1.00  0.00     0.000 C
BRANCH   7   8
HETATM    8  C8  UNL     1      16.058  39.590 -12.213  1.00  0.00     0.000 C
BRANCH   8   9
HETATM    9  C9  UNL     1      15.828  40.097 -10.760  1.00  0.00     0.002 C
BRANCH   9  10
HETATM   10  C10 UNL     1      16.771  41.154 -10.412  1.00  0.00     0.020 C
BRANCH  10  11
HETATM   11  C11 UNL     1      16.365  42.544 -10.252  1.00  0.00     0.124 C
BRANCH  11  12
HETATM   12  N1  UNL     1      15.279  42.823  -9.386  1.00  0.00    -0.343 N
HETATM   13  C12 UNL     1      13.941  42.972  -9.756  1.00  0.00     0.321 C
HETATM   14  O1  UNL     1      13.518  42.847 -10.908  1.00  0.00    -0.247 OA
HETATM   15  N2  UNL     1      12.976  43.297  -8.718  1.00  0.00    -0.289 N
ATOM     16  H2  UNL     1      12.652  44.249  -8.552  1.00  0.00     0.172 HD
ATOM     17  H1  UNL     1      15.495  42.925  -8.394  1.00  0.00     0.164 HD
BRANCH  15  18
HETATM   18  C13 UNL     1      12.558  42.293  -8.021  1.00  0.00     0.193 A
HETATM   19  N3  UNL     1      13.209  41.801  -6.952  1.00  0.00    -0.279 N
HETATM   20  N4  UNL     1      12.753  40.771  -6.259  1.00  0.00    -0.285 N
ATOM     21  H3  UNL     1      14.085  42.238  -6.665  1.00  0.00     0.189 HD
HETATM   22  C14 UNL     1      11.603  40.137  -6.570  1.00  0.00     0.130 A
ATOM     23  H4  UNL     1      13.292  40.443  -5.457  1.00  0.00     0.188 HD
HETATM   24  N6  UNL     1      10.919  40.597  -7.633  1.00  0.00    -0.307 N
HETATM   25  C21 UNL     1      11.369  41.643  -8.349  1.00  0.00     0.292 A
ATOM     26  H6  UNL     1      10.045  40.145  -7.901  1.00  0.00     0.170 HD
HETATM   27  O5  UNL     1      10.718  42.063  -9.340  1.00  0.00    -0.264 OA
BRANCH  22  28
HETATM   28  C15 UNL     1      11.122  38.977  -5.762  1.00  0.00     0.217 C
BRANCH  28  29
HETATM   29  O2  UNL     1      10.080  38.298  -6.375  1.00  0.00    -0.386 OA
ATOM     30  H2  UNL     1      10.384  37.606  -6.949  1.00  0.00     0.210 HD
ENDBRANCH  28  29
BRANCH  28  31
HETATM   31  C16 UNL     1      10.671  39.519  -4.428  1.00  0.00     0.225 C
HETATM   32  C17 UNL     1       9.145  39.504  -4.320  1.00  0.00     0.070 C
HETATM   33  C18 UNL     1       8.959  39.664  -2.827  1.00  0.00     0.153 C
HETATM   34  C19 UNL     1      10.150  38.956  -2.257  1.00  0.00     0.238 C
HETATM   35  N5  UNL     1      11.058  38.690  -3.329  1.00  0.00    -0.059 N
ATOM     36  H52 UNL     1      11.109  37.701  -3.573  1.00  0.00     0.278 HD
ATOM     37  H51 UNL     1      12.035  38.810  -3.063  1.00  0.00     0.278 HD
BRANCH  33  38
HETATM   38  O3  UNL     1       9.070  41.018  -2.516  1.00  0.00    -0.393 OA
ATOM     39  H3  UNL     1       8.760  41.145  -1.627  1.00  0.00     0.210 HD
ENDBRANCH  33  38
BRANCH  34  40
HETATM   40  C20 UNL     1       9.661  37.599  -1.738  1.00  0.00     0.199 C
BRANCH  40  41
HETATM   41  O4  UNL     1       9.036  36.943  -2.806  1.00  0.00    -0.399 OA
ATOM     42  H4  UNL     1       8.209  37.382  -2.964  1.00  0.00     0.209 HD
ENDBRANCH  40  41
ENDBRANCH  34  40
ENDBRANCH  28  31
ENDBRANCH  22  28
ENDBRANCH  15  18
ENDBRANCH  11  12
ENDBRANCH  10  11
ENDBRANCH   9  10
ENDBRANCH   8   9
ENDBRANCH   7   8
ENDBRANCH   6   7
ENDBRANCH   5   6
ENDBRANCH   4   5
ENDBRANCH   3   4
TORSDOF 16
ENDMDL