MODEL 2
REMARK VINA RESULT: -7.719559645      2.713      4.126
REMARK  13 active torsions:
REMARK  status: ('A' for Active; 'I' for Inactive)
REMARK    1  A    between atoms: N3_4  and  C2_6
REMARK    2  A    between atoms: C2_6  and  C3_7
REMARK    3  A    between atoms: C3_7  and  C4_8
REMARK    4  A    between atoms: C4_8  and  N4_9
REMARK    5  A    between atoms: N4_9  and  C5_12
REMARK    6  A    between atoms: C5_12  and  C6_13
REMARK    7  A    between atoms: C6_13  and  C7_14
REMARK    8  A    between atoms: C7_14  and  N5_15
REMARK    9  A    between atoms: N5_15  and  C8_18
REMARK   10  A    between atoms: C8_18  and  C9_19
REMARK   11  A    between atoms: C9_19  and  C10_20
REMARK   12  A    between atoms: C10_20  and  N6_21
REMARK   13  A    between atoms: N6_21  and  C11_23
ROOT
HETATM    1  C10 UNL     1      11.884  43.432  -9.190  1.00  0.00     0.139 C
ENDROOT
BRANCH   1   2
HETATM    2  C9  UNL     1      10.440  43.099  -8.789  1.00  0.00     0.048 C
BRANCH   2   3
HETATM    3  C8  UNL     1      10.175  43.881  -7.541  1.00  0.00     0.234 C
BRANCH   3   4
HETATM    4  N5  UNL     1       8.762  43.996  -7.312  1.00  0.00    -0.075 N
ATOM      5  H52 UNL     1       8.248  43.284  -7.830  1.00  0.00     0.277 HD
ATOM      6  H51 UNL     1       8.385  44.832  -7.760  1.00  0.00     0.277 HD
BRANCH   4   7
HETATM    7  C7  UNL     1       8.422  43.962  -5.911  1.00  0.00     0.233 C
BRANCH   7   8
HETATM    8  C6  UNL     1       8.750  42.607  -5.359  1.00  0.00     0.055 C
BRANCH   8   9
HETATM    9  C5  UNL     1       8.198  42.353  -4.005  1.00  0.00     0.233 C
BRANCH   9  10
HETATM   10  N4  UNL     1       7.689  41.034  -3.784  1.00  0.00    -0.075 N
ATOM     11  H42 UNL     1       7.330  40.613  -4.640  1.00  0.00     0.277 HD
ATOM     12  H41 UNL     1       6.821  41.044  -3.249  1.00  0.00     0.277 HD
BRANCH  10  13
HETATM   13  C4  UNL     1       8.691  40.224  -3.166  1.00  0.00     0.234 C
BRANCH  13  14
HETATM   14  C3  UNL     1       8.675  38.775  -3.578  1.00  0.00     0.047 C
BRANCH  14  15
HETATM   15  C2  UNL     1      10.078  38.457  -4.054  1.00  0.00     0.123 C
BRANCH  15  16
HETATM   16  N3  UNL     1      10.805  39.608  -4.521  1.00  0.00    -0.367 N
HETATM   17  C1  UNL     1      11.032  39.746  -5.766  1.00  0.00     0.196 C
HETATM   18  N1  UNL     1      10.577  38.781  -6.686  1.00  0.00    -0.067 NA
HETATM   19  N2  UNL     1      11.741  40.872  -6.235  1.00  0.00    -0.067 NA
ATOM     20  H3  UNL     1      11.137  40.310  -3.858  1.00  0.00     0.161 HD
ENDBRANCH  15  16
ENDBRANCH  14  15
ENDBRANCH  13  14
ENDBRANCH  10  13
ENDBRANCH   9  10
ENDBRANCH   8   9
ENDBRANCH   7   8
ENDBRANCH   4   7
ENDBRANCH   3   4
ENDBRANCH   2   3
ENDBRANCH   1   2
BRANCH   1  21
HETATM   21  N6  UNL     1      12.780  42.411  -8.715  1.00  0.00    -0.226 N
ATOM     22  H6  UNL     1      13.260  42.545  -7.825  1.00  0.00     0.177 HD
BRANCH  21  23
HETATM   23  C11 UNL     1      12.986  41.346  -9.379  1.00  0.00     0.681 A
HETATM   24  N7  UNL     1      12.683  40.122  -8.942  1.00  0.00    -0.155 N
HETATM   25  C12 UNL     1      12.883  38.990  -9.618  1.00  0.00     0.273 A
ATOM     26  H7  UNL     1      12.264  40.046  -8.015  1.00  0.00     0.187 HD
HETATM   27  O1  UNL     1      12.535  37.928  -9.054  1.00  0.00    -0.267 OA
HETATM   28  C13 UNL     1      13.459  39.025 -10.903  1.00  0.00     0.074 A
HETATM   29  C14 UNL     1      13.736  37.993 -11.733  1.00  0.00    -0.025 A
HETATM   30  C16 UNL     1      13.770  40.280 -11.350  1.00  0.00     0.107 A
HETATM   31  C15 UNL     1      14.298  38.299 -12.945  1.00  0.00    -0.006 A
HETATM   32  C20 UNL     1      13.460  36.546 -11.358  1.00  0.00     0.060 C
HETATM   33  S1  UNL     1      14.426  39.995 -12.894  1.00  0.00    -0.075 SA
HETATM   34  C17 UNL     1      14.716  37.434 -14.092  1.00  0.00     0.066 C
HETATM   35  C18 UNL     1      13.640  36.421 -14.294  1.00  0.00     0.118 C
HETATM   36  N9  UNL     1      13.928  35.294 -13.454  1.00  0.00    -0.421 N
HETATM   37  C19 UNL     1      14.331  35.598 -12.137  1.00  0.00     0.118 C
ATOM     38  H9  UNL     1      13.846  34.333 -13.787  1.00  0.00     0.153 HD
HETATM   39  N8  UNL     1      13.547  41.405 -10.627  1.00  0.00    -0.184 N
ATOM     40  H8  UNL     1      13.802  42.311 -11.019  1.00  0.00     0.185 HD
ENDBRANCH  21  23
ENDBRANCH   1  21
TORSDOF 13
ENDMDL