MODEL 2
REMARK VINA RESULT: -7.835349409      3.313      5.800
REMARK  17 active torsions:
REMARK  status: ('A' for Active; 'I' for Inactive)
REMARK    1  A    between atoms: C2_2  and  C3_3
REMARK    2  A    between atoms: C3_3  and  C4_4
REMARK    3  A    between atoms: C4_4  and  C5_5
REMARK    4  A    between atoms: C5_5  and  C6_6
REMARK    5  A    between atoms: C8_8  and  N1_9
REMARK    6  A    between atoms: N1_9  and  C9_11
REMARK    7  A    between atoms: C9_11  and  C10_12
REMARK    8  A    between atoms: C10_12  and  O1_13
REMARK    9  A    between atoms: C11_17  and  C12_18
REMARK   10  A    between atoms: C12_18  and  N3_19
REMARK   11  A    between atoms: C12_18  and  C13_23
REMARK   12  A    between atoms: C13_23  and  C14_24
REMARK   13  A    between atoms: C14_24  and  C15_25
REMARK   14  A    between atoms: C15_25  and  N4_26
REMARK   15  A    between atoms: C15_25  and  C16_30
REMARK       I    between atoms: C16_30  and  N5_32
REMARK   16  A    between atoms: C19_35  and  O3_36
REMARK   17  A    between atoms: C21_39  and  C22_40
ROOT
HETATM    1  C12 UNL     1      11.235  39.321  -6.131  1.00  0.00     0.250 C
ENDROOT
BRANCH   1   2
HETATM    2  C11 UNL     1      10.550  39.392  -4.776  1.00  0.00     0.114 A
HETATM    3  N2  UNL     1      10.988  38.683  -3.732  1.00  0.00    -0.331 N
HETATM    4  C8  UNL     1      10.372  38.757  -2.533  1.00  0.00     0.104 A
ATOM      5  H2  UNL     1      11.800  38.076  -3.843  1.00  0.00     0.168 HD
HETATM    6  C7  UNL     1       9.277  39.581  -2.395  1.00  0.00     0.073 A
HETATM    7  C6  UNL     1       8.814  40.321  -3.469  1.00  0.00     0.014 A
HETATM    8  N8  UNL     1       9.484  40.190  -4.628  1.00  0.00    -0.347 N
ATOM      9  H8  UNL     1       9.163  40.725  -5.435  1.00  0.00     0.167 HD
BRANCH   4  10
HETATM   10  N1  UNL     1      10.761  38.096  -1.495  1.00  0.00    -0.374 N
ATOM     11  H1  UNL     1      11.752  38.028  -1.259  1.00  0.00     0.161 HD
BRANCH  10  12
HETATM   12  C9  UNL     1       9.761  37.454  -0.677  1.00  0.00     0.147 C
BRANCH  12  13
HETATM   13  C10 UNL     1       9.513  36.031  -1.133  1.00  0.00     0.183 C
BRANCH  13  14
HETATM   14  O1  UNL     1       8.344  36.053  -1.896  1.00  0.00    -0.399 OA
ATOM     15  H1  UNL     1       8.067  35.150  -1.996  1.00  0.00     0.209 HD
ENDBRANCH  13  14
ENDBRANCH  12  13
ENDBRANCH  10  12
ENDBRANCH   4  10
BRANCH   7  16
HETATM   16  C5  UNL     1       7.637  41.201  -3.322  1.00  0.00     0.057 C
BRANCH  16  17
HETATM   17  C4  UNL     1       7.989  42.622  -2.963  1.00  0.00     0.006 C
BRANCH  17  18
HETATM   18  C3  UNL     1       7.945  42.830  -1.467  1.00  0.00     0.000 C
BRANCH  18  19
HETATM   19  C2  UNL     1       7.960  44.337  -1.202  1.00  0.00    -0.005 C
HETATM   20  C1  UNL     1       6.773  44.694  -0.333  1.00  0.00     0.005 C
ENDBRANCH  18  19
ENDBRANCH  17  18
ENDBRANCH  16  17
ENDBRANCH   7  16
ENDBRANCH   1   2
BRANCH   1  21
HETATM   21  N3  UNL     1      12.347  38.411  -5.963  1.00  0.00    -0.068 N
ATOM     22  H33 UNL     1      12.575  38.220  -4.987  1.00  0.00     0.275 HD
ATOM     23  H32 UNL     1      12.132  37.450  -6.229  1.00  0.00     0.275 HD
ATOM     24  H31 UNL     1      13.120  38.816  -6.491  1.00  0.00     0.275 HD
ENDBRANCH   1  21
BRANCH   1  25
HETATM   25  C13 UNL     1      11.731  40.654  -6.537  1.00  0.00     0.043 C
BRANCH  25  26
HETATM   26  C14 UNL     1      12.985  40.623  -7.318  1.00  0.00     0.045 C
BRANCH  26  27
HETATM   27  C15 UNL     1      12.928  40.797  -8.799  1.00  0.00     0.275 C
BRANCH  27  28
HETATM   28  N4  UNL     1      11.676  41.094  -9.356  1.00  0.00    -0.067 N
ATOM     29  H43 UNL     1      11.027  40.330  -9.162  1.00  0.00     0.275 HD
ATOM     30  H42 UNL     1      11.239  41.851  -8.829  1.00  0.00     0.275 HD
ATOM     31  H41 UNL     1      11.654  41.315 -10.353  1.00  0.00     0.275 HD
ENDBRANCH  27  28
BRANCH  27  32
HETATM   32  C16 UNL     1      13.671  39.714  -9.502  1.00  0.00     0.251 C
HETATM   33  O2  UNL     1      13.982  38.734  -8.767  1.00  0.00    -0.271 OA
HETATM   34  N5  UNL     1      14.018  39.718 -10.848  1.00  0.00    -0.339 N
HETATM   35  C17 UNL     1      13.811  40.863 -11.672  1.00  0.00     0.129 C
HETATM   36  C21 UNL     1      14.587  38.513 -11.448  1.00  0.00     0.153 C
HETATM   37  C18 UNL     1      14.676  40.928 -12.917  1.00  0.00     0.051 C
HETATM   38  C19 UNL     1      14.871  39.612 -13.584  1.00  0.00     0.122 C
HETATM   39  C20 UNL     1      14.079  38.514 -12.910  1.00  0.00     0.064 C
BRANCH  38  40
HETATM   40  O3  UNL     1      16.191  39.229 -13.718  1.00  0.00    -0.395 OA
ATOM     41  H3  UNL     1      16.641  39.620 -14.459  1.00  0.00     0.210 HD
ENDBRANCH  38  40
BRANCH  36  42
HETATM   42  C22 UNL     1      14.120  37.272 -10.813  1.00  0.00     0.110 C
HETATM   43  N6  UNL     1      14.985  36.543 -10.162  1.00  0.00    -0.389 N
ATOM     44  H62 UNL     1      15.959  36.837 -10.082  1.00  0.00     0.157 HD
ATOM     45  H61 UNL     1      14.661  35.682  -9.721  1.00  0.00     0.157 HD
HETATM   46  N7  UNL     1      12.771  36.865 -10.924  1.00  0.00    -0.086 NA
ENDBRANCH  36  42
ENDBRANCH  27  32
ENDBRANCH  26  27
ENDBRANCH  25  26
ENDBRANCH   1  25
TORSDOF 17
ENDMDL