MODEL 1
REMARK VINA RESULT: -7.122950579      0.000      0.000
REMARK  16 active torsions:
REMARK  status: ('A' for Active; 'I' for Inactive)
REMARK    1  A    between atoms: C2_2  and  C3_3
REMARK    2  A    between atoms: C3_3  and  C4_4
REMARK    3  A    between atoms: C4_4  and  C5_5
REMARK    4  A    between atoms: C5_5  and  C6_6
REMARK    5  A    between atoms: C6_6  and  C7_7
REMARK    6  A    between atoms: C8_8  and  C9_9
REMARK    7  A    between atoms: C9_9  and  C10_10
REMARK    8  A    between atoms: C10_10  and  O1_11
REMARK    9  A    between atoms: C13_17  and  C14_18
REMARK   10  A    between atoms: C16_20  and  O2_21
REMARK   11  A    between atoms: C17_23  and  O3_24
REMARK   12  A    between atoms: C18_26  and  N2_27
REMARK   13  A    between atoms: N2_27  and  C19_30
REMARK   14  A    between atoms: C19_30  and  C20_31
REMARK   15  A    between atoms: C21_34  and  C22_35
REMARK   16  A    between atoms: C22_35  and  O5_36
ROOT
HETATM    1  C10 UNL     1      12.430  41.067  -8.859  1.00  0.00     0.128 C
HETATM    2  C11 UNL     1      13.023  42.333  -9.388  1.00  0.00     0.027 C
HETATM    3  N1  UNL     1      12.822  43.518  -9.012  1.00  0.00    -0.398 N
ATOM      4  H1  UNL     1      13.350  44.219  -9.533  1.00  0.00     0.158 HD
HETATM    5  C12 UNL     1      12.002  44.046  -8.004  1.00  0.00     0.145 C
HETATM    6  C13 UNL     1      13.913  41.941 -10.510  1.00  0.00     0.073 C
HETATM    7  C16 UNL     1      14.157  40.506 -10.311  1.00  0.00     0.123 C
HETATM    8  C17 UNL     1      14.445  39.740 -11.585  1.00  0.00     0.189 C
HETATM    9  C18 UNL     1      13.691  38.465 -11.677  1.00  0.00     0.248 C
HETATM   10  C21 UNL     1      13.254  37.872 -10.389  1.00  0.00     0.179 C
HETATM   11  O6  UNL     1      13.003  38.747  -9.376  1.00  0.00    -0.370 OA
HETATM   12  C23 UNL     1      12.809  40.009  -9.826  1.00  0.00     0.200 C
ENDROOT
BRANCH   1  13
HETATM   13  C9  UNL     1      12.768  40.842  -7.432  1.00  0.00     0.073 C
BRANCH  13  14
HETATM   14  C8  UNL     1      11.627  40.476  -6.596  1.00  0.00    -0.027 C
HETATM   15  C7  UNL     1      11.468  39.215  -6.204  1.00  0.00    -0.031 C
BRANCH  15  16
HETATM   16  C6  UNL     1      10.348  38.765  -5.364  1.00  0.00     0.027 C
BRANCH  16  17
HETATM   17  C5  UNL     1      10.731  38.731  -3.918  1.00  0.00     0.004 C
BRANCH  17  18
HETATM   18  C4  UNL     1       9.630  38.200  -3.055  1.00  0.00     0.000 C
BRANCH  18  19
HETATM   19  C3  UNL     1       9.991  38.520  -1.613  1.00  0.00    -0.000 C
BRANCH  19  20
HETATM   20  C2  UNL     1       9.286  37.555  -0.670  1.00  0.00    -0.005 C
HETATM   21  C1  UNL     1       9.458  36.120  -1.145  1.00  0.00     0.005 C
ENDBRANCH  19  20
ENDBRANCH  18  19
ENDBRANCH  17  18
ENDBRANCH  16  17
ENDBRANCH  15  16
ENDBRANCH  13  14
ENDBRANCH   1  13
BRANCH   1  22
HETATM   22  O1  UNL     1      11.029  41.288  -8.962  1.00  0.00    -0.381 OA
ATOM     23  H1  UNL     1      10.795  41.320  -9.883  1.00  0.00     0.211 HD
ENDBRANCH   1  22
BRANCH   6  24
HETATM   24  C14 UNL     1      15.163  42.785 -10.565  1.00  0.00     0.009 C
HETATM   25  C15 UNL     1      15.149  43.716 -11.741  1.00  0.00     0.006 C
ENDBRANCH   6  24
BRANCH   7  26
HETATM   26  O2  UNL     1      15.094  40.207  -9.327  1.00  0.00    -0.384 OA
ATOM     27  H2  UNL     1      15.073  40.783  -8.572  1.00  0.00     0.210 HD
ENDBRANCH   7  26
BRANCH   8  28
HETATM   28  O3  UNL     1      14.117  40.568 -12.681  1.00  0.00    -0.390 OA
ATOM     29  H3  UNL     1      14.887  41.075 -12.910  1.00  0.00     0.210 HD
ENDBRANCH   8  28
BRANCH  10  30
HETATM   30  C22 UNL     1      14.218  36.808  -9.852  1.00  0.00     0.198 C
BRANCH  30  31
HETATM   31  O5  UNL     1      14.753  37.368  -8.667  1.00  0.00    -0.398 OA
ATOM     32  H5  UNL     1      14.122  38.027  -8.403  1.00  0.00     0.209 HD
ENDBRANCH  30  31
ENDBRANCH  10  30
BRANCH   9  33
HETATM   33  N2  UNL     1      14.432  37.428 -12.404  1.00  0.00    -0.058 N
ATOM     34  H22 UNL     1      15.433  37.628 -12.409  1.00  0.00     0.278 HD
ATOM     35  H21 UNL     1      14.442  36.551 -11.883  1.00  0.00     0.278 HD
BRANCH  33  36
HETATM   36  C19 UNL     1      13.942  37.232 -13.731  1.00  0.00     0.331 C
BRANCH  36  37
HETATM   37  C20 UNL     1      13.262  35.914 -13.795  1.00  0.00     0.256 C
HETATM   38  N3  UNL     1      13.041  35.163 -12.610  1.00  0.00    -0.061 NA
HETATM   39  O4  UNL     1      12.865  35.426 -14.886  1.00  0.00    -0.275 OA
ENDBRANCH  36  37
ENDBRANCH  33  36
ENDBRANCH   9  33
TORSDOF 16
ENDMDL