MODEL 3
REMARK VINA RESULT: -7.118571049      2.917      4.803
REMARK  14 active torsions:
REMARK  status: ('A' for Active; 'I' for Inactive)
REMARK    1  A    between atoms: C2_2  and  C3_3
REMARK    2  A    between atoms: C3_3  and  C4_4
REMARK    3  A    between atoms: C4_4  and  C5_5
REMARK    4  A    between atoms: C5_5  and  C6_6
REMARK    5  A    between atoms: C6_6  and  C7_7
REMARK    6  A    between atoms: C7_7  and  C8_8
REMARK    7  A    between atoms: C8_8  and  C9_9
REMARK    8  A    between atoms: C9_9  and  C10_10
REMARK    9  A    between atoms: C10_10  and  C11_11
REMARK   10  A    between atoms: C11_11  and  C12_12
REMARK   11  A    between atoms: C14_17  and  C15_18
REMARK   12  A    between atoms: C15_18  and  O2_19
REMARK   13  A    between atoms: C16_24  and  O3_25
REMARK   14  A    between atoms: C19_32  and  C20_33
ROOT
HETATM    1  C12 UNL     1      14.136  37.297 -11.886  1.00  0.00     0.177 C
HETATM    2  N1  UNL     1      13.734  38.529 -12.505  1.00  0.00    -0.346 N
ATOM      3  H1  UNL     1      12.804  38.530 -12.923  1.00  0.00     0.163 HD
HETATM    4  C13 UNL     1      14.448  39.731 -12.611  1.00  0.00     0.251 C
HETATM    5  O1  UNL     1      13.759  40.817 -12.623  1.00  0.00    -0.271 OA
HETATM    6  C14 UNL     1      15.901  39.930 -12.714  1.00  0.00     0.305 C
HETATM    7  N2  UNL     1      16.687  38.770 -12.944  1.00  0.00    -0.008 N
ATOM      8  H21 UNL     1      16.110  37.985 -13.248  1.00  0.00     0.283 HD
ATOM      9  H22 UNL     1      17.039  38.380 -12.070  1.00  0.00     0.283 HD
HETATM   10  C16 UNL     1      17.781  39.033 -13.895  1.00  0.00     0.522 C
HETATM   11  N3  UNL     1      18.126  37.764 -14.473  1.00  0.00    -0.023 N
ATOM     12  H31 UNL     1      18.225  37.052 -13.749  1.00  0.00     0.282 HD
ATOM     13  H32 UNL     1      19.082  37.779 -14.829  1.00  0.00     0.282 HD
HETATM   14  C17 UNL     1      17.219  37.327 -15.486  1.00  0.00     0.240 C
HETATM   15  C18 UNL     1      16.429  36.151 -14.967  1.00  0.00     0.062 C
HETATM   16  C19 UNL     1      14.943  36.432 -14.901  1.00  0.00     0.175 C
HETATM   17  N5  UNL     1      14.405  35.637 -13.819  1.00  0.00    -0.346 N
ATOM     18  H5  UNL     1      14.565  34.631 -13.862  1.00  0.00     0.163 HD
HETATM   19  C21 UNL     1      13.678  36.122 -12.709  1.00  0.00     0.241 C
HETATM   20  O5  UNL     1      12.591  35.512 -12.422  1.00  0.00    -0.271 OA
ENDROOT
BRANCH   1  21
HETATM   21  C11 UNL     1      13.321  37.195 -10.566  1.00  0.00     0.039 C
BRANCH  21  22
HETATM   22  C10 UNL     1      14.192  37.202  -9.388  1.00  0.00     0.029 C
BRANCH  22  23
HETATM   23  C9  UNL     1      13.701  37.972  -8.224  1.00  0.00    -0.027 C
BRANCH  23  24
HETATM   24  C8  UNL     1      12.599  38.920  -8.331  1.00  0.00    -0.008 C
BRANCH  24  25
HETATM   25  C7  UNL     1      12.040  39.650  -7.206  1.00  0.00    -0.027 C
BRANCH  25  26
HETATM   26  C6  UNL     1      12.426  41.017  -6.853  1.00  0.00     0.027 C
BRANCH  26  27
HETATM   27  C5  UNL     1      13.112  41.902  -7.825  1.00  0.00     0.004 C
BRANCH  27  28
HETATM   28  C4  UNL     1      14.142  42.849  -7.363  1.00  0.00     0.000 C
BRANCH  28  29
HETATM   29  C3  UNL     1      15.104  43.112  -8.531  1.00  0.00    -0.000 C
BRANCH  29  30
HETATM   30  C2  UNL     1      16.272  43.948  -8.039  1.00  0.00    -0.005 C
HETATM   31  C1  UNL     1      17.410  43.932  -9.040  1.00  0.00     0.005 C
ENDBRANCH  29  30
ENDBRANCH  28  29
ENDBRANCH  27  28
ENDBRANCH  26  27
ENDBRANCH  25  26
ENDBRANCH  24  25
ENDBRANCH  23  24
ENDBRANCH  22  23
ENDBRANCH  21  22
ENDBRANCH   1  21
BRANCH   6  32
HETATM   32  C15 UNL     1      16.374  40.553 -11.400  1.00  0.00     0.207 C
BRANCH  32  33
HETATM   33  O2  UNL     1      15.577  40.107 -10.339  1.00  0.00    -0.398 OA
ATOM     34  H2  UNL     1      15.996  40.303  -9.509  1.00  0.00     0.209 HD
ENDBRANCH  32  33
ENDBRANCH   6  32
BRANCH  16  35
HETATM   35  C20 UNL     1      14.334  35.940 -16.191  1.00  0.00     0.254 C
HETATM   36  N4  UNL     1      13.325  36.726 -16.786  1.00  0.00    -0.060 NA
HETATM   37  O4  UNL     1      14.728  34.853 -16.710  1.00  0.00    -0.275 OA
ENDBRANCH  16  35
BRANCH  10  38
HETATM   38  O3  UNL     1      17.461  40.002 -14.811  1.00  0.00    -0.349 OA
ATOM     39  H3  UNL     1      18.109  40.080 -15.502  1.00  0.00     0.213 HD
ENDBRANCH  10  38
TORSDOF 14
ENDMDL