MODEL 2
REMARK VINA RESULT: -7.673832141      1.646      1.919
REMARK  17 active torsions:
REMARK  status: ('A' for Active; 'I' for Inactive)
REMARK       I    between atoms: C1_4  and  N3_6
REMARK    1  A    between atoms: N3_6  and  C2_8
REMARK    2  A    between atoms: C2_8  and  C3_9
REMARK    3  A    between atoms: C3_9  and  C4_10
REMARK    4  A    between atoms: C4_10  and  O1_11
REMARK    5  A    between atoms: C4_10  and  C5_13
REMARK    6  A    between atoms: C5_13  and  S1_14
REMARK    7  A    between atoms: S1_14  and  C6_15
REMARK    8  A    between atoms: C6_15  and  C7_16
REMARK    9  A    between atoms: C7_16  and  O2_17
REMARK   10  A    between atoms: C7_16  and  N4_19
REMARK   11  A    between atoms: N4_19  and  C8_20
REMARK   12  A    between atoms: C10_22  and  N5_23
REMARK   13  A    between atoms: C16_31  and  N7_32
REMARK   14  A    between atoms: N7_32  and  C17_34
REMARK   15  A    between atoms: C17_34  and  C18_35
REMARK   16  A    between atoms: C18_35  and  C19_36
REMARK   17  A    between atoms: C19_36  and  O3_37
ROOT
HETATM    1  C8  UNL     1      10.319  39.646  -5.105  1.00  0.00     0.199 A
HETATM    2  C9  UNL     1      10.220  38.904  -3.914  1.00  0.00     0.113 A
HETATM    3  C10 UNL     1       9.514  39.330  -2.818  1.00  0.00     0.123 A
HETATM    4  N6  UNL     1       8.880  40.508  -2.870  1.00  0.00    -0.177 N
ATOM      5  H6  UNL     1       8.348  40.847  -2.069  1.00  0.00     0.185 HD
HETATM    6  C16 UNL     1       8.958  41.250  -4.016  1.00  0.00     0.682 A
HETATM    7  N8  UNL     1       9.642  40.843  -5.080  1.00  0.00    -0.164 N
ATOM      8  H8  UNL     1       9.666  41.439  -5.908  1.00  0.00     0.187 HD
ENDROOT
BRANCH   1   9
HETATM    9  N4  UNL     1      10.901  39.299  -6.052  1.00  0.00    -0.366 NA
BRANCH   9  10
HETATM   10  C7  UNL     1      11.560  38.848  -7.068  1.00  0.00     0.201 C
BRANCH  10  11
HETATM   11  C6  UNL     1      12.944  39.386  -7.416  1.00  0.00     0.174 C
BRANCH  11  12
HETATM   12  S1  UNL     1      12.928  40.370  -8.904  1.00  0.00    -0.157 SA
BRANCH  12  13
HETATM   13  C5  UNL     1      13.310  39.481 -10.407  1.00  0.00     0.106 C
BRANCH  13  14
HETATM   14  C4  UNL     1      13.832  38.092 -10.113  1.00  0.00     0.129 C
BRANCH  14  15
HETATM   15  C3  UNL     1      15.003  37.708 -10.970  1.00  0.00     0.052 C
BRANCH  15  16
HETATM   16  C2  UNL     1      15.006  36.235 -11.191  1.00  0.00     0.125 C
BRANCH  16  17
HETATM   17  N3  UNL     1      15.028  35.897 -12.622  1.00  0.00    -0.365 N
HETATM   18  C1  UNL     1      13.756  35.597 -13.198  1.00  0.00     0.181 C
HETATM   19  N1  UNL     1      13.593  35.589 -14.495  1.00  0.00    -0.374 N
HETATM   20  N2  UNL     1      12.610  35.295 -12.428  1.00  0.00    -0.064 NA
ATOM     21  H12 UNL     1      12.685  35.376 -14.907  1.00  0.00     0.158 HD
ATOM     22  H11 UNL     1      14.420  35.807 -15.051  1.00  0.00     0.158 HD
ATOM     23  H3  UNL     1      15.891  35.876 -13.165  1.00  0.00     0.162 HD
ENDBRANCH  16  17
ENDBRANCH  15  16
ENDBRANCH  14  15
BRANCH  14  24
HETATM   24  O1  UNL     1      12.814  37.164 -10.117  1.00  0.00    -0.395 OA
ATOM     25  H1  UNL     1      12.297  37.160  -9.320  1.00  0.00     0.210 HD
ENDBRANCH  14  24
ENDBRANCH  13  14
ENDBRANCH  12  13
ENDBRANCH  11  12
ENDBRANCH  10  11
BRANCH  10  26
HETATM   26  O2  UNL     1      11.162  37.919  -7.896  1.00  0.00    -0.338 OA
ATOM     27  H2  UNL     1      10.884  37.129  -7.448  1.00  0.00     0.220 HD
ENDBRANCH  10  26
ENDBRANCH   9  10
ENDBRANCH   1   9
BRANCH   3  28
HETATM   28  N5  UNL     1       9.507  38.483  -1.675  1.00  0.00    -0.367 N
HETATM   29  C11 UNL     1       9.775  39.077  -0.405  1.00  0.00     0.124 C
HETATM   30  C12 UNL     1       9.325  38.252   0.763  1.00  0.00     0.020 C
HETATM   31  C13 UNL     1       8.386  37.138   0.364  1.00  0.00     0.003 C
HETATM   32  C14 UNL     1       9.108  36.284  -0.644  1.00  0.00     0.020 C
HETATM   33  C15 UNL     1       9.230  37.081  -1.916  1.00  0.00     0.124 C
ENDBRANCH   3  28
BRANCH   6  34
HETATM   34  N7  UNL     1       8.323  42.354  -3.997  1.00  0.00    -0.226 N
ATOM     35  H7  UNL     1       8.190  42.824  -3.102  1.00  0.00     0.177 HD
BRANCH  34  36
HETATM   36  C17 UNL     1       7.789  42.964  -5.174  1.00  0.00     0.140 C
BRANCH  36  37
HETATM   37  C18 UNL     1       6.271  43.055  -4.952  1.00  0.00     0.046 C
BRANCH  37  38
HETATM   38  C19 UNL     1       5.727  43.918  -6.075  1.00  0.00     0.165 C
BRANCH  38  39
HETATM   39  O3  UNL     1       6.621  43.977  -7.147  1.00  0.00    -0.401 OA
ATOM     40  H3  UNL     1       7.015  44.838  -7.222  1.00  0.00     0.209 HD
ENDBRANCH  38  39
ENDBRANCH  37  38
ENDBRANCH  36  37
ENDBRANCH  34  36
ENDBRANCH   6  34
TORSDOF 17
ENDMDL