MODEL 3
REMARK VINA RESULT: -7.126126771      3.667      5.531
REMARK  15 active torsions:
REMARK  status: ('A' for Active; 'I' for Inactive)
REMARK    1  A    between atoms: C2_2  and  C3_3
REMARK    2  A    between atoms: C3_3  and  C4_4
REMARK    3  A    between atoms: C4_4  and  C5_5
REMARK    4  A    between atoms: C5_5  and  C6_6
REMARK    5  A    between atoms: C6_6  and  C7_7
REMARK    6  A    between atoms: C7_7  and  C8_8
REMARK    7  A    between atoms: C8_8  and  C9_9
REMARK    8  A    between atoms: C9_9  and  C10_10
REMARK    9  A    between atoms: C10_10  and  C11_11
REMARK   10  A    between atoms: C11_11  and  C12_12
REMARK   11  A    between atoms: C12_12  and  C13_13
REMARK       I    between atoms: C13_13  and  N1_15
REMARK   12  A    between atoms: N1_15  and  C14_17
REMARK   13  A    between atoms: C15_18  and  O2_19
REMARK   14  A    between atoms: C18_24  and  O4_25
REMARK   15  A    between atoms: C22_32  and  O5_33
ROOT
HETATM    1  C14 UNL     1      13.729  36.531 -11.125  1.00  0.00     0.144 C
HETATM    2  C15 UNL     1      15.201  36.377 -11.300  1.00  0.00     0.167 C
HETATM    3  C16 UNL     1      15.887  37.435 -12.083  1.00  0.00     0.205 C
HETATM    4  O3  UNL     1      14.962  38.146 -12.805  1.00  0.00    -0.347 OA
HETATM    5  C17 UNL     1      14.423  37.468 -13.842  1.00  0.00     0.304 A
HETATM    6  C18 UNL     1      14.424  38.260 -15.128  1.00  0.00     0.236 A
HETATM    7  C19 UNL     1      15.229  37.101 -15.680  1.00  0.00     0.370 A
HETATM    8  N2  UNL     1      14.442  36.357 -16.644  1.00  0.00    -0.107 NA
HETATM    9  N3  UNL     1      13.453  35.709 -15.900  1.00  0.00    -0.109 NA
HETATM   10  C20 UNL     1      13.879  35.668 -14.538  1.00  0.00     0.348 C
HETATM   11  C21 UNL     1      13.209  36.694 -13.614  1.00  0.00     0.137 C
HETATM   12  C22 UNL     1      12.905  36.136 -12.310  1.00  0.00     0.155 C
HETATM   13  N4  UNL     1      15.135  36.390 -14.441  1.00  0.00     0.172 N
ENDROOT
BRANCH   1  14
HETATM   14  N1  UNL     1      13.324  37.790 -10.531  1.00  0.00    -0.351 N
HETATM   15  C13 UNL     1      13.672  38.122  -9.166  1.00  0.00     0.218 C
HETATM   16  O1  UNL     1      14.336  37.280  -8.521  1.00  0.00    -0.274 OA
ATOM     17  H1  UNL     1      12.784  38.454 -11.085  1.00  0.00     0.163 HD
BRANCH  15  18
HETATM   18  C12 UNL     1      13.278  39.380  -8.547  1.00  0.00     0.103 C
BRANCH  18  19
HETATM   19  C11 UNL     1      12.700  40.419  -9.434  1.00  0.00     0.009 C
BRANCH  19  20
HETATM   20  C10 UNL     1      12.718  41.816  -8.934  1.00  0.00     0.000 C
BRANCH  20  21
HETATM   21  C9  UNL     1      13.064  41.909  -7.460  1.00  0.00     0.000 C
BRANCH  21  22
HETATM   22  C8  UNL     1      14.139  42.919  -7.193  1.00  0.00     0.000 C
BRANCH  22  23
HETATM   23  C7  UNL     1      14.681  43.495  -8.454  1.00  0.00     0.000 C
BRANCH  23  24
HETATM   24  C6  UNL     1      16.170  43.521  -8.540  1.00  0.00     0.000 C
BRANCH  24  25
HETATM   25  C5  UNL     1      16.704  42.871  -9.792  1.00  0.00     0.000 C
BRANCH  25  26
HETATM   26  C4  UNL     1      16.266  41.452  -9.909  1.00  0.00     0.000 C
BRANCH  26  27
HETATM   27  C3  UNL     1      15.850  41.123 -11.324  1.00  0.00    -0.000 C
BRANCH  27  28
HETATM   28  C2  UNL     1      15.082  42.253 -11.928  1.00  0.00    -0.005 C
HETATM   29  C1  UNL     1      13.875  41.659 -12.643  1.00  0.00     0.005 C
ENDBRANCH  27  28
ENDBRANCH  26  27
ENDBRANCH  25  26
ENDBRANCH  24  25
ENDBRANCH  23  24
ENDBRANCH  22  23
ENDBRANCH  21  22
ENDBRANCH  20  21
ENDBRANCH  19  20
ENDBRANCH  18  19
ENDBRANCH  15  18
ENDBRANCH   1  14
BRANCH   2  30
HETATM   30  O2  UNL     1      15.446  35.084 -11.744  1.00  0.00    -0.391 OA
ATOM     31  H2  UNL     1      16.370  35.017 -11.954  1.00  0.00     0.210 HD
ENDBRANCH   2  30
BRANCH  12  32
HETATM   32  O5  UNL     1      12.915  34.723 -12.381  1.00  0.00    -0.393 OA
ATOM     33  H5  UNL     1      12.969  34.485 -13.299  1.00  0.00     0.210 HD
ENDBRANCH  12  32
BRANCH   6  34
HETATM   34  O4  UNL     1      15.155  39.445 -15.066  1.00  0.00    -0.387 OA
ATOM     35  H4  UNL     1      14.993  40.038 -15.790  1.00  0.00     0.210 HD
ENDBRANCH   6  34
TORSDOF 15
ENDMDL