MODEL 2
REMARK VINA RESULT: -6.660676733      0.992      1.065
REMARK  2 active torsions:
REMARK  status: ('A' for Active; 'I' for Inactive)
REMARK    1  A    between atoms: O1_2  and  C2_3
REMARK    2  A    between atoms: C23_26  and  O3_27
ROOT
HETATM    1  C2  UNL     1     -25.366 -11.469  28.881  1.00  0.00     0.151 C
HETATM    2  C3  UNL     1     -26.554 -11.630  29.872  1.00  0.00     0.113 C
HETATM    3  C4  UNL     1     -27.623 -11.914  28.765  1.00  0.00     0.033 C
HETATM    4  C5  UNL     1     -28.068 -10.576  28.609  1.00  0.00     0.007 C
HETATM    5  C6  UNL     1     -28.838  -9.679  27.796  1.00  0.00     0.026 C
HETATM    6  C7  UNL     1     -29.313  -8.525  28.712  1.00  0.00     0.009 C
HETATM    7  C8  UNL     1     -29.566  -8.839  30.135  1.00  0.00     0.014 C
HETATM    8  C9  UNL     1     -28.703  -9.002  31.268  1.00  0.00    -0.016 C
HETATM    9  C10 UNL     1     -29.763  -9.430  32.374  1.00  0.00     0.020 C
HETATM   10  C11 UNL     1     -28.307  -7.710  32.013  1.00  0.00     0.020 C
HETATM   11  C12 UNL     1     -27.729 -10.125  31.500  1.00  0.00     0.067 C
HETATM   12  N1  UNL     1     -26.732 -10.479  30.633  1.00  0.00    -0.385 N
HETATM   13  C13 UNL     1     -25.821  -9.393  30.440  1.00  0.00     0.123 C
HETATM   14  C14 UNL     1     -26.340  -8.717  29.164  1.00  0.00     0.033 C
HETATM   15  C15 UNL     1     -26.944  -9.720  28.336  1.00  0.00     0.005 C
HETATM   16  C16 UNL     1     -25.710 -10.516  27.820  1.00  0.00     0.060 C
HETATM   17  C17 UNL     1     -25.960 -10.823  26.433  1.00  0.00     0.159 C
HETATM   18  O2  UNL     1     -27.292 -10.469  26.203  1.00  0.00    -0.371 OA
HETATM   19  C18 UNL     1     -27.584  -9.395  27.030  1.00  0.00     0.074 C
HETATM   20  C19 UNL     1     -27.376  -8.074  26.426  1.00  0.00     0.040 C
HETATM   21  C20 UNL     1     -26.773  -8.260  25.078  1.00  0.00     0.010 C
HETATM   22  C21 UNL     1     -25.367  -8.753  25.042  1.00  0.00     0.013 C
HETATM   23  C22 UNL     1     -24.400  -7.799  25.738  1.00  0.00     0.012 C
HETATM   24  C23 UNL     1     -25.125 -10.155  25.387  1.00  0.00     0.151 C
ENDROOT
BRANCH   1  25
HETATM   25  O1  UNL     1     -25.289 -12.749  28.277  1.00  0.00    -0.388 OA
HETATM   26  C1  UNL     1     -24.731 -13.682  29.146  1.00  0.00     0.202 C
ENDBRANCH   1  25
BRANCH  24  27
HETATM   27  O3  UNL     1     -25.212 -10.940  24.210  1.00  0.00    -0.393 OA
ATOM     28  H3  UNL     1     -24.814 -10.441  23.506  1.00  0.00     0.210 HD
ENDBRANCH  24  27
TORSDOF 2
ENDMDL