MODEL 4
REMARK VINA RESULT: -6.545706078      3.752      6.196
REMARK  0 active torsions:
REMARK  status: ('A' for Active; 'I' for Inactive)
ROOT
HETATM    1  C1  UNL     1     -29.194  -1.958  30.250  1.00  0.00     0.149 C
HETATM    2  N1  UNL     1     -29.840  -2.518  29.135  1.00  0.00    -0.391 N
HETATM    3  C2  UNL     1     -29.461  -2.082  27.856  1.00  0.00     0.060 C
HETATM    4  C3  UNL     1     -28.361  -2.918  27.222  1.00  0.00     0.076 C
HETATM    5  C4  UNL     1     -28.906  -4.258  26.753  1.00  0.00     0.130 C
HETATM    6  O1  UNL     1     -30.224  -4.414  26.879  1.00  0.00    -0.383 OA
HETATM    7  C5  UNL     1     -30.897  -4.369  28.003  1.00  0.00     0.193 C
HETATM    8  C6  UNL     1     -30.260  -3.878  29.256  1.00  0.00     0.106 C
HETATM    9  C7  UNL     1     -29.250  -4.793  29.862  1.00  0.00     0.028 C
HETATM   10  C8  UNL     1     -29.283  -6.193  29.361  1.00  0.00     0.007 C
HETATM   11  C9  UNL     1     -28.858  -6.440  27.991  1.00  0.00    -0.003 C
HETATM   12  C10 UNL     1     -28.043  -5.348  27.334  1.00  0.00     0.020 C
HETATM   13  C11 UNL     1     -27.202  -6.062  26.277  1.00  0.00     0.013 C
HETATM   14  C12 UNL     1     -27.591  -7.489  26.407  1.00  0.00     0.001 C
HETATM   15  C13 UNL     1     -27.819  -7.551  27.926  1.00  0.00    -0.003 C
HETATM   16  C14 UNL     1     -28.325  -8.894  28.252  1.00  0.00     0.040 C
HETATM   17  C15 UNL     1     -27.171  -9.862  28.086  1.00  0.00     0.162 C
HETATM   18  O2  UNL     1     -26.718 -10.190  29.343  1.00  0.00    -0.356 OA
HETATM   19  C16 UNL     1     -25.572  -9.560  29.737  1.00  0.00     0.379 C
HETATM   20  O3  UNL     1     -24.602  -9.496  28.738  1.00  0.00    -0.214 OA
HETATM   21  O4  UNL     1     -25.072  -8.699  27.807  1.00  0.00    -0.224 OA
HETATM   22  C17 UNL     1     -26.108  -9.371  27.162  1.00  0.00     0.126 C
HETATM   23  C18 UNL     1     -25.463 -10.619  26.539  1.00  0.00     0.053 C
HETATM   24  C19 UNL     1     -26.598  -8.504  26.051  1.00  0.00    -0.007 C
HETATM   25  C20 UNL     1     -27.227  -9.436  25.003  1.00  0.00     0.018 C
HETATM   26  C21 UNL     1     -25.412  -7.858  25.372  1.00  0.00     0.018 C
ENDROOT
TORSDOF 0
ENDMDL