MODEL 1
REMARK VINA RESULT: -7.321548262      0.000      0.000
REMARK  1 active torsions:
REMARK  status: ('A' for Active; 'I' for Inactive)
REMARK    1  A    between atoms: C2_2  and  C3_3
ROOT
HETATM    1  C3  UNL     1     -26.030  -4.388  25.273  1.00  0.00    -0.013 C
HETATM    2  C4  UNL     1     -24.687  -5.039  25.375  1.00  0.00     0.005 C
HETATM    3  C5  UNL     1     -24.688  -6.464  24.892  1.00  0.00     0.000 C
HETATM    4  C6  UNL     1     -25.597  -7.356  25.673  1.00  0.00     0.000 C
HETATM    5  C7  UNL     1     -24.804  -8.473  26.358  1.00  0.00     0.000 C
HETATM    6  C8  UNL     1     -25.671  -9.211  27.345  1.00  0.00     0.002 C
HETATM    7  C9  UNL     1     -24.782  -9.939  28.305  1.00  0.00     0.026 C
HETATM    8  C10 UNL     1     -25.497 -10.309  29.598  1.00  0.00     0.167 C
HETATM    9  O1  UNL     1     -26.021  -9.204  30.236  1.00  0.00    -0.389 OA
HETATM   10  C11 UNL     1     -25.981  -9.282  31.613  1.00  0.00     0.193 C
HETATM   11  C12 UNL     1     -27.234  -8.643  32.210  1.00  0.00     0.193 C
HETATM   12  O2  UNL     1     -27.341  -7.319  31.807  1.00  0.00    -0.387 OA
HETATM   13  C13 UNL     1     -28.325  -6.682  32.528  1.00  0.00     0.193 C
HETATM   14  C14 UNL     1     -28.047  -5.215  32.762  1.00  0.00     0.193 C
HETATM   15  O3  UNL     1     -28.301  -4.436  31.635  1.00  0.00    -0.387 OA
HETATM   16  C15 UNL     1     -29.209  -3.468  31.980  1.00  0.00     0.193 C
HETATM   17  C16 UNL     1     -29.169  -2.238  31.136  1.00  0.00     0.193 C
HETATM   18  O4  UNL     1     -28.666  -2.430  29.870  1.00  0.00    -0.387 OA
HETATM   19  C17 UNL     1     -28.939  -1.247  29.152  1.00  0.00     0.198 C
HETATM   20  C18 UNL     1     -28.102  -1.156  27.906  1.00  0.00     0.299 C
HETATM   21  N1  UNL     1     -27.994  -2.456  27.330  1.00  0.00     0.099 N
HETATM   22  C19 UNL     1     -28.611  -2.800  26.093  1.00  0.00     0.308 A
HETATM   23  C20 UNL     1     -27.245  -2.323  26.030  1.00  0.00     0.251 A
HETATM   24  C21 UNL     1     -26.039  -3.181  26.170  1.00  0.00     0.042 C
ENDROOT
BRANCH   1  25
HETATM   25  C2  UNL     1     -26.424  -4.067  23.857  1.00  0.00     0.000 C
HETATM   26  C1  UNL     1     -25.289  -3.634  22.995  1.00  0.00     0.005 C
ENDBRANCH   1  25
TORSDOF 1
ENDMDL