MODEL 3
REMARK VINA RESULT: -6.346646063      2.134      7.954
REMARK  1 active torsions:
REMARK  status: ('A' for Active; 'I' for Inactive)
REMARK    1  A    between atoms: C8_12  and  N1_13
ROOT
HETATM    1  N1  UNL     1     -27.597  -6.717  26.690  1.00  0.00    -0.351 N
HETATM    2  C9  UNL     1     -28.426  -5.943  27.503  1.00  0.00     0.065 C
HETATM    3  C10 UNL     1     -29.525  -5.198  26.775  1.00  0.00     0.046 C
HETATM    4  C11 UNL     1     -29.684  -3.783  27.196  1.00  0.00     0.016 C
HETATM    5  C12 UNL     1     -28.628  -2.839  26.809  1.00  0.00    -0.018 C
HETATM    6  C13 UNL     1     -29.291  -1.600  26.196  1.00  0.00     0.012 C
HETATM    7  C14 UNL     1     -28.445  -0.432  26.577  1.00  0.00     0.001 C
HETATM    8  C15 UNL     1     -27.337  -0.934  27.461  1.00  0.00     0.001 C
HETATM    9  C16 UNL     1     -27.897  -2.223  27.985  1.00  0.00     0.012 C
HETATM   10  C17 UNL     1     -27.622  -3.325  25.819  1.00  0.00     0.177 C
HETATM   11  O4  UNL     1     -26.580  -3.968  26.455  1.00  0.00    -0.385 OA
HETATM   12  C18 UNL     1     -26.049  -5.031  25.773  1.00  0.00     0.212 C
HETATM   13  C19 UNL     1     -26.995  -6.182  25.563  1.00  0.00     0.090 C
ENDROOT
BRANCH   1  14
HETATM   14  C8  UNL     1     -27.391  -8.070  27.022  1.00  0.00     0.238 C
HETATM   15  S1  UNL     1     -27.883  -9.104  25.685  1.00  0.00     0.287 S
HETATM   16  O1  UNL     1     -28.811  -8.300  24.778  1.00  0.00    -0.196 OA
HETATM   17  O2  UNL     1     -26.688  -9.451  24.807  1.00  0.00    -0.196 OA
HETATM   18  O3  UNL     1     -28.720 -10.450  26.139  1.00  0.00    -0.274 OA
HETATM   19  C1  UNL     1     -28.325 -11.023  27.317  1.00  0.00     0.190 C
HETATM   20  C2  UNL     1     -27.004 -11.747  27.223  1.00  0.00     0.028 C
HETATM   21  C3  UNL     1     -26.188 -11.635  28.493  1.00  0.00     0.002 C
HETATM   22  C4  UNL     1     -24.878 -10.946  28.285  1.00  0.00     0.000 C
HETATM   23  C5  UNL     1     -24.696  -9.702  29.091  1.00  0.00     0.000 C
HETATM   24  C6  UNL     1     -25.773  -8.677  28.859  1.00  0.00     0.003 C
HETATM   25  C7  UNL     1     -25.950  -8.299  27.432  1.00  0.00     0.044 C
ENDBRANCH   1  14
TORSDOF 1
ENDMDL