MODEL 4
REMARK VINA RESULT: -5.732430475      5.437      7.925
REMARK  4 active torsions:
REMARK  status: ('A' for Active; 'I' for Inactive)
REMARK    1  A    between atoms: O1_2  and  C2_3
REMARK    2  A    between atoms: C2_3  and  C3_5
REMARK    3  A    between atoms: C11_14  and  O3_15
REMARK    4  A    between atoms: O3_15  and  C12_16
ROOT
HETATM    1  C3  UNL     1     -27.483  -9.474  29.624  1.00  0.00     0.065 C
HETATM    2  C4  UNL     1     -28.554 -10.565  29.745  1.00  0.00     0.023 C
HETATM    3  C5  UNL     1     -29.571 -10.493  28.654  1.00  0.00     0.031 C
HETATM    4  C6  UNL     1     -29.326 -11.478  27.530  1.00  0.00     0.273 C
HETATM    5  N1  UNL     1     -27.892 -11.648  27.387  1.00  0.00     0.094 N
HETATM    6  C7  UNL     1     -27.594 -12.582  26.369  1.00  0.00     0.273 C
HETATM    7  C8  UNL     1     -27.224 -12.077  25.040  1.00  0.00     0.031 C
HETATM    8  C9  UNL     1     -26.759 -10.653  24.974  1.00  0.00     0.011 C
HETATM    9  C10 UNL     1     -26.131 -10.345  26.284  1.00  0.00     0.049 C
HETATM   10  C11 UNL     1     -25.713  -8.924  26.482  1.00  0.00     0.139 C
HETATM   11  C14 UNL     1     -25.588  -8.913  28.016  1.00  0.00     0.046 C
HETATM   12  C15 UNL     1     -26.589  -9.882  28.512  1.00  0.00     0.011 C
HETATM   13  C16 UNL     1     -25.811 -11.070  29.089  1.00  0.00     0.018 C
HETATM   14  C17 UNL     1     -25.836 -10.929  30.564  1.00  0.00    -0.009 C
HETATM   15  C18 UNL     1     -24.398 -10.843  31.094  1.00  0.00     0.011 C
HETATM   16  C19 UNL     1     -26.597  -9.648  30.824  1.00  0.00    -0.027 C
HETATM   17  C20 UNL     1     -27.336  -9.863  32.119  1.00  0.00     0.016 C
HETATM   18  C21 UNL     1     -25.586  -8.560  30.998  1.00  0.00     0.016 C
HETATM   19  C22 UNL     1     -27.290 -10.372  27.294  1.00  0.00     0.239 C
ENDROOT
BRANCH   1  20
HETATM   20  C2  UNL     1     -28.056  -8.143  29.551  1.00  0.00     0.268 C
HETATM   21  O2  UNL     1     -28.765  -7.571  30.443  1.00  0.00    -0.264 OA
BRANCH  20  22
HETATM   22  O1  UNL     1     -27.855  -7.341  28.427  1.00  0.00    -0.326 OA
HETATM   23  C1  UNL     1     -28.873  -6.942  27.565  1.00  0.00     0.213 C
ENDBRANCH  20  22
ENDBRANCH   1  20
BRANCH  10  24
HETATM   24  O3  UNL     1     -24.577  -8.525  25.835  1.00  0.00    -0.316 OA
BRANCH  24  25
HETATM   25  C12 UNL     1     -24.310  -7.264  25.327  1.00  0.00     0.255 C
HETATM   26  C13 UNL     1     -25.416  -6.294  25.245  1.00  0.00     0.126 C
HETATM   27  O4  UNL     1     -23.140  -7.036  24.972  1.00  0.00    -0.266 OA
ENDBRANCH  24  25
ENDBRANCH  10  24
TORSDOF 4
ENDMDL