MODEL 1
REMARK VINA RESULT: -6.976362801      0.000      0.000
REMARK  2 active torsions:
REMARK  status: ('A' for Active; 'I' for Inactive)
REMARK    1  A    between atoms: C2_2  and  C3_3
REMARK    2  A    between atoms: C3_3  and  C4_4
ROOT
HETATM    1  C4  UNL     1     -27.231  -8.565  27.332  1.00  0.00     0.144 C
HETATM    2  O1  UNL     1     -26.274  -7.650  27.016  1.00  0.00    -0.223 OA
HETATM    3  O2  UNL     1     -25.414  -7.852  26.129  1.00  0.00    -0.239 OA
HETATM    4  C5  UNL     1     -25.571  -8.593  25.016  1.00  0.00     0.215 C
HETATM    5  C6  UNL     1     -26.585  -9.604  25.151  1.00  0.00     0.027 C
HETATM    6  C7  UNL     1     -26.335 -11.050  24.827  1.00  0.00     0.010 C
HETATM    7  C8  UNL     1     -27.343 -11.802  25.730  1.00  0.00     0.034 C
HETATM    8  C9  UNL     1     -27.929 -10.705  26.487  1.00  0.00     0.144 C
HETATM    9  O3  UNL     1     -28.677 -10.885  27.628  1.00  0.00    -0.314 OA
HETATM   10  C10 UNL     1     -28.767  -9.871  28.575  1.00  0.00     0.274 C
HETATM   11  O4  UNL     1     -29.783  -9.691  29.255  1.00  0.00    -0.264 OA
HETATM   12  C11 UNL     1     -27.567  -9.000  28.740  1.00  0.00     0.113 C
HETATM   13  C12 UNL     1     -27.472  -8.088  29.872  1.00  0.00     0.031 C
HETATM   14  C13 UNL     1     -26.474  -8.389  30.996  1.00  0.00    -0.010 C
HETATM   15  C14 UNL     1     -27.096  -8.835  32.253  1.00  0.00     0.010 C
HETATM   16  C15 UNL     1     -25.204  -9.159  30.608  1.00  0.00     0.025 C
HETATM   17  C16 UNL     1     -25.318 -10.662  30.623  1.00  0.00     0.127 C
HETATM   18  C17 UNL     1     -24.629 -11.186  29.356  1.00  0.00     0.037 C
HETATM   19  C18 UNL     1     -24.627 -10.045  28.323  1.00  0.00    -0.004 C
HETATM   20  C19 UNL     1     -25.440 -10.353  27.063  1.00  0.00     0.021 C
HETATM   21  C20 UNL     1     -26.725  -9.773  26.698  1.00  0.00     0.032 C
HETATM   22  C21 UNL     1     -25.390  -9.153  29.099  1.00  0.00     0.027 C
HETATM   23  C22 UNL     1     -26.615 -10.007  29.182  1.00  0.00     0.148 C
HETATM   24  O5  UNL     1     -26.727 -10.585  30.447  1.00  0.00    -0.378 OA
ENDROOT
BRANCH   1  25
HETATM   25  C3  UNL     1     -28.430  -7.793  27.013  1.00  0.00     0.015 C
BRANCH  25  26
HETATM   26  C2  UNL     1     -28.415  -6.334  26.857  1.00  0.00    -0.011 C
HETATM   27  C1  UNL     1     -29.156  -5.563  27.616  1.00  0.00     0.011 C
ENDBRANCH  25  26
ENDBRANCH   1  25
TORSDOF 2
ENDMDL