MODEL 1
REMARK VINA RESULT: -8.548807966      0.000      0.000
REMARK  1 active torsions:
REMARK  status: ('A' for Active; 'I' for Inactive)
REMARK    1  A    between atoms: C2_2  and  C3_3
REMARK       I    between atoms: C3_3  and  N1_5
ROOT
HETATM    1  C3  UNL     1     -24.622  -4.640  24.499  1.00  0.00     0.219 C
HETATM    2  O1  UNL     1     -23.529  -4.035  24.366  1.00  0.00    -0.273 OA
HETATM    3  N1  UNL     1     -24.605  -5.959  25.004  1.00  0.00    -0.346 N
HETATM    4  C4  UNL     1     -25.661  -6.914  25.275  1.00  0.00     0.137 C
HETATM    5  C5  UNL     1     -24.601  -7.952  25.536  1.00  0.00     0.001 C
HETATM    6  C6  UNL     1     -24.612  -9.003  24.477  1.00  0.00     0.019 C
HETATM    7  C7  UNL     1     -25.742  -9.914  24.980  1.00  0.00     0.072 C
HETATM    8  C8  UNL     1     -25.549  -9.893  26.468  1.00  0.00     0.201 C
HETATM    9  C9  UNL     1     -24.707  -8.710  26.815  1.00  0.00     0.084 C
HETATM   10  O2  UNL     1     -24.972 -11.104  26.837  1.00  0.00    -0.197 OA
HETATM   11  O3  UNL     1     -25.989 -11.819  27.294  1.00  0.00    -0.197 OA
HETATM   12  C10 UNL     1     -26.659 -10.870  28.059  1.00  0.00     0.206 C
HETATM   13  C11 UNL     1     -25.856 -10.598  29.281  1.00  0.00     0.074 C
HETATM   14  C12 UNL     1     -26.914 -10.509  30.387  1.00  0.00     0.038 C
HETATM   15  C13 UNL     1     -27.816 -11.670  29.937  1.00  0.00     0.131 C
HETATM   16  O4  UNL     1     -28.953 -11.632  30.687  1.00  0.00    -0.380 OA
HETATM   17  C14 UNL     1     -29.950 -12.482  30.329  1.00  0.00     0.122 C
HETATM   18  C15 UNL     1     -29.511 -13.759  29.684  1.00  0.00     0.036 C
HETATM   19  C16 UNL     1     -29.736 -13.102  28.340  1.00  0.00    -0.009 C
HETATM   20  C17 UNL     1     -30.641 -12.119  29.038  1.00  0.00     0.036 C
HETATM   21  C18 UNL     1     -28.516 -12.499  27.752  1.00  0.00     0.017 C
HETATM   22  C19 UNL     1     -28.025 -11.290  28.482  1.00  0.00     0.080 C
HETATM   23  O5  UNL     1     -26.737  -9.800  27.178  1.00  0.00    -0.313 OA
HETATM   24  C20 UNL     1     -23.575  -6.886  25.450  1.00  0.00     0.093 C
HETATM   25  C21 UNL     1     -22.451  -7.087  24.472  1.00  0.00     0.033 C
ENDROOT
BRANCH   1  26
HETATM   26  C2  UNL     1     -25.907  -4.003  24.142  1.00  0.00     0.098 C
HETATM   27  C1  UNL     1     -26.502  -3.404  25.397  1.00  0.00     0.014 C
ENDBRANCH   1  26
TORSDOF 1
ENDMDL