MODEL 1
REMARK VINA RESULT: -7.274993176      0.000      0.000
REMARK  4 active torsions:
REMARK  status: ('A' for Active; 'I' for Inactive)
REMARK    1  A    between atoms: C14_15  and  O2_16
REMARK    2  A    between atoms: O2_16  and  C15_17
REMARK    3  A    between atoms: C20_23  and  O4_24
REMARK    4  A    between atoms: O4_24  and  C21_25
ROOT
HETATM    1  C1  UNL     1     -29.238 -11.430  30.038  1.00  0.00     0.049 C
HETATM    2  C2  UNL     1     -28.428 -10.569  29.491  1.00  0.00     0.068 C
HETATM    3  O1  UNL     1     -27.059 -10.599  29.242  1.00  0.00    -0.347 OA
HETATM    4  C3  UNL     1     -26.780  -9.895  28.018  1.00  0.00     0.140 C
HETATM    5  C4  UNL     1     -25.690  -8.907  28.124  1.00  0.00     0.034 C
HETATM    6  C5  UNL     1     -24.961  -8.885  26.803  1.00  0.00     0.008 C
HETATM    7  C6  UNL     1     -25.367  -7.815  25.873  1.00  0.00     0.002 A
HETATM    8  C7  UNL     1     -26.437  -8.070  24.924  1.00  0.00     0.003 A
HETATM    9  C8  UNL     1     -27.489  -9.067  25.325  1.00  0.00     0.012 C
HETATM   10  C9  UNL     1     -28.261  -8.471  26.527  1.00  0.00     0.005 C
HETATM   11  C10 UNL     1     -27.836  -7.128  26.369  1.00  0.00     0.006 C
HETATM   12  C11 UNL     1     -28.135  -5.987  27.235  1.00  0.00    -0.011 C
HETATM   13  C12 UNL     1     -29.602  -5.658  27.353  1.00  0.00     0.010 C
HETATM   14  C13 UNL     1     -27.480  -4.863  26.436  1.00  0.00     0.038 C
HETATM   15  C14 UNL     1     -26.421  -5.526  25.566  1.00  0.00     0.142 C
HETATM   16  C17 UNL     1     -26.424  -6.969  26.045  1.00  0.00    -0.001 A
HETATM   17  C18 UNL     1     -28.121  -9.401  27.611  1.00  0.00     0.019 C
HETATM   18  C19 UNL     1     -28.836 -10.698  27.114  1.00  0.00     0.021 C
HETATM   19  C20 UNL     1     -28.777  -9.181  28.930  1.00  0.00     0.198 C
ENDROOT
BRANCH  15  20
HETATM   20  O2  UNL     1     -25.178  -4.922  25.662  1.00  0.00    -0.315 OA
BRANCH  20  21
HETATM   21  C15 UNL     1     -24.624  -4.324  24.537  1.00  0.00     0.255 C
HETATM   22  C16 UNL     1     -25.436  -3.869  23.379  1.00  0.00     0.126 C
HETATM   23  O3  UNL     1     -23.378  -4.146  24.467  1.00  0.00    -0.266 OA
ENDBRANCH  20  21
ENDBRANCH  15  20
BRANCH  19  24
HETATM   24  O4  UNL     1     -28.118  -8.369  29.845  1.00  0.00    -0.309 OA
BRANCH  24  25
HETATM   25  C21 UNL     1     -28.823  -7.418  30.562  1.00  0.00     0.255 C
HETATM   26  C22 UNL     1     -30.311  -7.416  30.608  1.00  0.00     0.126 C
HETATM   27  O5  UNL     1     -28.239  -6.497  31.215  1.00  0.00    -0.266 OA
ENDBRANCH  24  25
ENDBRANCH  19  24
TORSDOF 4
ENDMDL