MODEL 4
REMARK VINA RESULT: -5.388215828      2.540      5.792
REMARK  2 active torsions:
REMARK  status: ('A' for Active; 'I' for Inactive)
REMARK    1  A    between atoms: C2_2  and  C3_3
REMARK    2  A    between atoms: C3_3  and  C4_4
ROOT
HETATM    1  C4  UNL     1     -27.691  -8.227  27.472  1.00  0.00     0.026 C
HETATM    2  C5  UNL     1     -28.165  -7.114  28.374  1.00  0.00     0.087 C
HETATM    3  S1  UNL     1     -29.922  -7.214  28.735  1.00  0.00    -0.167 SA
HETATM    4  C6  UNL     1     -30.436  -8.596  29.690  1.00  0.00     0.104 C
HETATM    5  C7  UNL     1     -29.369  -9.525  30.157  1.00  0.00     0.286 C
HETATM    6  N1  UNL     1     -28.257  -9.477  29.312  1.00  0.00     0.131 N
HETATM    7  C8  UNL     1     -27.307 -10.491  29.349  1.00  0.00     0.481 C
HETATM    8  C9  UNL     1     -26.536 -10.949  30.485  1.00  0.00     0.239 C
HETATM    9  O1  UNL     1     -25.619 -11.867  29.965  1.00  0.00    -0.358 OA
HETATM   10  C10 UNL     1     -26.118 -12.840  29.131  1.00  0.00     0.171 C
HETATM   11  C11 UNL     1     -24.966 -13.797  28.905  1.00  0.00     0.059 C
HETATM   12  C12 UNL     1     -25.474 -15.161  28.656  1.00  0.00     0.014 C
HETATM   13  C13 UNL     1     -26.514 -15.531  29.658  1.00  0.00     0.077 C
HETATM   14  S2  UNL     1     -27.332 -13.912  29.914  1.00  0.00    -0.123 SA
HETATM   15  C14 UNL     1     -26.533 -12.351  27.787  1.00  0.00     0.205 C
HETATM   16  O2  UNL     1     -26.732 -13.239  26.989  1.00  0.00    -0.291 OA
HETATM   17  C15 UNL     1     -26.763 -10.996  27.197  1.00  0.00     0.301 C
HETATM   18  C16 UNL     1     -28.240 -10.625  27.091  1.00  0.00     0.080 C
HETATM   19  C17 UNL     1     -28.611  -9.397  27.876  1.00  0.00     0.239 C
HETATM   20  N2  UNL     1     -26.340 -10.123  28.306  1.00  0.00     0.137 N
HETATM   21  C18 UNL     1     -26.326  -8.745  27.971  1.00  0.00     0.288 C
ENDROOT
BRANCH   1  22
HETATM   22  C3  UNL     1     -27.698  -7.955  26.033  1.00  0.00     0.014 C
BRANCH  22  23
HETATM   23  C2  UNL     1     -26.330  -7.594  25.548  1.00  0.00    -0.004 C
HETATM   24  C1  UNL     1     -26.225  -6.061  25.398  1.00  0.00     0.005 C
ENDBRANCH  22  23
ENDBRANCH   1  22
TORSDOF 2
ENDMDL