MODEL 3
REMARK VINA RESULT: -7.636003980      2.778      7.040
REMARK  8 active torsions:
REMARK  status: ('A' for Active; 'I' for Inactive)
REMARK    1  A    between atoms: C3_5  and  N2_6
REMARK    2  A    between atoms: C4_9  and  C5_10
REMARK    3  A    between atoms: C7_12  and  N3_13
REMARK       I    between atoms: N3_13  and  C8_15
REMARK       I    between atoms: C8_15  and  N4_17
REMARK    4  A    between atoms: N5_21  and  C12_22
REMARK    5  A    between atoms: C12_22  and  C13_23
REMARK    6  A    between atoms: C15_26  and  C16_27
REMARK    7  A    between atoms: C19_30  and  C20_31
REMARK    8  A    between atoms: C20_31  and  N6_32
ROOT
HETATM    1  C1  UNL     1      18.517 -23.100 -40.727  1.00  0.00     0.069 C
HETATM    2  C2  UNL     1      18.643 -23.481 -42.116  1.00  0.00     0.017 A
HETATM    3  N1  UNL     1      17.881 -24.557 -42.496  1.00  0.00    -0.345 N
ATOM      4  H1  UNL     1      17.319 -25.016 -41.779  1.00  0.00     0.167 HD
HETATM    5  C3  UNL     1      17.823 -25.052 -43.752  1.00  0.00     0.111 A
HETATM    6  C4  UNL     1      18.551 -24.476 -44.731  1.00  0.00     0.035 A
HETATM    7  C14 UNL     1      19.337 -23.370 -44.355  1.00  0.00     0.031 A
HETATM    8  C15 UNL     1      19.390 -22.864 -43.039  1.00  0.00    -0.011 A
ENDROOT
BRANCH   6   9
HETATM    9  C5  UNL     1      18.584 -24.823 -46.139  1.00  0.00     0.050 A
HETATM   10  C6  UNL     1      19.777 -24.595 -46.873  1.00  0.00     0.061 A
HETATM   11  C7  UNL     1      19.590 -24.871 -48.196  1.00  0.00     0.054 A
HETATM   12  C11 UNL     1      18.295 -25.261 -48.291  1.00  0.00     0.121 A
HETATM   13  N5  UNL     1      17.714 -25.222 -47.034  1.00  0.00    -0.351 N
BRANCH  11  14
HETATM   14  N3  UNL     1      20.553 -24.739 -49.261  1.00  0.00    -0.307 N
HETATM   15  C8  UNL     1      21.133 -25.863 -49.875  1.00  0.00     0.322 C
HETATM   16  O1  UNL     1      20.775 -27.016 -49.428  1.00  0.00    -0.247 OA
HETATM   17  N4  UNL     1      22.071 -25.815 -50.932  1.00  0.00    -0.343 N
HETATM   18  C9  UNL     1      22.520 -24.577 -51.514  1.00  0.00     0.154 C
HETATM   19  C10 UNL     1      22.607 -27.057 -51.448  1.00  0.00     0.154 C
ATOM     20  H3  UNL     1      20.820 -23.806 -49.578  1.00  0.00     0.170 HD
ENDBRANCH  11  14
BRANCH  13  21
HETATM   21  C12 UNL     1      16.334 -25.621 -46.952  1.00  0.00     0.160 C
BRANCH  21  22
HETATM   22  C13 UNL     1      16.184 -27.038 -47.479  1.00  0.00     0.242 C
HETATM   23  F1  UNL     1      16.676 -27.968 -46.555  1.00  0.00    -0.254 F
ENDBRANCH  21  22
ENDBRANCH  13  21
ENDBRANCH   6   9
BRANCH   5  24
HETATM   24  N2  UNL     1      17.106 -26.132 -43.923  1.00  0.00    -0.385 N
ATOM     25  H22 UNL     1      17.437 -27.071 -43.701  1.00  0.00     0.157 HD
ATOM     26  H21 UNL     1      16.146 -25.997 -44.238  1.00  0.00     0.157 HD
ENDBRANCH   5  24
BRANCH   8  27
HETATM   27  C16 UNL     1      20.394 -21.825 -42.775  1.00  0.00    -0.068 C
HETATM   28  C17 UNL     1      21.746 -22.399 -42.393  1.00  0.00     0.035 C
HETATM   29  C18 UNL     1      22.898 -21.693 -43.057  1.00  0.00     0.010 C
HETATM   30  C19 UNL     1      22.759 -20.200 -43.124  1.00  0.00     0.011 C
HETATM   31  C21 UNL     1      21.539 -19.968 -44.019  1.00  0.00     0.010 C
HETATM   32  C22 UNL     1      20.321 -20.485 -43.248  1.00  0.00     0.035 C
BRANCH  30  33
HETATM   33  C20 UNL     1      23.941 -19.603 -43.837  1.00  0.00     0.234 C
BRANCH  33  34
HETATM   34  N6  UNL     1      25.217 -20.122 -43.384  1.00  0.00    -0.079 N
ATOM     35  H63 UNL     1      25.757 -20.487 -44.170  1.00  0.00     0.274 HD
ATOM     36  H62 UNL     1      25.833 -19.361 -43.094  1.00  0.00     0.274 HD
ATOM     37  H61 UNL     1      25.138 -20.821 -42.646  1.00  0.00     0.274 HD
ENDBRANCH  33  34
ENDBRANCH  30  33
ENDBRANCH   8  27
TORSDOF 8
ENDMDL