MODEL 4
REMARK VINA RESULT: -7.756001208      0.616      1.564
REMARK  7 active torsions:
REMARK  status: ('A' for Active; 'I' for Inactive)
REMARK    1  A    between atoms: C4_4  and  C5_5
REMARK    2  A    between atoms: C5_5  and  C6_7
REMARK    3  A    between atoms: C6_7  and  C7_8
REMARK    4  A    between atoms: N1_11  and  C10_12
REMARK    5  A    between atoms: C10_12  and  C11_13
REMARK    6  A    between atoms: C14_18  and  N3_19
REMARK    7  A    between atoms: C15_24  and  N5_25
ROOT
HETATM    1  C7  UNL     1      20.909 -21.058 -44.147  1.00  0.00    -0.005 C
HETATM    2  C8  UNL     1      21.816 -22.066 -44.737  1.00  0.00     0.020 C
HETATM    3  C9  UNL     1      21.183 -23.417 -44.664  1.00  0.00     0.095 C
HETATM    4  N1  UNL     1      19.847 -23.513 -44.242  1.00  0.00    -0.292 NA
HETATM    5  C16 UNL     1      19.390 -22.654 -43.231  1.00  0.00     0.095 C
HETATM    6  C17 UNL     1      20.408 -21.596 -42.832  1.00  0.00     0.020 C
ENDROOT
BRANCH   4   7
HETATM    7  C10 UNL     1      18.947 -23.592 -45.327  1.00  0.00     0.076 C
BRANCH   7   8
HETATM    8  C11 UNL     1      18.687 -24.845 -46.006  1.00  0.00     0.041 A
HETATM    9  C12 UNL     1      17.858 -25.779 -45.363  1.00  0.00     0.037 A
HETATM   10  C13 UNL     1      17.235 -25.438 -44.056  1.00  0.00     0.070 C
HETATM   11  N2  UNL     1      17.657 -26.954 -45.957  1.00  0.00    -0.195 N
HETATM   12  C14 UNL     1      18.208 -27.290 -47.137  1.00  0.00     0.677 A
ATOM     13  H2  UNL     1      17.055 -27.634 -45.493  1.00  0.00     0.184 HD
HETATM   14  N4  UNL     1      18.994 -26.428 -47.762  1.00  0.00    -0.176 N
HETATM   15  C15 UNL     1      19.227 -25.214 -47.192  1.00  0.00     0.127 A
ATOM     16  H4  UNL     1      19.418 -26.670 -48.658  1.00  0.00     0.186 HD
BRANCH  12  17
HETATM   17  N3  UNL     1      17.968 -28.462 -47.664  1.00  0.00    -0.234 N
ATOM     18  H32 UNL     1      18.357 -29.304 -47.240  1.00  0.00     0.174 HD
ATOM     19  H31 UNL     1      17.391 -28.538 -48.502  1.00  0.00     0.174 HD
ENDBRANCH  12  17
BRANCH  15  20
HETATM   20  N5  UNL     1      20.047 -24.471 -47.855  1.00  0.00    -0.384 N
ATOM     21  H52 UNL     1      20.362 -23.644 -47.348  1.00  0.00     0.157 HD
ATOM     22  H51 UNL     1      20.325 -24.668 -48.816  1.00  0.00     0.157 HD
ENDBRANCH  15  20
ENDBRANCH   7   8
ENDBRANCH   4   7
BRANCH   1  23
HETATM   23  C6  UNL     1      21.421 -19.661 -44.057  1.00  0.00     0.088 C
BRANCH  23  24
HETATM   24  C5  UNL     1      22.848 -19.479 -43.870  1.00  0.00     0.160 C
HETATM   25  O1  UNL     1      23.418 -19.836 -42.825  1.00  0.00    -0.292 OA
BRANCH  24  26
HETATM   26  C4  UNL     1      23.620 -18.865 -44.932  1.00  0.00     0.017 A
HETATM   27  C3  UNL     1      23.362 -17.552 -45.342  1.00  0.00     0.025 A
HETATM   28  C2  UNL     1      24.057 -16.934 -46.334  1.00  0.00    -0.022 A
HETATM   29  C1  UNL     1      23.738 -15.536 -46.728  1.00  0.00     0.051 C
HETATM   30  C22 UNL     1      25.066 -17.621 -46.972  1.00  0.00     0.128 A
HETATM   31  C20 UNL     1      25.349 -18.919 -46.592  1.00  0.00    -0.016 A
HETATM   32  F1  UNL     1      25.756 -16.993 -47.963  1.00  0.00    -0.205 F
HETATM   33  C18 UNL     1      24.625 -19.551 -45.566  1.00  0.00    -0.039 A
HETATM   34  C21 UNL     1      26.428 -19.636 -47.284  1.00  0.00     0.052 C
HETATM   35  C19 UNL     1      25.018 -20.928 -45.252  1.00  0.00     0.050 C
ENDBRANCH  24  26
ENDBRANCH  23  24
ENDBRANCH   1  23
TORSDOF 7
ENDMDL