MODEL 1
REMARK VINA RESULT: -7.716336129      0.000      0.000
REMARK  6 active torsions:
REMARK  status: ('A' for Active; 'I' for Inactive)
REMARK    1  A    between atoms: C2_2  and  C4_4
REMARK       I    between atoms: N1_6  and  C6_7
REMARK    2  A    between atoms: C8_13  and  N4_14
REMARK    3  A    between atoms: N4_14  and  C9_16
REMARK    4  A    between atoms: C10_19  and  N6_20
REMARK    5  A    between atoms: N6_20  and  C11_22
REMARK    6  A    between atoms: N7_30  and  C18_31
ROOT
HETATM    1  C9  UNL     1      20.744 -22.055 -43.643  1.00  0.00     0.684 A
HETATM    2  N5  UNL     1      21.045 -20.795 -44.019  1.00  0.00    -0.174 N
ATOM      3  H5  UNL     1      20.420 -20.173 -44.532  1.00  0.00     0.186 HD
HETATM    4  C10 UNL     1      22.287 -20.480 -43.622  1.00  0.00     0.157 A
HETATM    5  C17 UNL     1      22.750 -21.618 -42.970  1.00  0.00     0.166 A
HETATM    6 CL1  UNL     1      24.328 -21.791 -42.235  1.00  0.00    -0.060 Cl
HETATM    7  N7  UNL     1      21.819 -22.585 -42.975  1.00  0.00    -0.164 N
ENDROOT
BRANCH   1   8
HETATM    8  N4  UNL     1      19.625 -22.647 -43.880  1.00  0.00    -0.219 N
ATOM      9  H4  UNL     1      18.743 -22.225 -43.590  1.00  0.00     0.178 HD
BRANCH   8  10
HETATM   10  C8  UNL     1      19.641 -23.915 -44.560  1.00  0.00     0.123 C
HETATM   11  C4  UNL     1      18.256 -24.466 -44.618  1.00  0.00     0.032 C
HETATM   12  C5  UNL     1      18.027 -24.860 -46.033  1.00  0.00     0.132 C
HETATM   13  N1  UNL     1      19.257 -24.631 -46.720  1.00  0.00    -0.353 N
HETATM   14  C6  UNL     1      19.613 -25.261 -47.958  1.00  0.00     0.184 C
HETATM   15  C7  UNL     1      20.080 -23.679 -45.989  1.00  0.00     0.151 C
HETATM   16  N2  UNL     1      20.307 -24.588 -48.794  1.00  0.00    -0.374 N
HETATM   17  N3  UNL     1      19.169 -26.595 -48.176  1.00  0.00    -0.064 NA
ATOM     18  H22 UNL     1      20.625 -23.631 -48.638  1.00  0.00     0.158 HD
ATOM     19  H21 UNL     1      20.560 -25.037 -49.674  1.00  0.00     0.158 HD
BRANCH  11  20
HETATM   20  C2  UNL     1      18.001 -25.574 -43.619  1.00  0.00    -0.015 C
HETATM   21  C1  UNL     1      17.067 -25.024 -42.564  1.00  0.00     0.010 C
HETATM   22  C3  UNL     1      17.398 -26.801 -44.221  1.00  0.00     0.010 C
ENDBRANCH  11  20
ENDBRANCH   8  10
ENDBRANCH   1   8
BRANCH   7  23
HETATM   23  C18 UNL     1      21.863 -23.904 -42.429  1.00  0.00     0.109 A
HETATM   24  C19 UNL     1      22.722 -24.219 -41.218  1.00  0.00     0.028 A
HETATM   25  C20 UNL     1      22.961 -24.849 -42.602  1.00  0.00     0.028 A
ENDBRANCH   7  23
BRANCH   4  26
HETATM   26  N6  UNL     1      23.038 -19.297 -43.761  1.00  0.00    -0.369 N
ATOM     27  H6  UNL     1      23.089 -18.673 -42.956  1.00  0.00     0.161 HD
BRANCH  26  28
HETATM   28  C11 UNL     1      23.743 -18.905 -44.961  1.00  0.00     0.083 C
HETATM   29  C12 UNL     1      24.935 -19.797 -45.152  1.00  0.00     0.025 C
HETATM   30  C13 UNL     1      25.570 -19.595 -46.514  1.00  0.00     0.002 C
HETATM   31  C14 UNL     1      25.385 -18.137 -46.938  1.00  0.00     0.000 C
HETATM   32  C15 UNL     1      25.420 -17.297 -45.687  1.00  0.00     0.002 C
HETATM   33  C16 UNL     1      24.126 -17.448 -44.897  1.00  0.00     0.025 C
ENDBRANCH  26  28
ENDBRANCH   4  26
TORSDOF 6
ENDMDL