MODEL 2
REMARK VINA RESULT: -7.412487272      2.643      8.135
REMARK  10 active torsions:
REMARK  status: ('A' for Active; 'I' for Inactive)
REMARK    1  A    between atoms: C4_4  and  C5_5
REMARK    2  A    between atoms: C5_5  and  C6_6
REMARK    3  A    between atoms: C7_7  and  O1_8
REMARK    4  A    between atoms: C9_11  and  O2_12
REMARK    5  A    between atoms: C10_14  and  C11_15
REMARK    6  A    between atoms: C11_15  and  O3_16
REMARK    7  A    between atoms: C12_18  and  C13_19
REMARK    8  A    between atoms: C13_19  and  C14_20
REMARK    9  A    between atoms: C14_20  and  C15_21
REMARK   10  A    between atoms: C21_27  and  O4_28
ROOT
HETATM    1  C11 UNL     1      20.651 -22.205 -43.903  1.00  0.00     0.058 C
HETATM    2  C12 UNL     1      19.789 -22.218 -44.906  1.00  0.00     0.088 C
ENDROOT
BRANCH   1   3
HETATM    3  C10 UNL     1      21.425 -23.386 -43.502  1.00  0.00     0.078 C
HETATM    4  C6  UNL     1      22.907 -23.191 -43.537  1.00  0.00     0.031 C
HETATM    5  C7  UNL     1      23.446 -24.123 -42.485  1.00  0.00     0.125 C
HETATM    6  C8  UNL     1      22.413 -24.021 -41.388  1.00  0.00     0.064 C
HETATM    7  C9  UNL     1      21.091 -23.827 -42.094  1.00  0.00     0.131 C
BRANCH   4   8
HETATM    8  C5  UNL     1      23.369 -21.769 -43.315  1.00  0.00     0.035 C
BRANCH   8   9
HETATM    9  C4  UNL     1      24.183 -21.317 -44.491  1.00  0.00    -0.024 C
HETATM   10  C2  UNL     1      24.210 -20.074 -44.938  1.00  0.00    -0.091 C
HETATM   11  C1  UNL     1      25.058 -19.699 -46.131  1.00  0.00     0.042 C
HETATM   12  C3  UNL     1      23.414 -18.970 -44.326  1.00  0.00     0.042 C
ENDBRANCH   8   9
ENDBRANCH   4   8
BRANCH   5  13
HETATM   13  O1  UNL     1      23.461 -25.416 -42.974  1.00  0.00    -0.395 OA
ATOM     14  H1  UNL     1      22.809 -25.937 -42.520  1.00  0.00     0.210 HD
ENDBRANCH   5  13
BRANCH   7  15
HETATM   15  O2  UNL     1      20.334 -22.913 -41.406  1.00  0.00    -0.395 OA
ATOM     16  H2  UNL     1      19.535 -22.736 -41.888  1.00  0.00     0.210 HD
ENDBRANCH   7  15
ENDBRANCH   1   3
BRANCH   1  17
HETATM   17  O3  UNL     1      20.801 -20.976 -43.214  1.00  0.00    -0.364 OA
ATOM     18  H3  UNL     1      20.089 -20.625 -42.692  1.00  0.00     0.217 HD
ENDBRANCH   1  17
BRANCH   2  19
HETATM   19  C13 UNL     1      19.464 -23.313 -45.726  1.00  0.00    -0.125 C
BRANCH  19  20
HETATM   20  C14 UNL     1      19.186 -24.251 -46.425  1.00  0.00     0.062 C
BRANCH  20  21
HETATM   21  C15 UNL     1      18.462 -24.338 -47.711  1.00  0.00    -0.053 C
HETATM   22  C16 UNL     1      17.739 -23.385 -48.313  1.00  0.00    -0.009 C
HETATM   23  C17 UNL     1      17.203 -23.924 -49.591  1.00  0.00    -0.015 C
HETATM   24  C18 UNL     1      18.262 -23.694 -50.644  1.00  0.00     0.020 C
HETATM   25  C19 UNL     1      15.941 -23.274 -50.064  1.00  0.00     0.016 C
HETATM   26  C23 UNL     1      17.021 -25.358 -49.251  1.00  0.00     0.004 C
HETATM   27  C20 UNL     1      14.805 -23.446 -49.123  1.00  0.00     0.036 C
HETATM   28  C21 UNL     1      14.700 -24.760 -48.425  1.00  0.00     0.153 C
HETATM   29  C22 UNL     1      15.922 -25.570 -48.264  1.00  0.00     0.208 C
HETATM   30  F1  UNL     1      16.360 -25.464 -46.940  1.00  0.00    -0.246 F
HETATM   31  C24 UNL     1      16.909 -26.310 -50.388  1.00  0.00     0.020 C
HETATM   32  C25 UNL     1      18.358 -25.593 -48.493  1.00  0.00     0.052 C
BRANCH  28  33
HETATM   33  O4  UNL     1      14.210 -24.446 -47.117  1.00  0.00    -0.393 OA
ATOM     34  H4  UNL     1      14.410 -25.210 -46.589  1.00  0.00     0.210 HD
ENDBRANCH  28  33
ENDBRANCH  20  21
ENDBRANCH  19  20
ENDBRANCH   2  19
TORSDOF 10
ENDMDL