MODEL 3
REMARK VINA RESULT: -8.135074039      2.692      3.612
REMARK  5 active torsions:
REMARK  status: ('A' for Active; 'I' for Inactive)
REMARK    1  A    between atoms: N1_6  and  C6_7
REMARK    2  A    between atoms: C9_10  and  C10_11
REMARK       I    between atoms: C10_11  and  N2_13
REMARK    3  A    between atoms: N2_13  and  C11_15
REMARK    4  A    between atoms: C14_18  and  C15_20
REMARK    5  A    between atoms: C15_20  and  N3_21
REMARK       I    between atoms: N3_21  and  C16_23
ROOT
HETATM    1  C10 UNL     1      18.454 -24.496 -44.757  1.00  0.00     0.258 C
HETATM    2  O1  UNL     1      18.527 -24.343 -45.999  1.00  0.00    -0.267 OA
HETATM    3  N2  UNL     1      19.395 -23.884 -43.893  1.00  0.00    -0.352 N
ATOM      4  H2  UNL     1      19.311 -24.028 -42.887  1.00  0.00     0.163 HD
ENDROOT
BRANCH   3   5
HETATM    5  C11 UNL     1      20.468 -23.063 -44.398  1.00  0.00     0.085 C
HETATM    6  C12 UNL     1      21.680 -23.076 -43.528  1.00  0.00     0.028 C
HETATM    7  C13 UNL     1      21.750 -21.964 -42.535  1.00  0.00     0.047 C
HETATM    8  C14 UNL     1      21.532 -20.601 -43.118  1.00  0.00     0.119 C
HETATM    9  F1  UNL     1      20.421 -20.042 -42.517  1.00  0.00    -0.241 F
HETATM   10  C17 UNL     1      21.223 -20.754 -44.593  1.00  0.00     0.047 C
HETATM   11  C18 UNL     1      19.971 -21.638 -44.669  1.00  0.00     0.028 C
BRANCH   8  12
HETATM   12  C15 UNL     1      22.731 -19.695 -42.924  1.00  0.00     0.165 C
BRANCH  12  13
HETATM   13  N3  UNL     1      23.927 -20.506 -42.811  1.00  0.00    -0.362 N
HETATM   14  C16 UNL     1      24.806 -20.591 -43.929  1.00  0.00     0.181 C
HETATM   15  N4  UNL     1      25.652 -19.650 -44.083  1.00  0.00    -0.374 N
HETATM   16  N5  UNL     1      24.772 -21.660 -44.852  1.00  0.00    -0.064 NA
ATOM     17  H42 UNL     1      25.677 -18.878 -43.416  1.00  0.00     0.158 HD
ATOM     18  H41 UNL     1      26.282 -19.710 -44.884  1.00  0.00     0.158 HD
ATOM     19  H3  UNL     1      24.135 -21.007 -41.947  1.00  0.00     0.162 HD
ENDBRANCH  12  13
ENDBRANCH   8  12
ENDBRANCH   3   5
BRANCH   1  20
HETATM   20  C9  UNL     1      17.361 -25.331 -44.246  1.00  0.00     0.074 A
HETATM   21  C8  UNL     1      16.629 -26.247 -44.950  1.00  0.00     0.027 A
HETATM   22  C7  UNL     1      15.670 -26.912 -44.300  1.00  0.00     0.038 A
HETATM   23  C6  UNL     1      15.481 -26.634 -42.975  1.00  0.00     0.073 A
HETATM   24  S1  UNL     1      16.686 -25.423 -42.687  1.00  0.00    -0.067 SA
BRANCH  23  25
HETATM   25  N1  UNL     1      14.544 -27.186 -42.053  1.00  0.00    -0.367 N
HETATM   26  C5  UNL     1      13.713 -28.279 -42.466  1.00  0.00     0.128 C
HETATM   27  C4  UNL     1      14.039 -29.404 -41.465  1.00  0.00     0.047 C
HETATM   28  C3  UNL     1      13.651 -28.874 -40.133  1.00  0.00    -0.021 C
HETATM   29  C2  UNL     1      13.823 -27.613 -39.769  1.00  0.00    -0.065 C
HETATM   30  C1  UNL     1      13.408 -27.136 -38.396  1.00  0.00     0.045 C
HETATM   31  C19 UNL     1      14.433 -26.653 -40.720  1.00  0.00     0.109 C
HETATM   32  C20 UNL     1      13.728 -25.314 -40.704  1.00  0.00     0.037 C
ENDBRANCH  23  25
ENDBRANCH   1  20
TORSDOF 5
ENDMDL