MODEL 1
REMARK VINA RESULT: -7.372379253      0.000      0.000
REMARK  8 active torsions:
REMARK  status: ('A' for Active; 'I' for Inactive)
REMARK    1  A    between atoms: C2_2  and  C4_4
REMARK    2  A    between atoms: C4_4  and  N1_6
REMARK    3  A    between atoms: N1_6  and  C6_8
REMARK    4  A    between atoms: C7_11  and  N3_12
REMARK    5  A    between atoms: C9_18  and  N5_19
REMARK    6  A    between atoms: N5_19  and  C10_20
REMARK    7  A    between atoms: C10_20  and  C11_21
REMARK    8  A    between atoms: C16_27  and  C17_28
ROOT
HETATM    1  C6  UNL     1      20.321 -22.245 -44.343  1.00  0.00     0.146 A
HETATM    2  N2  UNL     1      20.175 -21.971 -43.052  1.00  0.00    -0.175 N
ATOM      3  H2  UNL     1      20.666 -21.186 -42.623  1.00  0.00     0.186 HD
HETATM    4  C7  UNL     1      19.349 -22.769 -42.314  1.00  0.00     0.678 A
HETATM    5  N4  UNL     1      18.693 -23.806 -42.839  1.00  0.00    -0.186 N
ATOM      6  H4  UNL     1      18.087 -24.377 -42.250  1.00  0.00     0.184 HD
HETATM    7  C8  UNL     1      18.826 -24.095 -44.124  1.00  0.00     0.120 A
HETATM    8  C9  UNL     1      18.103 -25.204 -44.612  1.00  0.00     0.138 A
HETATM    9  C15 UNL     1      18.301 -25.443 -45.980  1.00  0.00     0.075 A
HETATM   10  C16 UNL     1      19.120 -24.665 -46.760  1.00  0.00     0.052 A
HETATM   11  N6  UNL     1      19.770 -23.629 -46.212  1.00  0.00    -0.352 N
ATOM     12  H6  UNL     1      20.377 -23.056 -46.797  1.00  0.00     0.166 HD
HETATM   13  C20 UNL     1      19.638 -23.328 -44.906  1.00  0.00     0.108 A
ENDROOT
BRANCH   1  14
HETATM   14  N1  UNL     1      21.067 -21.534 -45.078  1.00  0.00    -0.369 N
ATOM     15  H1  UNL     1      20.622 -21.165 -45.918  1.00  0.00     0.161 HD
BRANCH  14  16
HETATM   16  C4  UNL     1      22.419 -21.172 -44.912  1.00  0.00     0.082 C
HETATM   17  C5  UNL     1      23.235 -22.207 -44.126  1.00  0.00     0.032 C
BRANCH  16  18
HETATM   18  C2  UNL     1      22.655 -19.769 -44.381  1.00  0.00    -0.000 C
HETATM   19  C1  UNL     1      22.862 -19.724 -42.887  1.00  0.00     0.011 C
HETATM   20  C3  UNL     1      23.798 -19.067 -45.059  1.00  0.00     0.011 C
ENDBRANCH  16  18
ENDBRANCH  14  16
ENDBRANCH   1  14
BRANCH   4  21
HETATM   21  N3  UNL     1      19.201 -22.515 -41.065  1.00  0.00    -0.234 N
ATOM     22  H32 UNL     1      20.033 -22.416 -40.483  1.00  0.00     0.174 HD
ATOM     23  H31 UNL     1      18.255 -22.416 -40.694  1.00  0.00     0.174 HD
ENDBRANCH   4  21
BRANCH   8  24
HETATM   24  N5  UNL     1      17.397 -25.849 -43.881  1.00  0.00    -0.414 NA
BRANCH  24  25
HETATM   25  C10 UNL     1      16.616 -26.556 -43.086  1.00  0.00     0.201 C
BRANCH  25  26
HETATM   26  C11 UNL     1      15.618 -25.736 -42.278  1.00  0.00     0.033 A
HETATM   27  C12 UNL     1      15.856 -24.994 -41.152  1.00  0.00     0.022 A
HETATM   28  C13 UNL     1      14.816 -24.355 -40.613  1.00  0.00     0.008 A
HETATM   29  C14 UNL     1      13.600 -24.491 -41.225  1.00  0.00     0.050 A
HETATM   30  S1  UNL     1      13.956 -25.516 -42.545  1.00  0.00    -0.100 SA
ENDBRANCH  25  26
ENDBRANCH  24  25
ENDBRANCH   8  24
BRANCH  10  31
HETATM   31  C17 UNL     1      19.292 -24.978 -48.204  1.00  0.00     0.138 C
HETATM   32  C18 UNL     1      18.278 -24.262 -49.050  1.00  0.00     0.058 C
HETATM   33  C19 UNL     1      19.128 -26.460 -48.410  1.00  0.00     0.058 C
HETATM   34  F1  UNL     1      20.558 -24.577 -48.602  1.00  0.00    -0.237 F
ENDBRANCH  10  31
TORSDOF 8
ENDMDL