MODEL 2
REMARK VINA RESULT: -8.336184999      3.553      9.873
REMARK  9 active torsions:
REMARK  status: ('A' for Active; 'I' for Inactive)
REMARK    1  A    between atoms: C2_2  and  C5_5
REMARK    2  A    between atoms: C5_5  and  N1_6
REMARK    3  A    between atoms: C8_12  and  C9_13
REMARK    4  A    between atoms: C9_13  and  N2_14
REMARK    5  A    between atoms: N2_14  and  C10_16
REMARK    6  A    between atoms: C11_19  and  C12_20
REMARK    7  A    between atoms: C12_20  and  C13_21
REMARK    8  A    between atoms: C13_21  and  C14_22
REMARK    9  A    between atoms: C22_32  and  N5_33
ROOT
HETATM    1  C10 UNL     1      18.299 -24.761 -44.173  1.00  0.00     0.679 A
HETATM    2  N3  UNL     1      17.543 -25.177 -43.166  1.00  0.00    -0.194 N
ATOM      3  H3  UNL     1      17.861 -24.980 -42.218  1.00  0.00     0.184 HD
HETATM    4  C11 UNL     1      16.373 -25.848 -43.316  1.00  0.00     0.051 A
HETATM    5  C20 UNL     1      15.954 -26.109 -44.604  1.00  0.00     0.111 A
HETATM    6  C21 UNL     1      14.728 -26.817 -44.829  1.00  0.00     0.105 C
HETATM    7  N4  UNL     1      13.750 -27.404 -45.016  1.00  0.00    -0.191 NA
HETATM    8  C22 UNL     1      16.728 -25.684 -45.677  1.00  0.00     0.137 A
HETATM    9  N6  UNL     1      17.867 -25.028 -45.431  1.00  0.00    -0.176 N
ATOM     10  H6  UNL     1      18.434 -24.716 -46.221  1.00  0.00     0.186 HD
ENDROOT
BRANCH   4  11
HETATM   11  C12 UNL     1      15.607 -26.259 -42.113  1.00  0.00     0.064 C
BRANCH  11  12
HETATM   12  C13 UNL     1      14.773 -25.111 -41.638  1.00  0.00     0.044 C
BRANCH  12  13
HETATM   13  C14 UNL     1      15.192 -24.740 -40.265  1.00  0.00    -0.058 A
HETATM   14  C15 UNL     1      14.407 -25.096 -39.186  1.00  0.00     0.010 A
HETATM   15  C16 UNL     1      14.832 -24.733 -37.935  1.00  0.00     0.043 A
HETATM   16  C17 UNL     1      16.011 -24.029 -37.722  1.00  0.00     0.116 A
HETATM   17  F1  UNL     1      16.368 -23.704 -36.452  1.00  0.00    -0.206 F
HETATM   18  C18 UNL     1      16.773 -23.688 -38.811  1.00  0.00     0.043 A
HETATM   19  C19 UNL     1      16.355 -24.049 -40.074  1.00  0.00     0.010 A
ENDBRANCH  12  13
ENDBRANCH  11  12
ENDBRANCH   4  11
BRANCH   8  20
HETATM   20  N5  UNL     1      16.357 -25.915 -46.892  1.00  0.00    -0.384 N
ATOM     21  H52 UNL     1      15.373 -26.076 -47.109  1.00  0.00     0.157 HD
ATOM     22  H51 UNL     1      17.038 -25.942 -47.650  1.00  0.00     0.157 HD
ENDBRANCH   8  20
BRANCH   1  23
HETATM   23  N2  UNL     1      19.405 -24.123 -43.992  1.00  0.00    -0.226 N
ATOM     24  H2  UNL     1      20.302 -24.561 -44.201  1.00  0.00     0.177 HD
BRANCH  23  25
HETATM   25  C9  UNL     1      19.337 -22.767 -43.485  1.00  0.00     0.142 C
BRANCH  25  26
HETATM   26  C8  UNL     1      20.402 -21.971 -44.254  1.00  0.00     0.004 C
HETATM   27  C7  UNL     1      20.351 -20.557 -43.749  1.00  0.00     0.009 C
HETATM   28  C6  UNL     1      21.523 -19.825 -44.411  1.00  0.00     0.040 C
HETATM   29  C5  UNL     1      22.768 -20.308 -43.699  1.00  0.00     0.130 C
HETATM   30  C24 UNL     1      22.739 -21.752 -43.349  1.00  0.00     0.040 C
HETATM   31  C23 UNL     1      21.760 -22.567 -44.130  1.00  0.00     0.009 C
BRANCH  29  32
HETATM   32  C2  UNL     1      23.992 -19.902 -44.484  1.00  0.00    -0.018 C
HETATM   33  C1  UNL     1      24.025 -20.491 -45.870  1.00  0.00     0.017 C
HETATM   34  C3  UNL     1      24.041 -18.393 -44.643  1.00  0.00     0.017 C
HETATM   35  C4  UNL     1      25.272 -20.309 -43.791  1.00  0.00     0.017 C
ENDBRANCH  29  32
BRANCH  29  36
HETATM   36  N1  UNL     1      22.825 -19.543 -42.443  1.00  0.00    -0.070 N
ATOM     37  H13 UNL     1      23.574 -18.850 -42.420  1.00  0.00     0.275 HD
ATOM     38  H12 UNL     1      22.051 -18.889 -42.327  1.00  0.00     0.275 HD
ATOM     39  H11 UNL     1      22.888 -20.236 -41.697  1.00  0.00     0.275 HD
ENDBRANCH  29  36
ENDBRANCH  25  26
ENDBRANCH  23  25
ENDBRANCH   1  23
TORSDOF 9
ENDMDL