MODEL 3
REMARK VINA RESULT: -7.060159707      5.631      8.701
REMARK  9 active torsions:
REMARK  status: ('A' for Active; 'I' for Inactive)
REMARK    1  A    between atoms: C2_2  and  N1_3
REMARK    2  A    between atoms: N1_3  and  C3_5
REMARK    3  A    between atoms: C3_5  and  N2_7
REMARK    4  A    between atoms: N2_7  and  N3_9
REMARK    5  A    between atoms: C4_11  and  C5_12
REMARK    6  A    between atoms: C5_12  and  C6_13
REMARK    7  A    between atoms: C6_13  and  C7_14
REMARK    8  A    between atoms: C14_22  and  O1_23
REMARK    9  A    between atoms: C19_29  and  O2_30
ROOT
HETATM    1  C7  UNL     1      22.274 -21.686 -43.625  1.00  0.00    -0.035 C
HETATM    2  C8  UNL     1      22.113 -20.389 -42.904  1.00  0.00     0.016 C
HETATM    3  C9  UNL     1      22.355 -21.478 -45.123  1.00  0.00     0.012 C
HETATM    4  C10 UNL     1      21.224 -22.302 -45.734  1.00  0.00     0.032 C
HETATM    5  C11 UNL     1      20.269 -22.399 -44.606  1.00  0.00     0.071 C
HETATM    6 CL1  UNL     1      19.289 -20.949 -44.423  1.00  0.00    -0.113 Cl
HETATM    7  C12 UNL     1      19.350 -23.558 -44.671  1.00  0.00    -0.025 A
HETATM    8  C13 UNL     1      19.040 -24.176 -45.863  1.00  0.00     0.046 A
HETATM    9  C14 UNL     1      18.180 -25.241 -45.807  1.00  0.00     0.066 A
HETATM   10  C15 UNL     1      17.628 -25.702 -44.635  1.00  0.00     0.037 A
HETATM   11  C16 UNL     1      17.963 -25.057 -43.458  1.00  0.00     0.010 A
HETATM   12  C17 UNL     1      18.828 -23.978 -43.462  1.00  0.00    -0.047 A
HETATM   13  C18 UNL     1      19.145 -23.329 -42.166  1.00  0.00     0.071 C
HETATM   14  C19 UNL     1      20.512 -22.697 -42.119  1.00  0.00     0.129 C
HETATM   15  C20 UNL     1      21.181 -22.664 -43.431  1.00  0.00     0.051 C
ENDROOT
BRANCH   1  16
HETATM   16  C6  UNL     1      23.568 -22.352 -43.144  1.00  0.00     0.014 C
BRANCH  16  17
HETATM   17  C5  UNL     1      24.766 -21.906 -43.933  1.00  0.00     0.047 C
BRANCH  17  18
HETATM   18  C4  UNL     1      25.295 -20.687 -43.277  1.00  0.00     0.080 C
HETATM   19  N3  UNL     1      25.551 -19.657 -43.994  1.00  0.00    -0.314 N
ATOM     20  H3  UNL     1      25.914 -18.807 -43.563  1.00  0.00     0.185 HD
BRANCH  19  21
HETATM   21  N2  UNL     1      25.327 -19.710 -45.366  1.00  0.00    -0.277 N
ATOM     22  H2  UNL     1      24.809 -20.494 -45.760  1.00  0.00     0.189 HD
BRANCH  21  23
HETATM   23  C3  UNL     1      25.811 -18.685 -46.229  1.00  0.00     0.186 C
HETATM   24  S1  UNL     1      26.378 -19.133 -47.693  1.00  0.00    -0.040 SA
BRANCH  23  25
HETATM   25  N1  UNL     1      25.808 -17.313 -45.847  1.00  0.00    -0.366 N
ATOM     26  H1  UNL     1      26.678 -16.782 -45.821  1.00  0.00     0.161 HD
BRANCH  25  27
HETATM   27  C2  UNL     1      24.563 -16.688 -45.498  1.00  0.00     0.117 C
HETATM   28  C1  UNL     1      23.865 -16.191 -46.751  1.00  0.00     0.026 C
ENDBRANCH  25  27
ENDBRANCH  23  25
ENDBRANCH  21  23
ENDBRANCH  19  21
ENDBRANCH  17  18
ENDBRANCH  16  17
ENDBRANCH   1  16
BRANCH  14  29
HETATM   29  O2  UNL     1      21.295 -23.487 -41.243  1.00  0.00    -0.395 OA
ATOM     30  H2  UNL     1      21.390 -22.990 -40.438  1.00  0.00     0.210 HD
ENDBRANCH  14  29
BRANCH   9  31
HETATM   31  O1  UNL     1      17.840 -25.892 -46.987  1.00  0.00    -0.361 OA
ATOM     32  H1  UNL     1      17.004 -25.699 -47.393  1.00  0.00     0.217 HD
ENDBRANCH   9  31
TORSDOF 9
ENDMDL