MODEL 5
REMARK VINA RESULT: -6.953419636      4.331      5.732
REMARK  7 active torsions:
REMARK  status: ('A' for Active; 'I' for Inactive)
REMARK    1  A    between atoms: N1_7  and  C7_8
REMARK    2  A    between atoms: C7_8  and  C8_9
REMARK    3  A    between atoms: C8_9  and  C9_10
REMARK    4  A    between atoms: C9_10  and  O1_11
REMARK    5  A    between atoms: O1_11  and  C10_12
REMARK    6  A    between atoms: C15_18  and  N2_19
REMARK    7  A    between atoms: C16_24  and  N4_25
ROOT
HETATM    1  C10 UNL     1      19.016 -24.166 -46.214  1.00  0.00     0.098 A
HETATM    2  C11 UNL     1      19.802 -24.197 -47.346  1.00  0.00     0.058 A
HETATM    3  C12 UNL     1      19.736 -25.266 -48.204  1.00  0.00     0.014 A
HETATM    4 BR1  UNL     1      20.836 -25.288 -49.767  1.00  0.00    -0.051 Br
HETATM    5  C13 UNL     1      18.901 -26.340 -47.987  1.00  0.00     0.036 A
HETATM    6  C14 UNL     1      18.098 -26.343 -46.859  1.00  0.00     0.039 A
HETATM    7  C15 UNL     1      17.252 -27.415 -46.625  1.00  0.00     0.127 A
HETATM    8  N3  UNL     1      16.488 -27.349 -45.494  1.00  0.00    -0.176 N
ATOM      9  H3  UNL     1      15.847 -28.111 -45.273  1.00  0.00     0.186 HD
HETATM   10  C16 UNL     1      16.571 -26.293 -44.670  1.00  0.00     0.678 A
HETATM   11  N5  UNL     1      17.398 -25.262 -44.914  1.00  0.00    -0.188 N
ATOM     12  H5  UNL     1      17.438 -24.472 -44.269  1.00  0.00     0.184 HD
HETATM   13  C17 UNL     1      18.174 -25.278 -46.019  1.00  0.00     0.096 A
ENDROOT
BRANCH   1  14
HETATM   14  O1  UNL     1      19.011 -23.153 -45.302  1.00  0.00    -0.349 OA
BRANCH  14  15
HETATM   15  C9  UNL     1      19.996 -22.672 -44.496  1.00  0.00     0.177 C
BRANCH  15  16
HETATM   16  C8  UNL     1      20.155 -21.174 -44.402  1.00  0.00     0.057 C
BRANCH  16  17
HETATM   17  C7  UNL     1      21.622 -20.889 -44.694  1.00  0.00     0.275 C
BRANCH  17  18
HETATM   18  N1  UNL     1      22.444 -20.987 -43.510  1.00  0.00     0.092 N
HETATM   19  C2  UNL     1      23.733 -21.599 -43.763  1.00  0.00     0.219 C
HETATM   20  C1  UNL     1      24.634 -21.314 -42.574  1.00  0.00     0.043 C
HETATM   21  C3  UNL     1      24.400 -20.988 -44.974  1.00  0.00     0.035 C
HETATM   22  C4  UNL     1      24.530 -19.490 -44.859  1.00  0.00     0.004 C
HETATM   23  C5  UNL     1      23.384 -18.824 -44.190  1.00  0.00     0.030 C
HETATM   24  C6  UNL     1      22.727 -19.612 -43.103  1.00  0.00     0.273 C
ENDBRANCH  17  18
ENDBRANCH  16  17
ENDBRANCH  15  16
ENDBRANCH  14  15
ENDBRANCH   1  14
BRANCH   7  25
HETATM   25  N2  UNL     1      17.163 -28.419 -47.394  1.00  0.00    -0.384 N
ATOM     26  H22 UNL     1      16.500 -29.166 -47.184  1.00  0.00     0.157 HD
ATOM     27  H21 UNL     1      17.724 -28.536 -48.237  1.00  0.00     0.157 HD
ENDBRANCH   7  25
BRANCH  10  28
HETATM   28  N4  UNL     1      15.802 -26.325 -43.618  1.00  0.00    -0.234 N
ATOM     29  H42 UNL     1      14.975 -26.919 -43.574  1.00  0.00     0.174 HD
ATOM     30  H41 UNL     1      16.078 -25.723 -42.843  1.00  0.00     0.174 HD
ENDBRANCH  10  28
TORSDOF 7
ENDMDL