MODEL 3
REMARK VINA RESULT: -7.319353343      3.916      5.822
REMARK  6 active torsions:
REMARK  status: ('A' for Active; 'I' for Inactive)
REMARK    1  A    between atoms: C6_6  and  C7_7
REMARK    2  A    between atoms: C7_7  and  C8_8
REMARK    3  A    between atoms: C10_10  and  C11_11
REMARK    4  A    between atoms: N3_24  and  C19_25
REMARK    5  A    between atoms: C19_25  and  C20_26
REMARK    6  A    between atoms: C20_26  and  O1_27
ROOT
HETATM    1  C7  UNL     1      16.964 -26.197 -45.277  1.00  0.00     0.012 C
HETATM    2  C17 UNL     1      15.505 -25.849 -45.091  1.00  0.00     0.046 C
HETATM    3  C18 UNL     1      14.848 -26.883 -44.145  1.00  0.00     0.273 C
HETATM    4  N3  UNL     1      15.186 -26.437 -42.818  1.00  0.00     0.090 N
HETATM    5  C21 UNL     1      16.604 -26.142 -42.777  1.00  0.00     0.273 C
HETATM    6  C22 UNL     1      17.381 -26.759 -43.908  1.00  0.00     0.046 C
ENDROOT
BRANCH   1   7
HETATM    7  C6  UNL     1      17.013 -27.351 -46.248  1.00  0.00     0.026 C
HETATM    8  C5  UNL     1      18.298 -27.555 -46.954  1.00  0.00     0.010 C
HETATM    9  C4  UNL     1      18.170 -27.839 -48.434  1.00  0.00     0.038 C
HETATM   10  C2  UNL     1      16.996 -28.673 -48.796  1.00  0.00     0.118 C
HETATM   11  C1  UNL     1      16.637 -28.381 -50.251  1.00  0.00     0.046 C
HETATM   12  C3  UNL     1      17.387 -30.137 -48.696  1.00  0.00     0.046 C
HETATM   13  N4  UNL     1      15.817 -28.406 -48.010  1.00  0.00    -0.067 N
HETATM   14  C23 UNL     1      15.915 -27.147 -47.317  1.00  0.00     0.239 C
ATOM     15  H42 UNL     1      14.972 -28.454 -48.579  1.00  0.00     0.278 HD
ATOM     16  H41 UNL     1      15.618 -29.172 -47.366  1.00  0.00     0.278 HD
ENDBRANCH   1   7
BRANCH   1  17
HETATM   17  C8  UNL     1      17.785 -25.032 -45.642  1.00  0.00     0.037 A
HETATM   18  C9  UNL     1      18.582 -24.342 -44.706  1.00  0.00     0.059 A
HETATM   19  C10 UNL     1      19.208 -23.297 -45.357  1.00  0.00     0.060 A
HETATM   20  N1  UNL     1      18.813 -23.345 -46.633  1.00  0.00    -0.300 N
HETATM   21  N2  UNL     1      17.970 -24.385 -46.771  1.00  0.00    -0.304 N
ATOM     22  H1  UNL     1      19.100 -22.704 -47.373  1.00  0.00     0.187 HD
ATOM     23  H2  UNL     1      17.525 -24.642 -47.653  1.00  0.00     0.186 HD
BRANCH  19  24
HETATM   24  C11 UNL     1      20.127 -22.316 -44.741  1.00  0.00    -0.005 A
HETATM   25  C12 UNL     1      19.779 -21.741 -43.555  1.00  0.00     0.014 A
HETATM   26  C13 UNL     1      20.604 -20.816 -42.947  1.00  0.00     0.004 A
HETATM   27  C14 UNL     1      21.779 -20.481 -43.547  1.00  0.00     0.042 A
HETATM   28  C15 UNL     1      22.111 -21.073 -44.741  1.00  0.00     0.117 A
HETATM   29  F1  UNL     1      23.279 -20.744 -45.336  1.00  0.00    -0.206 F
HETATM   30  C16 UNL     1      21.301 -22.006 -45.376  1.00  0.00     0.056 A
ENDBRANCH  19  24
ENDBRANCH   1  17
BRANCH   4  31
HETATM   31  C19 UNL     1      14.766 -27.315 -41.768  1.00  0.00     0.298 C
BRANCH  31  32
HETATM   32  C20 UNL     1      15.097 -28.754 -42.071  1.00  0.00     0.194 C
BRANCH  32  33
HETATM   33  O1  UNL     1      16.108 -29.288 -41.323  1.00  0.00    -0.399 OA
ATOM     34  H1  UNL     1      16.082 -30.233 -41.224  1.00  0.00     0.209 HD
ENDBRANCH  32  33
ENDBRANCH  31  32
ENDBRANCH   4  31
TORSDOF 6
ENDMDL