MODEL 2
REMARK VINA RESULT: -8.665402398      1.204      1.245
REMARK  10 active torsions:
REMARK  status: ('A' for Active; 'I' for Inactive)
REMARK    1  A    between atoms: O1_2  and  C2_3
REMARK    2  A    between atoms: C2_3  and  C3_5
REMARK    3  A    between atoms: N1_8  and  C6_9
REMARK    4  A    between atoms: C6_9  and  C7_10
REMARK    5  A    between atoms: C7_10  and  C8_11
REMARK    6  A    between atoms: C8_11  and  C9_12
REMARK    7  A    between atoms: C9_12  and  O3_13
REMARK    8  A    between atoms: C9_12  and  N2_15
REMARK    9  A    between atoms: C14_23  and  N4_24
REMARK   10  A    between atoms: C15_30  and  N7_31
ROOT
HETATM    1  C3  UNL     1      -2.034  -2.463  50.140  1.00  0.00     0.107 A
HETATM    2  C4  UNL     1      -0.844  -2.515  50.693  1.00  0.00     0.050 A
HETATM    3  C5  UNL     1       0.036  -3.652  50.218  1.00  0.00     0.071 C
HETATM    4  N1  UNL     1      -0.318  -1.604  51.650  1.00  0.00    -0.272 N
HETATM    5  N5  UNL     1      -1.026  -0.479  52.146  1.00  0.00    -0.155 N
HETATM    6  N6  UNL     1      -0.614   0.436  53.034  1.00  0.00    -0.109 N
ATOM      7  H6  UNL     1       0.291   0.459  53.504  1.00  0.00     0.208 HD
HETATM    8  C15 UNL     1      -1.612   1.315  53.190  1.00  0.00     0.694 A
HETATM    9  N8  UNL     1      -2.644   0.972  52.420  1.00  0.00    -0.166 N
ATOM     10  H8  UNL     1      -3.539   1.455  52.334  1.00  0.00     0.186 HD
HETATM   11  C16 UNL     1      -2.259  -0.142  51.783  1.00  0.00     0.203 A
HETATM   12  S1  UNL     1      -3.158  -1.133  50.618  1.00  0.00    -0.042 SA
ENDROOT
BRANCH   4  13
HETATM   13  C6  UNL     1       1.008  -1.868  52.240  1.00  0.00     0.151 C
BRANCH  13  14
HETATM   14  C7  UNL     1       1.988  -0.953  51.595  1.00  0.00     0.026 C
BRANCH  14  15
HETATM   15  C8  UNL     1       2.627  -1.596  50.351  1.00  0.00     0.056 C
BRANCH  15  16
HETATM   16  C9  UNL     1       3.462  -0.478  49.743  1.00  0.00     0.242 C
BRANCH  16  17
HETATM   17  O3  UNL     1       4.734  -0.608  50.349  1.00  0.00    -0.376 OA
ATOM     18  H3  UNL     1       4.775  -1.513  50.633  1.00  0.00     0.212 HD
ENDBRANCH  16  17
BRANCH  16  19
HETATM   19  N2  UNL     1       3.581  -0.558  48.315  1.00  0.00    -0.166 N
HETATM   20  C10 UNL     1       3.275  -1.660  47.625  1.00  0.00     0.124 A
HETATM   21  C11 UNL     1       3.401  -1.710  46.237  1.00  0.00     0.023 A
HETATM   22  C12 UNL     1       3.064  -2.931  45.450  1.00  0.00     0.056 C
HETATM   23  C13 UNL     1       3.848  -0.599  45.558  1.00  0.00     0.266 A
HETATM   24  O4  UNL     1       3.978  -0.600  44.291  1.00  0.00    -0.267 OA
HETATM   25  N3  UNL     1       4.148   0.494  46.283  1.00  0.00    -0.156 N
HETATM   26  C14 UNL     1       4.019   0.520  47.616  1.00  0.00     0.682 A
ATOM     27  H3  UNL     1       4.482   1.329  45.802  1.00  0.00     0.187 HD
BRANCH  26  28
HETATM   28  N4  UNL     1       4.313   1.575  48.282  1.00  0.00    -0.234 N
ATOM     29  H42 UNL     1       4.620   1.510  49.252  1.00  0.00     0.174 HD
ATOM     30  H41 UNL     1       4.225   2.472  47.804  1.00  0.00     0.174 HD
ENDBRANCH  26  28
ENDBRANCH  16  19
ENDBRANCH  15  16
ENDBRANCH  14  15
ENDBRANCH  13  14
ENDBRANCH   4  13
BRANCH   1  31
HETATM   31  C2  UNL     1      -2.548  -3.373  49.155  1.00  0.00     0.302 C
HETATM   32  O2  UNL     1      -2.556  -3.167  47.916  1.00  0.00    -0.259 OA
BRANCH  31  33
HETATM   33  O1  UNL     1      -3.099  -4.610  49.568  1.00  0.00    -0.322 OA
HETATM   34  C1  UNL     1      -3.353  -5.612  48.581  1.00  0.00     0.213 C
ENDBRANCH  31  33
ENDBRANCH   1  31
BRANCH   8  35
HETATM   35  N7  UNL     1      -1.616   2.348  53.958  1.00  0.00    -0.233 N
ATOM     36  H72 UNL     1      -1.311   3.273  53.653  1.00  0.00     0.174 HD
ATOM     37  H71 UNL     1      -1.912   2.384  54.933  1.00  0.00     0.174 HD
ENDBRANCH   8  35
TORSDOF 10
ENDMDL