MODEL 1
REMARK VINA RESULT: -7.906342240      0.000      0.000
REMARK  9 active torsions:
REMARK  status: ('A' for Active; 'I' for Inactive)
REMARK    1  A    between atoms: N1_1  and  C1_4
REMARK    2  A    between atoms: N2_5  and  C2_6
REMARK    3  A    between atoms: C7_13  and  O1_14
REMARK    4  A    between atoms: N4_16  and  C8_17
REMARK    5  A    between atoms: N7_23  and  C11_25
REMARK    6  A    between atoms: C11_25  and  C12_26
REMARK    7  A    between atoms: C12_26  and  N8_27
REMARK    8  A    between atoms: N8_27  and  C13_29
REMARK    9  A    between atoms: N9_36  and  N10_37
ROOT
HETATM    1  C8  UNL     1       0.377  -3.253  52.937  1.00  0.00     0.126 A
HETATM    2  C9  UNL     1       0.542  -4.306  52.065  1.00  0.00     0.142 A
HETATM    3  N5  UNL     1      -0.339  -4.207  51.068  1.00  0.00    -0.298 N
ATOM      4  H5  UNL     1      -0.435  -4.854  50.285  1.00  0.00     0.186 HD
HETATM    5  N6  UNL     1      -1.068  -3.112  51.277  1.00  0.00    -0.195 N
HETATM    6  C10 UNL     1      -2.075  -2.383  50.769  1.00  0.00     0.269 A
HETATM    7  N7  UNL     1      -2.754  -2.596  49.701  1.00  0.00    -0.351 N
ATOM      8  H7  UNL     1      -3.487  -1.926  49.471  1.00  0.00     0.163 HD
HETATM    9  O3  UNL     1      -2.276  -1.344  51.580  1.00  0.00    -0.175 OA
HETATM   10  N9  UNL     1      -1.437  -1.401  52.570  1.00  0.00    -0.137 N
HETATM   11  C18 UNL     1      -0.655  -2.498  52.423  1.00  0.00     0.206 A
ENDROOT
BRANCH   1  12
HETATM   12  N4  UNL     1       1.125  -3.001  54.125  1.00  0.00    -0.119 N
HETATM   13  C1  UNL     1       2.258  -2.263  54.241  1.00  0.00     0.693 A
HETATM   14  N2  UNL     1       2.671  -2.254  55.515  1.00  0.00    -0.139 N
HETATM   15  C6  UNL     1       1.790  -2.990  56.197  1.00  0.00     0.173 A
HETATM   16  C7  UNL     1       0.810  -3.471  55.344  1.00  0.00     0.180 A
BRANCH  13  17
HETATM   17  N1  UNL     1       2.825  -1.669  53.235  1.00  0.00    -0.233 N
ATOM     18  H12 UNL     1       3.018  -0.667  53.214  1.00  0.00     0.174 HD
ATOM     19  H11 UNL     1       3.141  -2.103  52.367  1.00  0.00     0.174 HD
ENDBRANCH  13  17
BRANCH  14  20
HETATM   20  C2  UNL     1       3.817  -1.602  56.089  1.00  0.00     0.128 A
HETATM   21  C3  UNL     1       4.948  -2.222  56.568  1.00  0.00     0.051 A
HETATM   22  C4  UNL     1       5.788  -1.238  57.025  1.00  0.00     0.021 A
HETATM   23  C5  UNL     1       5.181  -0.018  56.831  1.00  0.00     0.090 A
HETATM   24  N3  UNL     1       3.993  -0.281  56.264  1.00  0.00    -0.351 N
ATOM     25  H3  UNL     1       3.312   0.430  55.999  1.00  0.00     0.166 HD
ENDBRANCH  14  20
BRANCH  16  26
HETATM   26  O1  UNL     1      -0.287  -4.281  55.695  1.00  0.00    -0.344 OA
ATOM     27  H1  UNL     1      -0.295  -5.229  55.756  1.00  0.00     0.219 HD
ENDBRANCH  16  26
ENDBRANCH   1  12
BRANCH  10  28
HETATM   28  N10 UNL     1      -1.323  -0.495  53.639  1.00  0.00    -0.317 N
ATOM     29 2H10 UNL     1      -1.992   0.252  53.825  1.00  0.00     0.179 HD
ATOM     30 1H10 UNL     1      -0.587  -0.464  54.345  1.00  0.00     0.179 HD
ENDBRANCH  10  28
BRANCH   7  31
HETATM   31  C11 UNL     1      -2.566  -3.696  48.808  1.00  0.00     0.142 C
BRANCH  31  32
HETATM   32  C12 UNL     1      -3.758  -4.631  48.766  1.00  0.00     0.134 C
BRANCH  32  33
HETATM   33  N8  UNL     1      -3.372  -6.007  48.728  1.00  0.00    -0.413 N
ATOM     34  H8  UNL     1      -2.397  -6.300  48.664  1.00  0.00     0.153 HD
BRANCH  33  35
HETATM   35  C13 UNL     1      -4.453  -6.945  48.787  1.00  0.00     0.100 C
HETATM   36  C14 UNL     1      -5.757  -6.423  48.239  1.00  0.00     0.029 C
HETATM   37  C15 UNL     1      -6.766  -7.544  48.348  1.00  0.00     0.028 C
HETATM   38  C16 UNL     1      -6.822  -7.970  49.811  1.00  0.00     0.167 C
HETATM   39  O2  UNL     1      -6.006  -7.197  50.612  1.00  0.00    -0.389 OA
HETATM   40  C17 UNL     1      -4.680  -7.315  50.245  1.00  0.00     0.192 C
ENDBRANCH  33  35
ENDBRANCH  32  33
ENDBRANCH  31  32
ENDBRANCH   7  31
TORSDOF 9
ENDMDL