MODEL 4
REMARK VINA RESULT: -8.578995797      2.346      3.448
REMARK  8 active torsions:
REMARK  status: ('A' for Active; 'I' for Inactive)
REMARK    1  A    between atoms: S1_2  and  O2_6
REMARK    2  A    between atoms: O2_6  and  N2_7
REMARK    3  A    between atoms: N2_7  and  C3_9
REMARK    4  A    between atoms: C4_12  and  C5_13
REMARK    5  A    between atoms: C5_13  and  S2_14
REMARK    6  A    between atoms: S2_14  and  C6_15
REMARK    7  A    between atoms: C9_25  and  N7_26
REMARK    8  A    between atoms: C11_33  and  N9_34
ROOT
HETATM    1  C1  UNL     1      -0.733  -4.328  50.635  1.00  0.00     0.162 C
HETATM    2  S1  UNL     1      -1.919  -3.539  49.402  1.00  0.00     0.172 S
HETATM    3  O1  UNL     1      -2.586  -2.648  48.286  1.00  0.00    -0.227 OA
HETATM    4  C2  UNL     1      -2.550  -5.334  48.674  1.00  0.00     0.180 C
HETATM    5  N1  UNL     1      -2.936  -6.362  48.259  1.00  0.00    -0.180 NA
ENDROOT
BRANCH   2   6
HETATM    6  O2  UNL     1      -2.798  -2.831  50.548  1.00  0.00    -0.159 OA
BRANCH   6   7
HETATM    7  N2  UNL     1      -2.850  -2.101  51.659  1.00  0.00    -0.081 N
ATOM      8  H2  UNL     1      -3.471  -2.385  52.416  1.00  0.00     0.214 HD
BRANCH   7   9
HETATM    9  C3  UNL     1      -2.129  -1.044  51.794  1.00  0.00     0.719 A
HETATM   10  N3  UNL     1      -0.870  -1.089  52.269  1.00  0.00    -0.177 N
HETATM   11  C4  UNL     1      -0.175   0.044  52.385  1.00  0.00     0.123 A
ATOM     12  H3  UNL     1      -0.452  -1.979  52.538  1.00  0.00     0.185 HD
HETATM   13  N8  UNL     1      -0.715   1.222  52.035  1.00  0.00    -0.179 N
HETATM   14  C11 UNL     1      -1.957   1.314  51.560  1.00  0.00     0.691 A
ATOM     15  H8  UNL     1      -0.159   2.071  52.137  1.00  0.00     0.185 HD
HETATM   16  N10 UNL     1      -2.648   0.147  51.450  1.00  0.00    -0.021 N
ATOM     17  H10 UNL     1      -3.603   0.177  51.091  1.00  0.00     0.203 HD
BRANCH  11  18
HETATM   18  C5  UNL     1       1.220   0.063  52.906  1.00  0.00     0.159 C
BRANCH  18  19
HETATM   19  S2  UNL     1       2.232  -1.238  52.210  1.00  0.00    -0.097 SA
BRANCH  19  20
HETATM   20  C6  UNL     1       2.763  -0.860  50.532  1.00  0.00     0.114 A
HETATM   21  N4  UNL     1       2.659  -1.596  49.438  1.00  0.00    -0.330 N
HETATM   22  C7  UNL     1       3.103  -1.154  48.303  1.00  0.00     0.131 A
ATOM     23  H4  UNL     1       2.227  -2.518  49.489  1.00  0.00     0.168 HD
HETATM   24  N5  UNL     1       3.067  -1.799  47.088  1.00  0.00    -0.293 N
HETATM   25  C10 UNL     1       3.679   0.090  48.287  1.00  0.00     0.095 A
HETATM   26  C8  UNL     1       3.560  -1.232  46.001  1.00  0.00     0.327 A
ATOM     27  H5  UNL     1       2.654  -2.729  47.025  1.00  0.00     0.172 HD
HETATM   28  O3  UNL     1       3.491  -1.889  44.912  1.00  0.00    -0.247 OA
HETATM   29  N6  UNL     1       4.126  -0.025  45.948  1.00  0.00    -0.294 N
HETATM   30  C9  UNL     1       4.191   0.651  47.101  1.00  0.00     0.124 A
ATOM     31  H6  UNL     1       4.490   0.361  45.076  1.00  0.00     0.172 HD
HETATM   32  S3  UNL     1       3.541   0.553  49.928  1.00  0.00    -0.058 SA
BRANCH  30  33
HETATM   33  N7  UNL     1       4.703   1.819  47.211  1.00  0.00    -0.384 N
ATOM     34  H72 UNL     1       5.469   1.908  47.878  1.00  0.00     0.157 HD
ATOM     35  H71 UNL     1       4.385   2.628  46.677  1.00  0.00     0.157 HD
ENDBRANCH  30  33
ENDBRANCH  19  20
ENDBRANCH  18  19
ENDBRANCH  11  18
BRANCH  14  36
HETATM   36  N9  UNL     1      -2.461   2.439  51.230  1.00  0.00    -0.234 N
ATOM     37  H92 UNL     1      -2.130   2.970  50.425  1.00  0.00     0.174 HD
ATOM     38  H91 UNL     1      -3.225   2.855  51.763  1.00  0.00     0.174 HD
ENDBRANCH  14  36
ENDBRANCH   7   9
ENDBRANCH   6   7
ENDBRANCH   2   6
TORSDOF 8
ENDMDL