MODEL 2
REMARK VINA RESULT: -8.204220856      3.893      9.772
REMARK  10 active torsions:
REMARK  status: ('A' for Active; 'I' for Inactive)
REMARK    1  A    between atoms: C2_3  and  S1_4
REMARK    2  A    between atoms: S1_4  and  C3_5
REMARK    3  A    between atoms: C8_16  and  C9_17
REMARK    4  A    between atoms: N5_18  and  O1_20
REMARK    5  A    between atoms: O1_20  and  C10_21
REMARK    6  A    between atoms: C10_21  and  C11_22
REMARK    7  A    between atoms: C16_31  and  N8_32
REMARK    8  A    between atoms: N8_32  and  N9_33
REMARK    9  A    between atoms: N9_33  and  N10_35
REMARK   10  A    between atoms: N11_39  and  N12_40
ROOT
HETATM    1  N1  UNL     1      -2.698  -6.534  47.971  1.00  0.00    -0.197 NA
HETATM    2  C1  UNL     1      -3.023  -5.555  48.489  1.00  0.00     0.069 C
HETATM    3  C2  UNL     1      -3.478  -4.293  49.119  1.00  0.00     0.204 C
ENDROOT
BRANCH   3   4
HETATM    4  S1  UNL     1      -2.267  -3.085  49.262  1.00  0.00    -0.095 SA
BRANCH   4   5
HETATM    5  C3  UNL     1      -1.803  -2.332  50.786  1.00  0.00     0.117 A
HETATM    6  C4  UNL     1      -2.120  -1.089  51.225  1.00  0.00     0.108 A
HETATM    7  C5  UNL     1      -3.145  -0.265  50.592  1.00  0.00     0.104 C
HETATM    8  C6  UNL     1      -1.539  -0.533  52.357  1.00  0.00     0.079 A
HETATM    9  N2  UNL     1      -3.955   0.418  50.155  1.00  0.00    -0.191 NA
HETATM   10  N3  UNL     1      -1.760   0.574  52.826  1.00  0.00    -0.396 N
HETATM   11  C7  UNL     1      -0.597  -1.358  53.023  1.00  0.00     0.096 A
ATOM     12  H32 UNL     1      -2.438   1.167  52.348  1.00  0.00     0.156 HD
ATOM     13  H31 UNL     1      -1.333   0.981  53.658  1.00  0.00     0.156 HD
HETATM   14  N4  UNL     1       0.072  -0.798  54.043  1.00  0.00    -0.337 N
HETATM   15  C17 UNL     1      -0.281  -2.601  52.591  1.00  0.00     0.146 A
HETATM   16  C8  UNL     1       1.061  -1.428  54.686  1.00  0.00     0.125 A
ATOM     17  H4  UNL     1      -0.183   0.144  54.340  1.00  0.00     0.167 HD
HETATM   18  N7  UNL     1       1.382  -2.674  54.313  1.00  0.00    -0.312 N
HETATM   19  C16 UNL     1       0.740  -3.316  53.263  1.00  0.00     0.238 A
ATOM     20  H7  UNL     1       2.121  -3.165  54.815  1.00  0.00     0.170 HD
HETATM   21  N11 UNL     1      -0.871  -3.071  51.501  1.00  0.00    -0.247 N
BRANCH  16  22
HETATM   22  C9  UNL     1       1.846  -0.683  55.648  1.00  0.00     0.162 C
HETATM   23  N5  UNL     1       2.041  -0.896  56.895  1.00  0.00    -0.274 N
ATOM     24  H5  UNL     1       1.611  -1.677  57.391  1.00  0.00     0.193 HD
BRANCH  23  25
HETATM   25  O1  UNL     1       2.885   0.018  57.527  1.00  0.00    -0.276 OA
BRANCH  25  26
HETATM   26  C10 UNL     1       4.061   0.563  57.053  1.00  0.00     0.241 C
BRANCH  26  27
HETATM   27  C11 UNL     1       5.259  -0.267  57.293  1.00  0.00    -0.017 A
HETATM   28  C12 UNL     1       6.163   0.104  58.274  1.00  0.00     0.012 A
HETATM   29  C13 UNL     1       7.284  -0.696  58.456  1.00  0.00     0.018 A
HETATM   30  C14 UNL     1       7.523  -1.802  57.721  1.00  0.00     0.087 A
HETATM   31  N6  UNL     1       6.612  -2.132  56.757  1.00  0.00    -0.375 N
HETATM   32  C15 UNL     1       5.507  -1.378  56.555  1.00  0.00     0.096 A
ATOM     33  H6  UNL     1       6.766  -2.960  56.181  1.00  0.00     0.164 HD
ENDBRANCH  26  27
ENDBRANCH  25  26
ENDBRANCH  23  25
ENDBRANCH  16  22
BRANCH  19  34
HETATM   34  N8  UNL     1       0.902  -4.484  53.079  1.00  0.00    -0.289 NA
BRANCH  34  35
HETATM   35  N9  UNL     1       1.066  -5.794  52.905  1.00  0.00    -0.180 N
ATOM     36  H9  UNL     1       1.373  -6.102  51.981  1.00  0.00     0.223 HD
BRANCH  35  37
HETATM   37  N10 UNL     1       0.860  -6.783  53.862  1.00  0.00    -0.320 N
ATOM     38 2H10 UNL     1       0.682  -6.451  54.810  1.00  0.00     0.179 HD
ATOM     39 1H10 UNL     1       0.872  -7.790  53.699  1.00  0.00     0.179 HD
ENDBRANCH  35  37
ENDBRANCH  34  35
ENDBRANCH  19  34
BRANCH  21  40
HETATM   40  N12 UNL     1      -0.439  -4.272  50.916  1.00  0.00    -0.337 N
ATOM     41 2H12 UNL     1      -1.033  -5.101  50.937  1.00  0.00     0.177 HD
ATOM     42 1H12 UNL     1       0.530  -4.302  50.599  1.00  0.00     0.177 HD
ENDBRANCH  21  40
ENDBRANCH   4   5
ENDBRANCH   3   4
TORSDOF 10
ENDMDL