MODEL 5
REMARK VINA RESULT: -8.341451634      4.712      8.293
REMARK  8 active torsions:
REMARK  status: ('A' for Active; 'I' for Inactive)
REMARK    1  A    between atoms: C2_2  and  O1_3
REMARK    2  A    between atoms: O1_3  and  C3_4
REMARK    3  A    between atoms: C3_4  and  C4_6
REMARK    4  A    between atoms: N2_9  and  C5_10
REMARK    5  A    between atoms: N6_21  and  N7_23
REMARK       I    between atoms: N7_23  and  C8_25
REMARK    6  A    between atoms: C8_25  and  C9_27
REMARK    7  A    between atoms: C10_30  and  N9_31
REMARK    8  A    between atoms: C11_34  and  N10_35
ROOT
HETATM    1  C4  UNL     1       1.101  -1.744  55.468  1.00  0.00     0.212 A
HETATM    2  N1  UNL     1       0.444  -2.200  54.401  1.00  0.00    -0.257 N
ATOM      3  H1  UNL     1      -0.502  -2.583  54.418  1.00  0.00     0.190 HD
HETATM    4  N2  UNL     1       1.195  -2.086  53.317  1.00  0.00    -0.061 N
HETATM    5  C7  UNL     1       2.363  -1.543  53.694  1.00  0.00     0.722 A
HETATM    6  N6  UNL     1       3.391  -1.251  52.982  1.00  0.00    -0.127 N
ATOM      7  H6  UNL     1       4.181  -0.843  53.482  1.00  0.00     0.205 HD
HETATM    8  N12 UNL     1       2.290  -1.337  55.031  1.00  0.00    -0.166 N
ATOM      9  H12 UNL     1       3.027  -0.935  55.610  1.00  0.00     0.186 HD
ENDROOT
BRANCH   4  10
HETATM   10  C5  UNL     1       0.774  -2.486  52.024  1.00  0.00     0.212 A
HETATM   11  N3  UNL     1       0.451  -1.767  50.954  1.00  0.00    -0.220 N
HETATM   12  O3  UNL     1       0.133  -2.584  50.004  1.00  0.00    -0.153 OA
ATOM     13  H3  UNL     1       0.454  -0.749  50.893  1.00  0.00     0.198 HD
HETATM   14  N4  UNL     1       0.229  -3.808  50.392  1.00  0.00    -0.222 N
HETATM   15  C6  UNL     1       0.631  -3.831  51.666  1.00  0.00     0.170 A
ATOM     16  H4  UNL     1       0.030  -4.628  49.819  1.00  0.00     0.198 HD
HETATM   17  N5  UNL     1       0.846  -4.863  52.416  1.00  0.00    -0.381 N
ATOM     18  H52 UNL     1       1.153  -4.881  53.388  1.00  0.00     0.157 HD
ATOM     19  H51 UNL     1       0.741  -5.844  52.155  1.00  0.00     0.157 HD
ENDBRANCH   4  10
BRANCH   6  20
HETATM   20  N7  UNL     1       3.555  -1.423  51.634  1.00  0.00    -0.249 N
HETATM   21  C8  UNL     1       3.239  -0.408  50.684  1.00  0.00     0.304 C
HETATM   22  O4  UNL     1       2.792   0.682  51.119  1.00  0.00    -0.263 OA
ATOM     23  H7  UNL     1       3.918  -2.313  51.295  1.00  0.00     0.191 HD
BRANCH  21  24
HETATM   24  C9  UNL     1       3.419  -0.605  49.254  1.00  0.00     0.178 A
HETATM   25  N8  UNL     1       2.996  -1.708  48.622  1.00  0.00    -0.322 N
HETATM   26  C10 UNL     1       3.161  -1.890  47.302  1.00  0.00     0.136 A
ATOM     27  H8  UNL     1       2.532  -2.438  49.164  1.00  0.00     0.169 HD
HETATM   28  C11 UNL     1       3.788  -0.923  46.532  1.00  0.00     0.168 A
HETATM   29  C12 UNL     1       4.223   0.213  47.173  1.00  0.00     0.044 A
HETATM   30  C13 UNL     1       4.895   1.284  46.428  1.00  0.00     0.071 C
HETATM   31  N11 UNL     1       4.024   0.337  48.519  1.00  0.00    -0.339 N
ATOM     32  H11 UNL     1       4.351   1.184  48.984  1.00  0.00     0.167 HD
BRANCH  26  33
HETATM   33  N9  UNL     1       2.755  -2.954  46.691  1.00  0.00    -0.383 N
ATOM     34  H92 UNL     1       1.971  -3.456  47.108  1.00  0.00     0.157 HD
ATOM     35  H91 UNL     1       3.186  -3.290  45.830  1.00  0.00     0.157 HD
ENDBRANCH  26  33
BRANCH  28  36
HETATM   36  N10 UNL     1       3.956  -1.129  45.135  1.00  0.00    -0.110 N
HETATM   37  O5  UNL     1       4.584  -2.129  44.735  1.00  0.00    -0.532 OA
HETATM   38  O6  UNL     1       3.469  -0.291  44.172  1.00  0.00    -0.532 OA
ENDBRANCH  28  36
ENDBRANCH  21  24
ENDBRANCH   6  20
BRANCH   1  39
HETATM   39  C3  UNL     1       0.650  -1.680  56.870  1.00  0.00     0.329 C
HETATM   40  O2  UNL     1       1.265  -2.314  57.763  1.00  0.00    -0.256 OA
BRANCH  39  41
HETATM   41  O1  UNL     1      -0.442  -0.938  57.259  1.00  0.00    -0.316 OA
BRANCH  41  42
HETATM   42  C2  UNL     1      -0.925   0.183  56.541  1.00  0.00     0.175 C
HETATM   43  C1  UNL     1      -2.438   0.079  56.540  1.00  0.00     0.034 C
ENDBRANCH  41  42
ENDBRANCH  39  41
ENDBRANCH   1  39
TORSDOF 8
ENDMDL