MODEL 2
REMARK VINA RESULT: -8.682927705      2.658      3.351
REMARK  8 active torsions:
REMARK  status: ('A' for Active; 'I' for Inactive)
REMARK    1  A    between atoms: N1_1  and  C1_4
REMARK    2  A    between atoms: C2_7  and  N3_8
REMARK    3  A    between atoms: N4_11  and  S1_12
REMARK    4  A    between atoms: S1_12  and  C3_15
REMARK    5  A    between atoms: C6_18  and  O3_19
REMARK    6  A    between atoms: O3_19  and  C7_20
REMARK    7  A    between atoms: C8_23  and  N6_24
REMARK    8  A    between atoms: C9_27  and  N7_28
ROOT
HETATM    1  C3  UNL     1       3.712   0.347  52.671  1.00  0.00     0.081 A
HETATM    2  C4  UNL     1       2.605   0.032  51.948  1.00  0.00     0.028 A
HETATM    3  C5  UNL     1       2.533   0.204  50.567  1.00  0.00     0.039 A
HETATM    4  C6  UNL     1       3.600   0.713  49.856  1.00  0.00     0.079 A
HETATM    5  C10 UNL     1       4.732   1.037  50.570  1.00  0.00     0.039 A
HETATM    6  C11 UNL     1       4.791   0.862  51.937  1.00  0.00     0.028 A
ENDROOT
BRANCH   1   7
HETATM    7  S1  UNL     1       3.805   0.132  54.389  1.00  0.00     0.287 S
HETATM    8  O1  UNL     1       4.858   1.121  54.877  1.00  0.00    -0.199 OA
HETATM    9  O2  UNL     1       4.401  -1.240  54.687  1.00  0.00    -0.199 OA
BRANCH   7  10
HETATM   10  N4  UNL     1       2.354   0.327  55.244  1.00  0.00    -0.012 N
HETATM   11  C2  UNL     1       1.592  -0.651  55.740  1.00  0.00     0.711 A
HETATM   12  N2  UNL     1       0.459  -0.367  56.469  1.00  0.00    -0.021 N
HETATM   13  C1  UNL     1       0.067   0.885  56.715  1.00  0.00     0.694 A
ATOM     14  H2  UNL     1      -0.099  -1.139  56.835  1.00  0.00     0.203 HD
HETATM   15  N10 UNL     1       0.820   1.869  56.221  1.00  0.00    -0.140 N
HETATM   16  C12 UNL     1       1.924   1.607  55.512  1.00  0.00     0.369 A
ATOM     17  H10 UNL     1       0.549   2.838  56.387  1.00  0.00     0.189 HD
HETATM   18  O6  UNL     1       2.603   2.578  55.068  1.00  0.00    -0.244 OA
BRANCH  11  19
HETATM   19  N3  UNL     1       1.859  -1.865  55.532  1.00  0.00    -0.233 N
ATOM     20  H32 UNL     1       2.717  -2.148  55.061  1.00  0.00     0.174 HD
ATOM     21  H31 UNL     1       1.169  -2.555  55.828  1.00  0.00     0.174 HD
ENDBRANCH  11  19
BRANCH  13  22
HETATM   22  N1  UNL     1      -0.991   1.154  57.396  1.00  0.00    -0.234 N
ATOM     23  H12 UNL     1      -0.917   1.615  58.303  1.00  0.00     0.174 HD
ATOM     24  H11 UNL     1      -1.927   0.923  57.064  1.00  0.00     0.174 HD
ENDBRANCH  13  22
ENDBRANCH   7  10
ENDBRANCH   1   7
BRANCH   4  25
HETATM   25  O3  UNL     1       3.571   0.900  48.481  1.00  0.00    -0.278 OA
BRANCH  25  26
HETATM   26  C7  UNL     1       3.629  -0.146  47.579  1.00  0.00     0.245 A
HETATM   27  N5  UNL     1       3.852   0.095  46.266  1.00  0.00    -0.304 N
HETATM   28  C8  UNL     1       3.910  -0.920  45.378  1.00  0.00     0.154 A
ATOM     29  H5  UNL     1       3.977   1.054  45.944  1.00  0.00     0.171 HD
HETATM   30  C9  UNL     1       3.735  -2.196  45.864  1.00  0.00     0.232 A
HETATM   31  N8  UNL     1       3.517  -2.397  47.174  1.00  0.00    -0.274 N
HETATM   32  N9  UNL     1       3.460  -1.394  48.041  1.00  0.00    -0.263 N
ATOM     33  H8  UNL     1       3.390  -3.350  47.512  1.00  0.00     0.189 HD
ATOM     34  H9  UNL     1       3.293  -1.569  49.032  1.00  0.00     0.190 HD
BRANCH  28  35
HETATM   35  N6  UNL     1       4.117  -0.769  44.115  1.00  0.00    -0.382 N
ATOM     36  H62 UNL     1       5.028  -0.422  43.811  1.00  0.00     0.157 HD
ATOM     37  H61 UNL     1       3.429  -0.972  43.390  1.00  0.00     0.157 HD
ENDBRANCH  28  35
BRANCH  30  38
HETATM   38  N7  UNL     1       3.783  -3.305  44.999  1.00  0.00    -0.093 N
HETATM   39  O4  UNL     1       2.707  -3.807  44.602  1.00  0.00    -0.530 OA
HETATM   40  O5  UNL     1       4.955  -3.876  44.557  1.00  0.00    -0.530 OA
ENDBRANCH  30  38
ENDBRANCH  25  26
ENDBRANCH   4  25
TORSDOF 8
ENDMDL