MODEL 2
REMARK VINA RESULT: -8.145986218      2.151      3.009
REMARK  9 active torsions:
REMARK  status: ('A' for Active; 'I' for Inactive)
REMARK    1  A    between atoms: N1_1  and  C1_4
REMARK    2  A    between atoms: C2_10  and  N4_11
REMARK    3  A    between atoms: C3_12  and  N5_13
REMARK    4  A    between atoms: C9_22  and  N7_23
REMARK    5  A    between atoms: C10_28  and  S1_29
REMARK    6  A    between atoms: S1_29  and  C11_30
REMARK    7  A    between atoms: C11_30  and  C12_31
REMARK    8  A    between atoms: C12_31  and  N9_32
REMARK    9  A    between atoms: C12_31  and  C13_36
ROOT
HETATM    1  N4  UNL     1       1.911  -1.181  54.008  1.00  0.00    -0.109 N
HETATM    2  C3  UNL     1       3.196  -0.842  53.781  1.00  0.00     0.691 A
HETATM    3  N6  UNL     1       3.428  -0.973  52.434  1.00  0.00    -0.184 N
ATOM      4  H6  UNL     1       4.318  -0.786  51.970  1.00  0.00     0.184 HD
HETATM    5  C8  UNL     1       2.315  -1.382  51.825  1.00  0.00     0.138 A
HETATM    6  C9  UNL     1       2.030  -1.648  50.501  1.00  0.00     0.132 A
HETATM    7  N8  UNL     1       0.784  -2.039  50.226  1.00  0.00    -0.321 N
ATOM      8  H8  UNL     1       0.552  -2.241  49.254  1.00  0.00     0.169 HD
HETATM    9  C10 UNL     1      -0.189  -2.185  51.149  1.00  0.00     0.147 A
HETATM   10  N11 UNL     1       0.132  -1.915  52.428  1.00  0.00    -0.320 N
ATOM     11  H11 UNL     1      -0.590  -2.021  53.141  1.00  0.00     0.169 HD
HETATM   12  C14 UNL     1       1.367  -1.510  52.817  1.00  0.00     0.164 A
ENDROOT
BRANCH   1  13
HETATM   13  C2  UNL     1       1.258  -1.178  55.264  1.00  0.00     0.198 A
HETATM   14  C1  UNL     1       1.241  -2.168  56.220  1.00  0.00     0.168 A
HETATM   15  N2  UNL     1       0.496  -1.740  57.255  1.00  0.00    -0.222 N
HETATM   16  O1  UNL     1       0.066  -0.545  56.968  1.00  0.00    -0.153 OA
ATOM     17  H2  UNL     1       0.303  -2.258  58.112  1.00  0.00     0.198 HD
HETATM   18  N3  UNL     1       0.499  -0.180  55.796  1.00  0.00    -0.221 N
ATOM     19  H3  UNL     1       0.302   0.714  55.347  1.00  0.00     0.198 HD
BRANCH  14  20
HETATM   20  N1  UNL     1       1.805  -3.325  56.198  1.00  0.00    -0.381 N
ATOM     21  H12 UNL     1       2.121  -3.900  56.979  1.00  0.00     0.157 HD
ATOM     22  H11 UNL     1       2.016  -3.821  55.332  1.00  0.00     0.157 HD
ENDBRANCH  14  20
ENDBRANCH   1  13
BRANCH   2  23
HETATM   23  N5  UNL     1       4.198  -0.418  54.652  1.00  0.00    -0.213 N
HETATM   24  C4  UNL     1       4.652   0.943  54.687  1.00  0.00     0.167 C
HETATM   25  C5  UNL     1       5.285   1.291  56.011  1.00  0.00     0.188 C
HETATM   26  O2  UNL     1       5.037   0.497  57.060  1.00  0.00    -0.388 OA
HETATM   27  C6  UNL     1       4.561  -0.754  56.948  1.00  0.00     0.188 C
HETATM   28  C7  UNL     1       4.826  -1.324  55.574  1.00  0.00     0.167 C
ENDBRANCH   2  23
BRANCH   6  29
HETATM   29  N7  UNL     1       2.904  -1.540  49.560  1.00  0.00    -0.383 N
ATOM     30  H72 UNL     1       3.267  -0.625  49.294  1.00  0.00     0.157 HD
ATOM     31  H71 UNL     1       3.266  -2.341  49.042  1.00  0.00     0.157 HD
ENDBRANCH   6  29
BRANCH   9  32
HETATM   32  S1  UNL     1      -1.824  -2.733  50.682  1.00  0.00    -0.091 SA
BRANCH  32  33
HETATM   33  C11 UNL     1      -1.690  -4.126  49.537  1.00  0.00     0.124 C
BRANCH  33  34
HETATM   34  C12 UNL     1      -3.003  -4.283  48.770  1.00  0.00     0.281 C
BRANCH  34  35
HETATM   35  N9  UNL     1      -4.036  -3.538  49.444  1.00  0.00    -0.066 N
ATOM     36  H93 UNL     1      -4.467  -4.071  50.199  1.00  0.00     0.275 HD
ATOM     37  H92 UNL     1      -3.661  -2.773  50.003  1.00  0.00     0.275 HD
ATOM     38  H91 UNL     1      -4.720  -3.217  48.758  1.00  0.00     0.275 HD
ENDBRANCH  34  35
BRANCH  34  39
HETATM   39  C13 UNL     1      -3.365  -5.708  48.591  1.00  0.00     0.262 C
HETATM   40  N10 UNL     1      -2.575  -6.618  47.859  1.00  0.00    -0.060 NA
HETATM   41  O3  UNL     1      -4.446  -6.088  49.135  1.00  0.00    -0.275 OA
ENDBRANCH  34  39
ENDBRANCH  33  34
ENDBRANCH  32  33
ENDBRANCH   9  32
TORSDOF 9
ENDMDL