MODEL 1
REMARK VINA RESULT: -7.092104576      0.000      0.000
REMARK  8 active torsions:
REMARK  status: ('A' for Active; 'I' for Inactive)
REMARK    1  A    between atoms: C2_2  and  O1_3
REMARK    2  A    between atoms: O1_3  and  C3_4
REMARK    3  A    between atoms: C3_4  and  O2_5
REMARK    4  A    between atoms: C3_4  and  C5_7
REMARK    5  A    between atoms: N1_9  and  C7_10
REMARK    6  A    between atoms: N4_17  and  C9_19
REMARK    7  A    between atoms: C14_26  and  N6_27
REMARK    8  A    between atoms: C15_32  and  N8_33
REMARK       I    between atoms: N8_33  and  C16_35
REMARK       I    between atoms: C16_35  and  N9_36
REMARK       I    between atoms: C16_35  and  N10_40
ROOT
HETATM    1  C5  UNL     1      -2.467   1.709  53.704  1.00  0.00     0.123 A
HETATM    2  C6  UNL     1      -2.485   0.885  52.672  1.00  0.00     0.149 A
HETATM    3  N1  UNL     1      -1.839  -0.282  53.035  1.00  0.00    -0.134 N
HETATM    4  C13 UNL     1      -1.453  -0.088  54.313  1.00  0.00     0.726 A
HETATM    5  N5  UNL     1      -0.802  -0.866  55.167  1.00  0.00    -0.020 N
ATOM      6  H5  UNL     1      -0.507  -1.792  54.855  1.00  0.00     0.203 HD
HETATM    7  C14 UNL     1      -0.509  -0.489  56.435  1.00  0.00     0.705 A
HETATM    8  N7  UNL     1      -0.896   0.723  56.830  1.00  0.00    -0.021 N
ATOM      9  H7  UNL     1      -0.690   1.036  57.779  1.00  0.00     0.203 HD
HETATM   10  C15 UNL     1      -1.557   1.539  55.987  1.00  0.00     0.717 A
HETATM   11  N11 UNL     1      -1.860   1.172  54.710  1.00  0.00     0.027 N
ENDROOT
BRANCH   3  12
HETATM   12  C7  UNL     1      -1.656  -1.382  52.170  1.00  0.00     0.195 A
HETATM   13  N2  UNL     1      -2.550  -2.306  51.807  1.00  0.00    -0.221 N
HETATM   14  O3  UNL     1      -2.013  -3.157  50.990  1.00  0.00    -0.153 OA
ATOM     15  H2  UNL     1      -3.518  -2.337  52.128  1.00  0.00     0.198 HD
HETATM   16  N3  UNL     1      -0.770  -2.827  50.789  1.00  0.00    -0.222 N
HETATM   17  C8  UNL     1      -0.469  -1.729  51.491  1.00  0.00     0.171 A
ATOM     18  H3  UNL     1      -0.122  -3.331  50.185  1.00  0.00     0.198 HD
HETATM   19  N4  UNL     1       0.575  -1.036  51.637  1.00  0.00    -0.364 N
ATOM     20  H4  UNL     1       0.476  -0.240  52.266  1.00  0.00     0.162 HD
BRANCH  19  21
HETATM   21  C9  UNL     1       1.872  -1.188  51.065  1.00  0.00     0.021 C
HETATM   22  C10 UNL     1       2.702  -2.046  52.014  1.00  0.00     0.037 C
HETATM   23  C11 UNL     1       1.900  -1.878  49.731  1.00  0.00     0.037 C
HETATM   24  C12 UNL     1       2.576   0.156  50.989  1.00  0.00     0.037 C
ENDBRANCH  19  21
ENDBRANCH   3  12
BRANCH   1  25
HETATM   25  C3  UNL     1      -3.164   3.245  53.753  1.00  0.00     0.313 C
BRANCH  25  26
HETATM   26  O1  UNL     1      -3.468   3.151  52.155  1.00  0.00    -0.356 OA
BRANCH  26  27
HETATM   27  C2  UNL     1      -2.870   4.262  51.654  1.00  0.00     0.167 C
HETATM   28  C1  UNL     1      -2.097   3.845  50.424  1.00  0.00     0.033 C
ENDBRANCH  26  27
ENDBRANCH  25  26
BRANCH  25  29
HETATM   29  O2  UNL     1      -4.390   2.730  53.986  1.00  0.00    -0.360 OA
HETATM   30  C4  UNL     1      -5.442   3.619  54.047  1.00  0.00     0.205 C
ENDBRANCH  25  29
ENDBRANCH   1  25
BRANCH   7  31
HETATM   31  N6  UNL     1       0.131  -1.294  57.232  1.00  0.00    -0.234 N
ATOM     32  H62 UNL     1      -0.039  -2.300  57.226  1.00  0.00     0.174 HD
ATOM     33  H61 UNL     1       0.823  -0.931  57.887  1.00  0.00     0.174 HD
ENDBRANCH   7  31
BRANCH  10  34
HETATM   34  N8  UNL     1      -1.952   2.707  56.338  1.00  0.00    -0.172 N
HETATM   35  C16 UNL     1      -2.851   2.878  57.442  1.00  0.00     0.494 C
HETATM   36  N9  UNL     1      -4.230   2.636  57.140  1.00  0.00    -0.032 N
HETATM   37  N10 UNL     1      -2.684   4.294  57.845  1.00  0.00    -0.032 N
ATOM     38  H93 UNL     1      -4.526   3.213  56.353  1.00  0.00     0.278 HD
ATOM     39  H92 UNL     1      -4.344   1.707  56.733  1.00  0.00     0.278 HD
ATOM     40  H91 UNL     1      -4.870   2.757  57.926  1.00  0.00     0.278 HD
ATOM     41 3H10 UNL     1      -1.720   4.557  58.050  1.00  0.00     0.278 HD
ATOM     42 2H10 UNL     1      -2.826   4.962  57.087  1.00  0.00     0.278 HD
ATOM     43 1H10 UNL     1      -3.324   4.416  58.631  1.00  0.00     0.278 HD
ATOM     44  H8  UNL     1      -1.623   3.525  55.824  1.00  0.00     0.181 HD
ENDBRANCH  10  34
TORSDOF 8
ENDMDL