MODEL 4
REMARK VINA RESULT: -8.406187328      5.263      9.416
REMARK  8 active torsions:
REMARK  status: ('A' for Active; 'I' for Inactive)
REMARK    1  A    between atoms: C2_2  and  C4_11
REMARK    2  A    between atoms: N1_3  and  N2_5
REMARK    3  A    between atoms: N2_5  and  S1_7
REMARK    4  A    between atoms: C5_13  and  N3_14
REMARK    5  A    between atoms: N3_14  and  N4_16
REMARK    6  A    between atoms: C6_18  and  C7_19
REMARK    7  A    between atoms: C10_28  and  N9_29
REMARK    8  A    between atoms: C11_34  and  C12_35
ROOT
HETATM    1  C4  UNL     1      -1.776   0.233  52.726  1.00  0.00     0.064 A
HETATM    2  S2  UNL     1      -1.642   0.489  54.460  1.00  0.00    -0.048 SA
HETATM    3  C5  UNL     1      -2.526   1.922  54.572  1.00  0.00     0.164 A
HETATM    4  N10 UNL     1      -2.883   2.157  53.325  1.00  0.00    -0.330 N
ATOM      5  H10 UNL     1      -3.440   2.981  53.096  1.00  0.00     0.168 HD
HETATM    6  C11 UNL     1      -2.509   1.306  52.361  1.00  0.00     0.119 A
ENDROOT
BRANCH   3   7
HETATM    7  N3  UNL     1      -2.809   2.656  55.640  1.00  0.00    -0.280 N
ATOM      8  H3  UNL     1      -2.125   2.786  56.386  1.00  0.00     0.189 HD
BRANCH   7   9
HETATM    9  N4  UNL     1      -4.070   3.242  55.709  1.00  0.00    -0.309 N
HETATM   10  C6  UNL     1      -5.127   2.753  55.224  1.00  0.00     0.126 C
ATOM     11  H4  UNL     1      -4.145   4.139  56.189  1.00  0.00     0.186 HD
BRANCH  10  12
HETATM   12  C7  UNL     1      -6.433   3.365  55.298  1.00  0.00     0.066 A
HETATM   13  C8  UNL     1      -7.218   3.122  56.446  1.00  0.00     0.134 A
HETATM   14  N5  UNL     1      -6.719   2.301  57.481  1.00  0.00    -0.082 NA
HETATM   15  N6  UNL     1      -8.428   3.658  56.568  1.00  0.00    -0.318 N
HETATM   16  C9  UNL     1      -8.968   4.455  55.615  1.00  0.00     0.195 A
ATOM     17  H6  UNL     1      -8.970   3.463  57.410  1.00  0.00     0.169 HD
HETATM   18  N7  UNL     1     -10.263   5.017  55.769  1.00  0.00    -0.063 NA
HETATM   19  N8  UNL     1      -8.230   4.685  54.534  1.00  0.00    -0.316 N
HETATM   20  C10 UNL     1      -6.980   4.171  54.336  1.00  0.00     0.116 A
ATOM     21  H8  UNL     1      -8.621   5.283  53.806  1.00  0.00     0.170 HD
BRANCH  20  22
HETATM   22  N9  UNL     1      -6.414   4.480  53.266  1.00  0.00    -0.385 N
ATOM     23  H92 UNL     1      -6.268   3.726  52.595  1.00  0.00     0.157 HD
ATOM     24  H91 UNL     1      -6.095   5.420  53.031  1.00  0.00     0.157 HD
ENDBRANCH  20  22
ENDBRANCH  10  12
ENDBRANCH   7   9
ENDBRANCH   3   7
BRANCH   1  25
HETATM   25  C2  UNL     1      -1.270  -0.977  52.055  1.00  0.00     0.042 C
HETATM   26  C1  UNL     1       0.117  -1.308  51.734  1.00  0.00     0.071 C
HETATM   27  N1  UNL     1      -2.229  -1.813  51.641  1.00  0.00    -0.295 N
ATOM     28  H1  UNL     1      -3.211  -1.626  51.840  1.00  0.00     0.187 HD
BRANCH  27  29
HETATM   29  N2  UNL     1      -1.845  -2.944  50.932  1.00  0.00    -0.227 N
ATOM     30  H2  UNL     1      -1.032  -3.481  51.235  1.00  0.00     0.200 HD
BRANCH  29  31
HETATM   31  S1  UNL     1      -2.744  -3.449  49.531  1.00  0.00     0.240 S
HETATM   32  C3  UNL     1      -2.292  -5.110  49.096  1.00  0.00     0.187 C
HETATM   33  O1  UNL     1      -2.473  -2.511  48.413  1.00  0.00    -0.205 OA
HETATM   34  O2  UNL     1      -4.222  -3.459  49.831  1.00  0.00    -0.205 OA
ENDBRANCH  29  31
ENDBRANCH  27  29
ENDBRANCH   1  25
BRANCH   6  35
HETATM   35  C12 UNL     1      -2.799   1.648  50.925  1.00  0.00     0.282 C
HETATM   36  N11 UNL     1      -3.597   0.730  50.149  1.00  0.00    -0.056 NA
HETATM   37  O3  UNL     1      -2.377   2.663  50.430  1.00  0.00    -0.269 OA
ENDBRANCH   6  35
TORSDOF 8
ENDMDL