MODEL 5
REMARK VINA RESULT: -9.407981537      3.880      5.248
REMARK  7 active torsions:
REMARK  status: ('A' for Active; 'I' for Inactive)
REMARK    1  A    between atoms: C5_13  and  C6_14
REMARK       I    between atoms: C6_14  and  N4_16
REMARK    2  A    between atoms: N4_16  and  N5_18
REMARK    3  A    between atoms: C7_20  and  C8_21
REMARK    4  A    between atoms: C8_21  and  C9_23
REMARK    5  A    between atoms: C9_23  and  C10_28
REMARK    6  A    between atoms: N6_24  and  O4_26
REMARK    7  A    between atoms: C14_32  and  N7_33
ROOT
HETATM    1  C6  UNL     1      -0.148   1.120  53.507  1.00  0.00     0.289 C
HETATM    2  O2  UNL     1       1.018   1.600  53.504  1.00  0.00    -0.264 OA
HETATM    3  N4  UNL     1      -0.541   0.075  52.638  1.00  0.00    -0.265 N
ATOM      4  H4  UNL     1      -1.487  -0.306  52.651  1.00  0.00     0.190 HD
ENDROOT
BRANCH   3   5
HETATM    5  N5  UNL     1       0.448  -0.416  51.747  1.00  0.00    -0.305 N
HETATM    6  C7  UNL     1       0.329  -1.603  51.314  1.00  0.00     0.164 C
ATOM      7  H5  UNL     1       1.233   0.169  51.462  1.00  0.00     0.186 HD
BRANCH   6   8
HETATM    8  C8  UNL     1       1.357  -2.121  50.385  1.00  0.00     0.217 C
HETATM    9  O3  UNL     1       1.068  -3.069  49.663  1.00  0.00    -0.284 OA
BRANCH   8  10
HETATM   10  C9  UNL     1       2.681  -1.461  50.380  1.00  0.00     0.116 C
HETATM   11  N6  UNL     1       3.340  -1.549  51.446  1.00  0.00    -0.265 N
ATOM     12  H6  UNL     1       2.845  -2.075  52.165  1.00  0.00     0.194 HD
BRANCH  11  13
HETATM   13  O4  UNL     1       4.502  -1.130  51.851  1.00  0.00    -0.289 OA
ATOM     14  H4  UNL     1       4.882  -0.283  52.053  1.00  0.00     0.244 HD
ENDBRANCH  11  13
BRANCH  10  15
HETATM   15  C10 UNL     1       3.132  -0.720  49.212  1.00  0.00    -0.001 A
HETATM   16  C11 UNL     1       3.675   0.559  49.376  1.00  0.00     0.014 A
HETATM   17  C12 UNL     1       4.161   1.289  48.299  1.00  0.00     0.003 A
HETATM   18  C13 UNL     1       4.128   0.782  47.028  1.00  0.00     0.036 A
HETATM   19  C14 UNL     1       3.603  -0.475  46.814  1.00  0.00     0.103 A
HETATM   20  C15 UNL     1       3.121  -1.185  47.920  1.00  0.00     0.050 A
BRANCH  19  21
HETATM   21  N7  UNL     1       3.543  -1.049  45.520  1.00  0.00    -0.116 N
HETATM   22  O5  UNL     1       3.356  -2.266  45.415  1.00  0.00    -0.532 OA
HETATM   23  O6  UNL     1       3.682  -0.311  44.380  1.00  0.00    -0.532 OA
ENDBRANCH  19  21
ENDBRANCH  10  15
ENDBRANCH   8  10
ENDBRANCH   6   8
ENDBRANCH   3   5
BRANCH   1  24
HETATM   24  C5  UNL     1      -1.100   1.670  54.442  1.00  0.00     0.134 A
HETATM   25  C4  UNL     1      -2.392   1.320  54.404  1.00  0.00     0.126 A
HETATM   26  N3  UNL     1      -3.350   1.845  55.312  1.00  0.00    -0.343 N
HETATM   27  C3  UNL     1      -3.006   2.684  56.213  1.00  0.00     0.215 A
ATOM     28  H3  UNL     1      -4.324   1.549  55.245  1.00  0.00     0.167 HD
HETATM   29  C2  UNL     1      -4.005   3.210  57.134  1.00  0.00     0.307 A
HETATM   30  N9  UNL     1      -1.635   3.112  56.322  1.00  0.00    -0.159 N
HETATM   31  N2  UNL     1      -3.574   4.131  58.108  1.00  0.00    -0.152 N
HETATM   32  O1  UNL     1      -5.199   2.869  57.078  1.00  0.00    -0.263 OA
HETATM   33  C1  UNL     1      -2.202   4.550  58.206  1.00  0.00     0.695 A
ATOM     34  H2  UNL     1      -4.256   4.512  58.764  1.00  0.00     0.188 HD
HETATM   35  N1  UNL     1      -1.804   5.393  59.096  1.00  0.00    -0.233 N
HETATM   36  N10 UNL     1      -1.254   4.017  57.292  1.00  0.00    -0.109 N
ATOM     37  H12 UNL     1      -2.485   5.775  59.753  1.00  0.00     0.174 HD
ATOM     38  H11 UNL     1      -0.831   5.690  59.165  1.00  0.00     0.174 HD
ATOM     39  H10 UNL     1      -0.279   4.308  57.354  1.00  0.00     0.208 HD
HETATM   40  N8  UNL     1      -0.671   2.593  55.421  1.00  0.00    -0.271 N
ATOM     41  H8  UNL     1       0.306   2.880  55.478  1.00  0.00     0.189 HD
ENDBRANCH   1  24
TORSDOF 7
ENDMDL