MODEL 2
REMARK VINA RESULT: -7.509497836      3.757      5.596
REMARK  8 active torsions:
REMARK  status: ('A' for Active; 'I' for Inactive)
REMARK    1  A    between atoms: O1_2  and  C2_3
REMARK    2  A    between atoms: C4_5  and  C5_6
REMARK    3  A    between atoms: C5_6  and  C6_7
REMARK    4  A    between atoms: C6_7  and  C7_8
REMARK    5  A    between atoms: C6_7  and  N1_10
REMARK       I    between atoms: N1_10  and  C8_12
REMARK    6  A    between atoms: C10_18  and  S1_19
REMARK    7  A    between atoms: S1_19  and  N4_20
REMARK    8  A    between atoms: C11_25  and  O5_26
ROOT
HETATM    1  C2  UNL     1      -7.138  -8.682   5.356  1.00  0.00     0.103 A
HETATM    2  C3  UNL     1      -8.320  -9.427   5.270  1.00  0.00     0.047 A
HETATM    3  C4  UNL     1      -8.792 -10.114   6.375  1.00  0.00    -0.051 A
HETATM    4  C9  UNL     1      -8.098 -10.064   7.560  1.00  0.00     0.035 A
HETATM    5  C10 UNL     1      -6.936  -9.326   7.623  1.00  0.00     0.115 A
HETATM    6  C11 UNL     1      -6.434  -8.628   6.543  1.00  0.00     0.122 A
ENDROOT
BRANCH   3   7
HETATM    7  C5  UNL     1     -10.047 -10.917   6.319  1.00  0.00     0.070 C
BRANCH   7   8
HETATM    8  C6  UNL     1     -10.949 -10.458   5.191  1.00  0.00     0.149 C
BRANCH   8   9
HETATM    9  C7  UNL     1     -11.041 -11.460   4.105  1.00  0.00     0.256 C
HETATM   10  O2  UNL     1     -10.177 -12.314   3.947  1.00  0.00    -0.305 OA
ENDBRANCH   8   9
BRANCH   8  11
HETATM   11  N1  UNL     1     -12.256 -10.224   5.722  1.00  0.00    -0.354 N
HETATM   12  C8  UNL     1     -13.160  -9.412   4.969  1.00  0.00     0.182 C
HETATM   13  N2  UNL     1     -12.719  -8.343   4.389  1.00  0.00    -0.374 N
HETATM   14  N3  UNL     1     -14.518  -9.799   4.877  1.00  0.00    -0.064 NA
ATOM     15  H22 UNL     1     -11.740  -8.064   4.455  1.00  0.00     0.158 HD
ATOM     16  H21 UNL     1     -13.364  -7.764   3.851  1.00  0.00     0.158 HD
ATOM     17  H1  UNL     1     -12.537 -10.627   6.616  1.00  0.00     0.163 HD
ENDBRANCH   8  11
ENDBRANCH   7   8
ENDBRANCH   3   7
BRANCH   1  18
HETATM   18  O1  UNL     1      -6.639  -7.980   4.258  1.00  0.00    -0.353 OA
HETATM   19  C1  UNL     1      -6.047  -8.719   3.223  1.00  0.00     0.210 C
ENDBRANCH   1  18
BRANCH   5  20
HETATM   20  S1  UNL     1      -6.030  -9.241   9.113  1.00  0.00     0.259 S
HETATM   21  O3  UNL     1      -4.570  -9.032   8.841  1.00  0.00    -0.201 OA
HETATM   22  O4  UNL     1      -6.145 -10.564   9.829  1.00  0.00    -0.201 OA
BRANCH  20  23
HETATM   23  N4  UNL     1      -6.644  -7.952  10.068  1.00  0.00    -0.324 N
ATOM     24  H42 UNL     1      -6.183  -7.051  10.192  1.00  0.00     0.169 HD
ATOM     25  H41 UNL     1      -7.531  -8.239  10.481  1.00  0.00     0.169 HD
ENDBRANCH  20  23
ENDBRANCH   5  20
BRANCH   6  26
HETATM   26  O5  UNL     1      -5.269  -7.880   6.587  1.00  0.00    -0.357 OA
ATOM     27  H5  UNL     1      -4.480  -8.250   6.209  1.00  0.00     0.218 HD
ENDBRANCH   6  26
TORSDOF 8
ENDMDL