MODEL 2
REMARK VINA RESULT: -7.524491485      2.647      6.363
REMARK  8 active torsions:
REMARK  status: ('A' for Active; 'I' for Inactive)
REMARK    1  A    between atoms: O1_2  and  N1_3
REMARK    2  A    between atoms: N1_3  and  C2_4
REMARK    3  A    between atoms: C2_4  and  C3_5
REMARK    4  A    between atoms: C2_4  and  C7_20
REMARK       I    between atoms: C3_5  and  N2_7
REMARK    5  A    between atoms: N2_7  and  C4_9
REMARK    6  A    between atoms: C4_9  and  C5_10
REMARK    7  A    between atoms: C4_9  and  C6_13
REMARK       I    between atoms: C6_13  and  N3_15
REMARK    8  A    between atoms: N3_15  and  N4_17
ROOT
HETATM    1  C3  UNL     1      -8.559  -9.737   6.430  1.00  0.00     0.245 C
HETATM    2  O2  UNL     1      -9.135 -10.478   7.280  1.00  0.00    -0.271 OA
HETATM    3  N2  UNL     1      -7.812  -8.589   6.837  1.00  0.00    -0.337 N
ATOM      4  H2  UNL     1      -7.354  -8.004   6.138  1.00  0.00     0.163 HD
ENDROOT
BRANCH   1   5
HETATM    5  C2  UNL     1      -8.664 -10.073   4.988  1.00  0.00     0.231 C
BRANCH   5   6
HETATM    6  N1  UNL     1      -7.950  -9.104   4.198  1.00  0.00    -0.082 NA
BRANCH   6   7
HETATM    7  O1  UNL     1      -6.636  -9.424   4.221  1.00  0.00    -0.290 OA
HETATM    8  C1  UNL     1      -6.364 -10.550   3.441  1.00  0.00     0.231 C
ENDBRANCH   6   7
ENDBRANCH   5   6
BRANCH   5   9
HETATM    9  C7  UNL     1     -10.114 -10.106   4.641  1.00  0.00    -0.022 A
HETATM   10  C8  UNL     1     -11.011  -9.181   5.111  1.00  0.00     0.010 A
HETATM   11  C9  UNL     1     -12.363  -9.192   4.804  1.00  0.00     0.001 A
HETATM   12  C10 UNL     1     -12.825 -10.198   3.974  1.00  0.00     0.001 A
HETATM   13  C11 UNL     1     -11.931 -11.134   3.495  1.00  0.00     0.007 A
HETATM   14  C12 UNL     1     -10.588 -11.113   3.807  1.00  0.00    -0.053 A
HETATM   15  C13 UNL     1      -9.702 -12.147   3.255  1.00  0.00     0.049 C
ENDBRANCH   5   9
ENDBRANCH   1   5
BRANCH   3  16
HETATM   16  C4  UNL     1      -7.704  -8.254   8.249  1.00  0.00     0.280 C
BRANCH  16  17
HETATM   17  C5  UNL     1      -7.423  -6.801   8.383  1.00  0.00     0.206 C
HETATM   18  O3  UNL     1      -7.172  -6.095   7.377  1.00  0.00    -0.646 OA
HETATM   19  O4  UNL     1      -7.444  -6.245   9.648  1.00  0.00    -0.646 OA
ENDBRANCH  16  17
BRANCH  16  20
HETATM   20  C6  UNL     1      -6.665  -9.103   8.880  1.00  0.00     0.269 C
HETATM   21  O5  UNL     1      -5.463  -8.798   8.690  1.00  0.00    -0.269 OA
HETATM   22  N3  UNL     1      -6.967 -10.226   9.675  1.00  0.00    -0.274 N
ATOM     23  H3  UNL     1      -7.940 -10.484   9.836  1.00  0.00     0.189 HD
BRANCH  22  24
HETATM   24  N4  UNL     1      -5.954 -10.985  10.243  1.00  0.00    -0.343 N
ATOM     25  H42 UNL     1      -5.130 -11.200   9.681  1.00  0.00     0.176 HD
ATOM     26  H41 UNL     1      -6.031 -11.322  11.202  1.00  0.00     0.176 HD
ENDBRANCH  22  24
ENDBRANCH  16  20
ENDBRANCH   3  16
TORSDOF 8
ENDMDL