MODEL 4
REMARK VINA RESULT: -6.832641604      2.023      3.444
REMARK  10 active torsions:
REMARK  status: ('A' for Active; 'I' for Inactive)
REMARK    1  A    between atoms: O1_2  and  C2_3
REMARK    2  A    between atoms: C3_4  and  C4_5
REMARK    3  A    between atoms: C3_4  and  C11_23
REMARK    4  A    between atoms: C4_5  and  N1_6
REMARK    5  A    between atoms: C4_5  and  C5_10
REMARK       I    between atoms: C5_10  and  N2_12
REMARK    6  A    between atoms: N2_12  and  C6_14
REMARK    7  A    between atoms: C6_14  and  C7_15
REMARK    8  A    between atoms: C6_14  and  C10_20
REMARK    9  A    between atoms: C7_15  and  C8_16
REMARK   10  A    between atoms: C8_16  and  C9_17
ROOT
HETATM    1  C4  UNL     1      -9.557 -10.559   6.348  1.00  0.00     0.306 C
ENDROOT
BRANCH   1   2
HETATM    2  C3  UNL     1     -10.142 -10.048   5.053  1.00  0.00    -0.011 C
HETATM    3  C2  UNL     1      -9.323  -9.654   4.107  1.00  0.00     0.140 C
BRANCH   3   4
HETATM    4  O1  UNL     1      -9.672  -9.169   2.885  1.00  0.00    -0.368 OA
HETATM    5  C1  UNL     1      -8.766  -8.843   1.855  1.00  0.00     0.208 C
ENDBRANCH   3   4
BRANCH   2   6
HETATM    6  C11 UNL     1     -11.582 -10.029   4.872  1.00  0.00    -0.024 C
HETATM    7  C12 UNL     1     -12.210  -8.675   4.644  1.00  0.00     0.019 C
HETATM    8  C13 UNL     1     -12.335 -10.640   6.042  1.00  0.00     0.019 C
HETATM    9  C14 UNL     1     -11.936 -10.935   3.682  1.00  0.00     0.019 C
ENDBRANCH   2   6
ENDBRANCH   1   2
BRANCH   1  10
HETATM   10  N1  UNL     1      -8.870 -11.837   6.085  1.00  0.00    -0.062 N
ATOM     11  H13 UNL     1      -8.741 -12.013   5.089  1.00  0.00     0.275 HD
ATOM     12  H12 UNL     1      -7.887 -11.814   6.353  1.00  0.00     0.275 HD
ATOM     13  H11 UNL     1      -9.384 -12.586   6.551  1.00  0.00     0.275 HD
ENDBRANCH   1  10
BRANCH   1  14
HETATM   14  C5  UNL     1      -8.507  -9.664   6.868  1.00  0.00     0.253 C
HETATM   15  O2  UNL     1      -8.824  -8.478   7.189  1.00  0.00    -0.271 OA
HETATM   16  N2  UNL     1      -7.155 -10.026   7.040  1.00  0.00    -0.346 N
ATOM     17  H2  UNL     1      -6.867 -10.971   6.790  1.00  0.00     0.163 HD
BRANCH  16  18
HETATM   18  C6  UNL     1      -6.142  -9.100   7.563  1.00  0.00     0.174 C
BRANCH  18  19
HETATM   19  C7  UNL     1      -5.196  -8.696   6.498  1.00  0.00     0.043 C
BRANCH  19  20
HETATM   20  C8  UNL     1      -5.524  -9.260   5.164  1.00  0.00     0.102 C
BRANCH  20  21
HETATM   21  C9  UNL     1      -5.781  -8.170   4.154  1.00  0.00     0.231 C
HETATM   22  N3  UNL     1      -5.163  -8.194   2.896  1.00  0.00    -0.062 NA
HETATM   23  O3  UNL     1      -6.554  -7.256   4.472  1.00  0.00    -0.277 OA
ENDBRANCH  20  21
ENDBRANCH  19  20
ENDBRANCH  18  19
BRANCH  18  24
HETATM   24  C10 UNL     1      -5.601  -9.645   8.799  1.00  0.00     0.254 C
HETATM   25  N4  UNL     1      -4.334  -9.361   9.378  1.00  0.00    -0.060 NA
HETATM   26  O4  UNL     1      -6.336 -10.474   9.454  1.00  0.00    -0.275 OA
ENDBRANCH  18  24
ENDBRANCH  16  18
ENDBRANCH   1  14
TORSDOF 10
ENDMDL