MODEL 5
REMARK VINA RESULT: -7.298731975      2.666      7.565
REMARK  8 active torsions:
REMARK  status: ('A' for Active; 'I' for Inactive)
REMARK    1  A    between atoms: C1_4  and  C2_6
REMARK    2  A    between atoms: C5_9  and  S1_10
REMARK    3  A    between atoms: S1_10  and  N3_13
REMARK    4  A    between atoms: N3_13  and  C6_15
REMARK    5  A    between atoms: C6_15  and  C7_16
REMARK    6  A    between atoms: C6_15  and  C8_18
REMARK    7  A    between atoms: C8_18  and  C9_19
REMARK    8  A    between atoms: C9_19  and  C10_20
ROOT
HETATM    1  S1  UNL     1      -9.876 -10.773   4.021  1.00  0.00     0.266 S
HETATM    2  O1  UNL     1      -9.314 -10.422   2.641  1.00  0.00    -0.200 OA
HETATM    3  O2  UNL     1      -9.861 -12.283   4.120  1.00  0.00    -0.200 OA
ENDROOT
BRANCH   1   4
HETATM    4  C5  UNL     1      -8.787 -10.058   5.167  1.00  0.00     0.120 A
HETATM    5  C4  UNL     1      -7.673  -9.299   5.098  1.00  0.00     0.034 A
HETATM    6  C3  UNL     1      -7.075  -8.931   6.255  1.00  0.00     0.024 A
HETATM    7  C2  UNL     1      -7.655  -9.363   7.416  1.00  0.00     0.047 A
HETATM    8  S2  UNL     1      -8.997 -10.256   6.862  1.00  0.00    -0.073 SA
BRANCH   7   9
HETATM    9  C1  UNL     1      -7.203  -9.102   8.805  1.00  0.00     0.127 C
HETATM   10  N1  UNL     1      -6.860 -10.088   9.553  1.00  0.00    -0.387 N
ATOM     11  H12 UNL     1      -6.550  -9.909  10.508  1.00  0.00     0.157 HD
ATOM     12  H11 UNL     1      -6.909 -11.031   9.166  1.00  0.00     0.157 HD
HETATM   13  N2  UNL     1      -7.137  -7.809   9.336  1.00  0.00    -0.082 NA
ENDBRANCH   7   9
ENDBRANCH   1   4
BRANCH   1  14
HETATM   14  N3  UNL     1     -11.475 -10.266   4.071  1.00  0.00    -0.303 N
ATOM     15  H3  UNL     1     -11.766  -9.353   3.719  1.00  0.00     0.173 HD
BRANCH  14  16
HETATM   16  C6  UNL     1     -12.411 -11.196   4.639  1.00  0.00     0.157 C
BRANCH  16  17
HETATM   17  C7  UNL     1     -12.691 -10.885   6.059  1.00  0.00     0.257 C
HETATM   18  O3  UNL     1     -12.345 -11.630   6.972  1.00  0.00    -0.305 OA
ENDBRANCH  16  17
BRANCH  16  19
HETATM   19  C8  UNL     1     -13.755 -11.128   3.893  1.00  0.00     0.063 C
BRANCH  19  20
HETATM   20  C9  UNL     1     -13.738 -12.011   2.706  1.00  0.00     0.018 C
BRANCH  20  21
HETATM   21  C10 UNL     1     -13.236 -13.231   2.745  1.00  0.00     0.124 C
HETATM   22  N4  UNL     1     -12.065 -13.565   2.013  1.00  0.00    -0.086 NA
HETATM   23  N5  UNL     1     -13.842 -14.263   3.515  1.00  0.00    -0.086 NA
ENDBRANCH  20  21
ENDBRANCH  19  20
ENDBRANCH  16  19
ENDBRANCH  14  16
ENDBRANCH   1  14
TORSDOF 8
ENDMDL