MODEL 3
REMARK VINA RESULT: -7.956100986      1.270      1.648
REMARK  10 active torsions:
REMARK  status: ('A' for Active; 'I' for Inactive)
REMARK    1  A    between atoms: C1_4  and  C2_6
REMARK    2  A    between atoms: C2_6  and  O1_7
REMARK    3  A    between atoms: C2_6  and  C3_9
REMARK    4  A    between atoms: C3_9  and  C4_10
REMARK    5  A    between atoms: C3_9  and  N5_20
REMARK    6  A    between atoms: C4_10  and  C5_11
REMARK    7  A    between atoms: N4_17  and  O2_18
REMARK    8  A    between atoms: N5_20  and  C9_22
REMARK    9  A    between atoms: C9_22  and  O3_23
REMARK   10  A    between atoms: C9_22  and  C10_25
ROOT
HETATM    1  C3  UNL     1      -6.277  -9.049   6.940  1.00  0.00     0.120 C
ENDROOT
BRANCH   1   2
HETATM    2  C2  UNL     1      -6.059  -8.480   8.293  1.00  0.00     0.204 C
BRANCH   2   3
HETATM    3  C1  UNL     1      -5.676  -9.645   9.189  1.00  0.00     0.117 C
HETATM    4  N1  UNL     1      -6.487 -10.487   9.519  1.00  0.00    -0.389 N
ATOM      5  H12 UNL     1      -6.230 -11.269  10.121  1.00  0.00     0.157 HD
ATOM      6  H11 UNL     1      -7.457 -10.451   9.203  1.00  0.00     0.157 HD
HETATM    7  N2  UNL     1      -4.329  -9.695   9.627  1.00  0.00    -0.085 NA
ENDBRANCH   2   3
BRANCH   2   8
HETATM    8  O1  UNL     1      -4.942  -7.664   8.301  1.00  0.00    -0.386 OA
ATOM      9  H1  UNL     1      -4.321  -8.113   7.740  1.00  0.00     0.210 HD
ENDBRANCH   2   8
ENDBRANCH   1   2
BRANCH   1  10
HETATM   10  C4  UNL     1      -5.312  -8.770   5.867  1.00  0.00     0.089 C
BRANCH  10  11
HETATM   11  C5  UNL     1      -5.647  -9.147   4.487  1.00  0.00     0.061 A
HETATM   12  C6  UNL     1      -5.856 -10.430   4.026  1.00  0.00     0.031 A
HETATM   13  C7  UNL     1      -6.171 -10.716   2.715  1.00  0.00     0.021 A
HETATM   14  C8  UNL     1      -6.285  -9.682   1.812  1.00  0.00     0.109 A
HETATM   15  N3  UNL     1      -6.079  -8.437   2.272  1.00  0.00    -0.286 N
HETATM   16  N4  UNL     1      -5.778  -8.179   3.531  1.00  0.00    -0.168 N
ATOM     17  H3  UNL     1      -6.160  -7.656   1.621  1.00  0.00     0.188 HD
BRANCH  16  18
HETATM   18  O2  UNL     1      -5.575  -6.873   3.959  1.00  0.00    -0.268 OA
ATOM     19  H2  UNL     1      -5.982  -6.196   3.431  1.00  0.00     0.247 HD
ENDBRANCH  16  18
ENDBRANCH  10  11
ENDBRANCH   1  10
BRANCH   1  20
HETATM   20  N5  UNL     1      -7.626  -8.856   6.454  1.00  0.00    -0.386 N
ATOM     21  H5  UNL     1      -7.969  -7.924   6.218  1.00  0.00     0.156 HD
BRANCH  20  22
HETATM   22  C9  UNL     1      -8.448  -9.984   6.314  1.00  0.00     0.248 C
BRANCH  22  23
HETATM   23  O3  UNL     1      -9.040 -10.459   7.507  1.00  0.00    -0.373 OA
ATOM     24  H3  UNL     1      -9.146 -11.401   7.565  1.00  0.00     0.212 HD
ENDBRANCH  22  23
BRANCH  22  25
HETATM   25  C10 UNL     1      -9.579  -9.700   5.398  1.00  0.00    -0.011 A
HETATM   26  C11 UNL     1      -9.441  -9.722   4.015  1.00  0.00     0.011 A
HETATM   27  C12 UNL     1     -10.502  -9.444   3.176  1.00  0.00     0.001 A
HETATM   28  C13 UNL     1     -11.740  -9.134   3.689  1.00  0.00     0.000 A
HETATM   29  C14 UNL     1     -11.911  -9.103   5.054  1.00  0.00     0.001 A
HETATM   30  C15 UNL     1     -10.826  -9.387   5.882  1.00  0.00     0.011 A
ENDBRANCH  22  25
ENDBRANCH  20  22
ENDBRANCH   1  20
TORSDOF 10
ENDMDL