MODEL 2
REMARK VINA RESULT: -7.727294524      2.153      2.530
REMARK  9 active torsions:
REMARK  status: ('A' for Active; 'I' for Inactive)
REMARK    1  A    between atoms: C3_6  and  C4_7
REMARK    2  A    between atoms: C4_7  and  O2_8
REMARK    3  A    between atoms: C4_7  and  C5_10
REMARK    4  A    between atoms: C5_10  and  O3_11
REMARK    5  A    between atoms: C5_10  and  N2_13
REMARK    6  A    between atoms: N2_13  and  O4_14
REMARK    7  A    between atoms: O4_14  and  C6_15
REMARK    8  A    between atoms: C6_15  and  C7_16
REMARK    9  A    between atoms: C7_16  and  C8_17
ROOT
HETATM    1  C4  UNL     1     -10.061 -11.224   6.125  1.00  0.00     0.205 C
ENDROOT
BRANCH   1   2
HETATM    2  C3  UNL     1     -11.268 -10.614   5.566  1.00  0.00     0.058 A
HETATM    3  C2  UNL     1     -11.382  -9.289   5.231  1.00  0.00     0.108 A
HETATM    4  N1  UNL     1     -12.551  -8.801   4.713  1.00  0.00    -0.318 N
HETATM    5  C1  UNL     1     -13.610  -9.575   4.515  1.00  0.00     0.326 A
ATOM      6  H1  UNL     1     -12.610  -7.811   4.471  1.00  0.00     0.170 HD
HETATM    7  O1  UNL     1     -14.677  -9.081   4.031  1.00  0.00    -0.247 OA
HETATM    8  N3  UNL     1     -13.532 -10.863   4.829  1.00  0.00    -0.275 N
HETATM    9  C14 UNL     1     -12.410 -11.396   5.341  1.00  0.00     0.259 A
ATOM     10  H3  UNL     1     -14.344 -11.463   4.679  1.00  0.00     0.173 HD
HETATM   11  O5  UNL     1     -12.396 -12.607   5.615  1.00  0.00    -0.267 OA
ENDBRANCH   1   2
BRANCH   1  12
HETATM   12  O2  UNL     1      -9.415 -10.401   7.049  1.00  0.00    -0.387 OA
ATOM     13  H2  UNL     1      -9.767 -10.486   7.928  1.00  0.00     0.210 HD
ENDBRANCH   1  12
BRANCH   1  14
HETATM   14  C5  UNL     1      -9.041 -11.687   5.139  1.00  0.00     0.271 C
BRANCH  14  15
HETATM   15  O3  UNL     1      -9.573 -12.303   4.025  1.00  0.00    -0.374 OA
ATOM     16  H3  UNL     1      -9.169 -13.136   3.812  1.00  0.00     0.212 HD
ENDBRANCH  14  15
BRANCH  14  17
HETATM   17  N2  UNL     1      -8.051 -10.677   4.803  1.00  0.00    -0.066 NA
BRANCH  17  18
HETATM   18  O4  UNL     1      -6.904 -10.854   5.457  1.00  0.00    -0.284 OA
BRANCH  18  19
HETATM   19  C6  UNL     1      -6.130  -9.720   5.349  1.00  0.00     0.200 C
BRANCH  19  20
HETATM   20  C7  UNL     1      -6.893  -8.459   5.674  1.00  0.00     0.066 C
BRANCH  20  21
HETATM   21  C8  UNL     1      -6.582  -8.093   7.092  1.00  0.00    -0.056 A
HETATM   22  C9  UNL     1      -5.528  -8.657   7.786  1.00  0.00     0.007 A
HETATM   23  C10 UNL     1      -5.247  -8.316   9.093  1.00  0.00     0.001 A
HETATM   24  C11 UNL     1      -6.042  -7.383   9.726  1.00  0.00     0.000 A
HETATM   25  C12 UNL     1      -7.101  -6.794   9.076  1.00  0.00     0.001 A
HETATM   26  C13 UNL     1      -7.355  -7.156   7.774  1.00  0.00     0.007 A
ENDBRANCH  20  21
ENDBRANCH  19  20
ENDBRANCH  18  19
ENDBRANCH  17  18
ENDBRANCH  14  17
ENDBRANCH   1  14
TORSDOF 9
ENDMDL