MODEL 2
REMARK VINA RESULT: -6.902560467      1.648      2.527
REMARK  10 active torsions:
REMARK  status: ('A' for Active; 'I' for Inactive)
REMARK    1  A    between atoms: N1_2  and  C3_4
REMARK    2  A    between atoms: C3_4  and  C4_5
REMARK    3  A    between atoms: C4_5  and  O1_6
REMARK    4  A    between atoms: O1_6  and  C5_7
REMARK    5  A    between atoms: C5_7  and  C6_8
REMARK    6  A    between atoms: C6_8  and  N2_9
REMARK    7  A    between atoms: N2_9  and  C7_11
REMARK    8  A    between atoms: C9_15  and  N4_16
REMARK    9  A    between atoms: N4_16  and  C10_18
REMARK   10  A    between atoms: C13_25  and  N7_26
ROOT
HETATM    1  C7  UNL     1      -8.610  -9.568   4.040  1.00  0.00     0.679 A
HETATM    2  N3  UNL     1      -7.321  -9.260   4.232  1.00  0.00    -0.200 N
ATOM      3  H3  UNL     1      -6.795  -8.835   3.467  1.00  0.00     0.183 HD
HETATM    4  C8  UNL     1      -6.693  -9.495   5.407  1.00  0.00     0.139 A
HETATM    5  C9  UNL     1      -7.420 -10.067   6.419  1.00  0.00     0.094 A
HETATM    6  C13 UNL     1      -8.768 -10.400   6.252  1.00  0.00     0.143 A
HETATM    7  N8  UNL     1      -9.315 -10.135   5.057  1.00  0.00    -0.175 N
ATOM      8  H8  UNL     1     -10.296 -10.367   4.904  1.00  0.00     0.186 HD
ENDROOT
BRANCH   1   9
HETATM    9  N2  UNL     1      -9.215  -9.344   2.936  1.00  0.00    -0.224 N
ATOM     10  H2  UNL     1      -8.804  -8.661   2.299  1.00  0.00     0.177 HD
BRANCH   9  11
HETATM   11  C6  UNL     1     -10.425  -9.985   2.535  1.00  0.00     0.164 C
BRANCH  11  12
HETATM   12  C5  UNL     1     -11.545  -8.972   2.633  1.00  0.00     0.187 C
BRANCH  12  13
HETATM   13  O1  UNL     1     -11.994  -8.674   3.810  1.00  0.00    -0.388 OA
BRANCH  13  14
HETATM   14  C4  UNL     1     -12.711  -9.241   4.730  1.00  0.00     0.187 C
BRANCH  14  15
HETATM   15  C3  UNL     1     -13.926  -9.990   4.295  1.00  0.00     0.142 C
BRANCH  15  16
HETATM   16  N1  UNL     1     -13.672 -11.431   4.236  1.00  0.00    -0.419 N
HETATM   17  C1  UNL     1     -13.751 -11.990   2.933  1.00  0.00     0.142 C
HETATM   18  C2  UNL     1     -12.592 -11.855   5.060  1.00  0.00     0.142 C
ENDBRANCH  15  16
ENDBRANCH  14  15
ENDBRANCH  13  14
ENDBRANCH  12  13
ENDBRANCH  11  12
ENDBRANCH   9  11
ENDBRANCH   1   9
BRANCH   6  19
HETATM   19  N7  UNL     1      -9.405 -10.933   7.229  1.00  0.00    -0.383 N
ATOM     20  H72 UNL     1     -10.351 -10.670   7.504  1.00  0.00     0.157 HD
ATOM     21  H71 UNL     1      -8.952 -11.666   7.775  1.00  0.00     0.157 HD
ENDBRANCH   6  19
BRANCH   5  22
HETATM   22  N4  UNL     1      -6.785 -10.320   7.665  1.00  0.00    -0.337 N
ATOM     23  H4  UNL     1      -6.570 -11.282   7.931  1.00  0.00     0.167 HD
BRANCH  22  24
HETATM   24  C10 UNL     1      -6.476  -9.360   8.466  1.00  0.00     0.121 A
HETATM   25  C11 UNL     1      -5.323  -8.610   8.498  1.00  0.00     0.068 A
HETATM   26  C12 UNL     1      -5.436  -7.705   9.515  1.00  0.00     0.111 A
HETATM   27  N5  UNL     1      -6.638  -7.918  10.076  1.00  0.00    -0.310 N
HETATM   28  N6  UNL     1      -7.275  -8.914   9.451  1.00  0.00    -0.286 N
ATOM     29  H5  UNL     1      -7.013  -7.394  10.867  1.00  0.00     0.186 HD
ATOM     30  H6  UNL     1      -8.202  -9.271   9.681  1.00  0.00     0.188 HD
ENDBRANCH  22  24
ENDBRANCH   5  22
TORSDOF 10
ENDMDL