MODEL 3
REMARK VINA RESULT: -6.864166487      2.761      7.012
REMARK  8 active torsions:
REMARK  status: ('A' for Active; 'I' for Inactive)
REMARK    1  A    between atoms: O1_2  and  C2_3
REMARK    2  A    between atoms: C5_6  and  S1_7
REMARK    3  A    between atoms: S1_7  and  N1_10
REMARK    4  A    between atoms: N1_10  and  C6_12
REMARK    5  A    between atoms: C6_12  and  C8_14
REMARK    6  A    between atoms: C8_14  and  C9_15
REMARK    7  A    between atoms: C9_15  and  O4_16
REMARK    8  A    between atoms: C9_15  and  N2_18
REMARK       I    between atoms: N2_18  and  C10_21
REMARK       I    between atoms: C10_21  and  N3_22
REMARK       I    between atoms: C10_21  and  N4_26
ROOT
HETATM    1  C8  UNL     1     -10.752 -12.254   2.838  1.00  0.00     0.086 C
ENDROOT
BRANCH   1   2
HETATM    2  C6  UNL     1      -9.552 -11.530   3.323  1.00  0.00     0.093 C
HETATM    3  C7  UNL     1      -8.455 -11.837   2.272  1.00  0.00     0.033 C
BRANCH   2   4
HETATM    4  N1  UNL     1      -9.110 -11.687   4.621  1.00  0.00    -0.311 N
ATOM      5  H1  UNL     1      -8.590 -12.530   4.864  1.00  0.00     0.172 HD
BRANCH   4   6
HETATM    6  S1  UNL     1      -9.393 -10.552   5.809  1.00  0.00     0.259 S
HETATM    7  O2  UNL     1     -10.471 -10.994   6.775  1.00  0.00    -0.201 OA
HETATM    8  O3  UNL     1     -10.013  -9.326   5.128  1.00  0.00    -0.201 OA
BRANCH   6   9
HETATM    9  C5  UNL     1      -8.003  -9.949   6.660  1.00  0.00     0.079 A
HETATM   10  C4  UNL     1      -6.801  -9.682   6.045  1.00  0.00     0.028 A
HETATM   11  C3  UNL     1      -5.718  -9.193   6.763  1.00  0.00     0.038 A
HETATM   12  C2  UNL     1      -5.809  -8.959   8.117  1.00  0.00     0.068 A
HETATM   13  C12 UNL     1      -7.024  -9.228   8.743  1.00  0.00     0.038 A
HETATM   14  C11 UNL     1      -8.071  -9.708   8.010  1.00  0.00     0.028 A
BRANCH  12  15
HETATM   15  O1  UNL     1      -4.741  -8.465   8.883  1.00  0.00    -0.356 OA
HETATM   16  C1  UNL     1      -4.747  -8.645  10.283  1.00  0.00     0.210 C
ENDBRANCH  12  15
ENDBRANCH   6   9
ENDBRANCH   4   6
ENDBRANCH   2   4
ENDBRANCH   1   2
BRANCH   1  17
HETATM   17  C9  UNL     1     -12.082 -11.773   3.297  1.00  0.00     0.325 C
BRANCH  17  18
HETATM   18  O4  UNL     1     -12.192 -12.209   4.650  1.00  0.00    -0.369 OA
ATOM     19  H4  UNL     1     -12.970 -12.755   4.675  1.00  0.00     0.212 HD
ENDBRANCH  17  18
BRANCH  17  20
HETATM   20  N2  UNL     1     -12.228 -10.340   3.371  1.00  0.00     0.005 N
HETATM   21  C10 UNL     1     -12.985  -9.885   4.512  1.00  0.00     0.578 C
HETATM   22  N3  UNL     1     -12.957  -8.421   4.508  1.00  0.00    -0.026 N
HETATM   23  N4  UNL     1     -14.386 -10.228   4.264  1.00  0.00    -0.026 N
ATOM     24  H33 UNL     1     -12.010  -8.042   4.483  1.00  0.00     0.278 HD
ATOM     25  H32 UNL     1     -13.285  -8.021   3.629  1.00  0.00     0.278 HD
ATOM     26  H31 UNL     1     -13.492  -8.099   5.315  1.00  0.00     0.278 HD
ATOM     27  H43 UNL     1     -14.737  -9.861   3.379  1.00  0.00     0.278 HD
ATOM     28  H42 UNL     1     -14.526 -11.217   4.060  1.00  0.00     0.278 HD
ATOM     29  H41 UNL     1     -14.921  -9.906   5.071  1.00  0.00     0.278 HD
ATOM     30  H22 UNL     1     -11.315  -9.885   3.342  1.00  0.00     0.284 HD
ATOM     31  H21 UNL     1     -12.629  -9.976   2.506  1.00  0.00     0.284 HD
ENDBRANCH  17  20
ENDBRANCH   1  17
TORSDOF 8
ENDMDL