MODEL 5
REMARK VINA RESULT: -8.070719047      1.247      2.609
REMARK  9 active torsions:
REMARK  status: ('A' for Active; 'I' for Inactive)
REMARK    1  A    between atoms: C1_4  and  C2_5
REMARK    2  A    between atoms: C1_4  and  C3_8
REMARK    3  A    between atoms: C3_8  and  C4_10
REMARK    4  A    between atoms: C4_10  and  N3_11
REMARK    5  A    between atoms: C4_10  and  C5_15
REMARK    6  A    between atoms: C5_15  and  C6_16
REMARK    7  A    between atoms: C6_16  and  O3_17
REMARK    8  A    between atoms: C6_16  and  C7_19
REMARK    9  A    between atoms: C7_19  and  N4_20
ROOT
HETATM    1  C6  UNL     1      -7.400  -9.723   6.560  1.00  0.00     0.148 C
ENDROOT
BRANCH   1   2
HETATM    2  C5  UNL     1      -6.473 -10.205   7.593  1.00  0.00     0.074 C
BRANCH   2   3
HETATM    3  C4  UNL     1      -6.621  -9.818   9.016  1.00  0.00     0.261 C
BRANCH   3   4
HETATM    4  C3  UNL     1      -5.383  -8.990   9.330  1.00  0.00     0.210 C
HETATM    5  O2  UNL     1      -4.317  -9.609   9.547  1.00  0.00    -0.288 OA
BRANCH   4   6
HETATM    6  C1  UNL     1      -5.405  -7.552   9.384  1.00  0.00     0.140 C
HETATM    7  N1  UNL     1      -4.352  -6.887   9.660  1.00  0.00    -0.392 N
ATOM      8  H12 UNL     1      -4.368  -5.869   9.699  1.00  0.00     0.156 HD
ATOM      9  H11 UNL     1      -3.474  -7.375   9.841  1.00  0.00     0.156 HD
BRANCH   6  10
HETATM   10  C2  UNL     1      -6.655  -6.857   9.127  1.00  0.00     0.284 C
HETATM   11  N2  UNL     1      -7.039  -6.429   7.827  1.00  0.00    -0.056 NA
HETATM   12  O1  UNL     1      -7.425  -6.624  10.083  1.00  0.00    -0.269 OA
ENDBRANCH   6  10
ENDBRANCH   4   6
ENDBRANCH   3   4
BRANCH   3  13
HETATM   13  N3  UNL     1      -6.432 -10.986   9.910  1.00  0.00    -0.068 N
ATOM     14  H33 UNL     1      -6.188 -10.760  10.874  1.00  0.00     0.275 HD
ATOM     15  H32 UNL     1      -7.284 -11.494  10.146  1.00  0.00     0.275 HD
ATOM     16  H31 UNL     1      -5.733 -11.524   9.398  1.00  0.00     0.275 HD
ENDBRANCH   3  13
ENDBRANCH   2   3
ENDBRANCH   1   2
BRANCH   1  17
HETATM   17  O3  UNL     1      -6.665  -8.618   5.952  1.00  0.00    -0.394 OA
ATOM     18  H3  UNL     1      -7.343  -7.968   5.805  1.00  0.00     0.210 HD
ENDBRANCH   1  17
BRANCH   1  19
HETATM   19  C7  UNL     1      -7.889 -10.600   5.484  1.00  0.00     0.303 C
BRANCH  19  20
HETATM   20  N4  UNL     1      -9.046 -11.401   5.749  1.00  0.00     0.090 N
HETATM   21  C8  UNL     1     -10.004 -10.703   6.595  1.00  0.00     0.273 C
HETATM   22  C9  UNL     1     -11.396 -11.152   6.236  1.00  0.00     0.041 C
HETATM   23  C10 UNL     1     -11.778 -10.648   4.872  1.00  0.00    -0.012 C
HETATM   24  C11 UNL     1     -12.871 -11.497   4.320  1.00  0.00     0.039 C
HETATM   25  C13 UNL     1     -12.277  -9.220   4.908  1.00  0.00     0.241 C
HETATM   26  C14 UNL     1     -10.538 -10.643   3.987  1.00  0.00     0.041 C
HETATM   27  C12 UNL     1     -13.996 -10.518   4.120  1.00  0.00     0.233 C
HETATM   28  N5  UNL     1     -13.709  -9.390   4.981  1.00  0.00    -0.074 N
ATOM     29  H52 UNL     1     -14.238  -8.549   4.751  1.00  0.00     0.277 HD
ATOM     30  H51 UNL     1     -14.065  -9.495   5.932  1.00  0.00     0.277 HD
HETATM   31  C15 UNL     1      -9.641 -11.744   4.451  1.00  0.00     0.273 C
ENDBRANCH  19  20
ENDBRANCH   1  19
TORSDOF 9
ENDMDL