MODEL 1
REMARK VINA RESULT: -8.073021332      0.000      0.000
REMARK  8 active torsions:
REMARK  status: ('A' for Active; 'I' for Inactive)
REMARK    1  A    between atoms: C2_2  and  C3_4
REMARK    2  A    between atoms: C3_4  and  N1_5
REMARK    3  A    between atoms: C3_4  and  C8_18
REMARK       I    between atoms: N1_5  and  C4_7
REMARK    4  A    between atoms: C4_7  and  C5_9
REMARK    5  A    between atoms: C5_9  and  N2_10
REMARK    6  A    between atoms: C5_9  and  C6_14
REMARK    7  A    between atoms: C6_14  and  C7_15
REMARK       I    between atoms: C8_18  and  N3_20
REMARK    8  A    between atoms: N3_20  and  C9_22
ROOT
HETATM    1  C3  UNL     1      -7.682  -9.769   5.192  1.00  0.00     0.246 C
ENDROOT
BRANCH   1   2
HETATM    2  C2  UNL     1      -6.639  -9.831   4.171  1.00  0.00     0.154 C
HETATM    3  C1  UNL     1      -6.485 -10.825   3.095  1.00  0.00     0.093 C
HETATM    4  O1  UNL     1      -5.772  -8.946   4.200  1.00  0.00    -0.296 OA
ENDBRANCH   1   2
BRANCH   1   5
HETATM    5  N1  UNL     1      -7.166 -10.050   6.532  1.00  0.00    -0.340 N
HETATM    6  C4  UNL     1      -7.374  -9.163   7.616  1.00  0.00     0.249 C
HETATM    7  O2  UNL     1      -8.019  -8.068   7.450  1.00  0.00    -0.271 OA
ATOM      8  H1  UNL     1      -6.642 -10.911   6.689  1.00  0.00     0.163 HD
BRANCH   6   9
HETATM    9  C5  UNL     1      -6.869  -9.469   8.955  1.00  0.00     0.284 C
BRANCH   9  10
HETATM   10  N2  UNL     1      -7.200  -8.309   9.799  1.00  0.00    -0.066 N
ATOM     11  H23 UNL     1      -7.142  -7.419   9.305  1.00  0.00     0.275 HD
ATOM     12  H22 UNL     1      -8.190  -8.253  10.040  1.00  0.00     0.275 HD
ATOM     13  H21 UNL     1      -6.587  -8.360  10.613  1.00  0.00     0.275 HD
ENDBRANCH   9  10
BRANCH   9  14
HETATM   14  C6  UNL     1      -5.427  -9.802   9.082  1.00  0.00     0.155 C
BRANCH  14  15
HETATM   15  C7  UNL     1      -4.749  -8.921  10.036  1.00  0.00     0.175 C
HETATM   16  O3  UNL     1      -4.661  -9.307  11.226  1.00  0.00    -0.648 OA
HETATM   17  O4  UNL     1      -4.218  -7.703   9.661  1.00  0.00    -0.648 OA
ENDBRANCH  14  15
ENDBRANCH   9  14
ENDBRANCH   6   9
ENDBRANCH   1   5
BRANCH   1  18
HETATM   18  C8  UNL     1      -8.822 -10.711   4.955  1.00  0.00     0.252 C
HETATM   19  O5  UNL     1      -8.854 -11.750   5.641  1.00  0.00    -0.270 OA
HETATM   20  N3  UNL     1      -9.816 -10.447   4.004  1.00  0.00    -0.325 N
ATOM     21  H3  UNL     1      -9.732  -9.583   3.469  1.00  0.00     0.169 HD
BRANCH  20  22
HETATM   22  C9  UNL     1     -10.933 -11.282   3.720  1.00  0.00     0.034 A
HETATM   23  C10 UNL     1     -10.921 -12.015   2.521  1.00  0.00     0.031 A
HETATM   24  C11 UNL     1     -11.992 -12.798   2.223  1.00  0.00     0.029 A
HETATM   25  C12 UNL     1     -13.064 -12.872   3.075  1.00  0.00     0.046 A
HETATM   26  N4  UNL     1     -14.185 -13.700   2.756  1.00  0.00    -0.102 NA
HETATM   27  C13 UNL     1     -13.092 -12.164   4.250  1.00  0.00     0.029 A
HETATM   28  C14 UNL     1     -11.996 -11.357   4.562  1.00  0.00     0.031 A
ENDBRANCH  20  22
ENDBRANCH   1  18
TORSDOF 8
ENDMDL