MODEL 1
REMARK VINA RESULT: -7.690457874      0.000      0.000
REMARK  4 active torsions:
REMARK  status: ('A' for Active; 'I' for Inactive)
REMARK    1  A    between atoms: C2_2  and  C3_3
REMARK    2  A    between atoms: C3_3  and  C4_4
REMARK    3  A    between atoms: N1_5  and  C6_7
REMARK    4  A    between atoms: C6_7  and  C7_8
ROOT
HETATM    1  C7  UNL     1      40.145  35.597  37.774  1.00  0.00     0.103 A
HETATM    2  N2  UNL     1      40.317  35.289  39.094  1.00  0.00    -0.311 N
ATOM      3  H2  UNL     1      40.636  34.356  39.355  1.00  0.00     0.170 HD
HETATM    4  C8  UNL     1      40.071  36.201  40.056  1.00  0.00     0.256 A
HETATM    5  O1  UNL     1      40.221  35.946  41.284  1.00  0.00    -0.267 OA
HETATM    6  C9  UNL     1      39.639  37.474  39.746  1.00  0.00     0.054 A
HETATM    7  C10 UNL     1      39.462  37.796  38.408  1.00  0.00     0.118 A
HETATM    8  N3  UNL     1      39.724  36.841  37.508  1.00  0.00    -0.330 N
ATOM      9  H3  UNL     1      39.592  37.084  36.526  1.00  0.00     0.168 HD
HETATM   10  N4  UNL     1      39.027  39.018  37.827  1.00  0.00    -0.341 N
ATOM     11  H4  UNL     1      39.001  39.058  36.808  1.00  0.00     0.167 HD
HETATM   12  C11 UNL     1      38.626  40.186  38.523  1.00  0.00     0.040 A
HETATM   13  C12 UNL     1      37.797  41.005  37.747  1.00  0.00     0.040 A
HETATM   14  C13 UNL     1      37.327  42.178  38.294  1.00  0.00    -0.021 A
HETATM   15  C14 UNL     1      37.674  42.534  39.590  1.00  0.00     0.075 A
HETATM   16  C15 UNL     1      38.495  41.699  40.322  1.00  0.00     0.046 A
HETATM   17  C16 UNL     1      38.990  40.513  39.819  1.00  0.00    -0.028 A
HETATM   18  C17 UNL     1      39.855  39.754  40.767  1.00  0.00     0.046 C
HETATM   19  C18 UNL     1      39.422  38.327  40.913  1.00  0.00     0.053 C
HETATM   20  O2  UNL     1      37.064  43.736  39.850  1.00  0.00    -0.350 OA
HETATM   21  C19 UNL     1      35.991  43.986  38.957  1.00  0.00     0.180 C
HETATM   22  C20 UNL     1      36.442  43.235  37.726  1.00  0.00     0.068 C
ENDROOT
BRANCH   1  23
HETATM   23  C6  UNL     1      40.407  34.604  36.704  1.00  0.00     0.198 C
BRANCH  23  24
HETATM   24  N1  UNL     1      41.276  35.063  35.652  1.00  0.00    -0.388 N
HETATM   25  C4  UNL     1      42.593  35.228  35.925  1.00  0.00     0.081 C
HETATM   26  C5  UNL     1      40.628  35.398  34.459  1.00  0.00     0.149 C
BRANCH  25  27
HETATM   27  C3  UNL     1      43.633  34.355  35.372  1.00  0.00    -0.010 C
BRANCH  27  28
HETATM   28  C2  UNL     1      44.811  33.885  36.092  1.00  0.00     0.024 C
HETATM   29  C1  UNL     1      46.060  34.674  36.102  1.00  0.00     0.009 C
ENDBRANCH  27  28
ENDBRANCH  25  27
ENDBRANCH  23  24
ENDBRANCH   1  23
TORSDOF 4
ENDMDL