MODEL 4
REMARK VINA RESULT: -6.139065153      2.162      5.548
REMARK  7 active torsions:
REMARK  status: ('A' for Active; 'I' for Inactive)
REMARK    1  A    between atoms: C2_2  and  C3_3
REMARK    2  A    between atoms: C3_3  and  N1_6
REMARK    3  A    between atoms: N1_6  and  C6_7
REMARK    4  A    between atoms: C7_8  and  C8_9
REMARK    5  A    between atoms: C11_16  and  O3_17
REMARK    6  A    between atoms: C13_19  and  O4_20
REMARK    7  A    between atoms: C15_22  and  O5_23
ROOT
HETATM    1  C6  UNL     1      35.338  43.362  42.094  1.00  0.00     0.132 A
HETATM    2  C7  UNL     1      35.566  42.273  42.912  1.00  0.00     0.097 A
HETATM    3  C9  UNL     1      35.163  42.414  44.257  1.00  0.00     0.110 A
HETATM    4  N2  UNL     1      34.595  43.499  44.751  1.00  0.00    -0.362 N
ATOM      5  H2  UNL     1      34.335  43.519  45.738  1.00  0.00     0.165 HD
HETATM    6  C10 UNL     1      34.351  44.575  43.991  1.00  0.00     0.082 A
HETATM    7  C11 UNL     1      33.740  45.680  44.570  1.00  0.00     0.132 A
HETATM    8  C13 UNL     1      33.481  46.776  43.779  1.00  0.00     0.137 A
HETATM    9  C15 UNL     1      33.829  46.764  42.447  1.00  0.00     0.105 A
HETATM   10  C17 UNL     1      34.438  45.632  41.925  1.00  0.00     0.057 A
HETATM   11  C18 UNL     1      34.725  44.497  42.670  1.00  0.00     0.038 A
ENDROOT
BRANCH   1  12
HETATM   12  N1  UNL     1      35.702  43.418  40.946  1.00  0.00    -0.435 NA
BRANCH  12  13
HETATM   13  C3  UNL     1      36.193  43.313  39.705  1.00  0.00     0.086 C
HETATM   14  C4  UNL     1      37.754  43.374  39.541  1.00  0.00     0.054 C
HETATM   15  C5  UNL     1      35.786  44.538  38.855  1.00  0.00     0.054 C
BRANCH  13  16
HETATM   16  C2  UNL     1      35.912  42.033  38.920  1.00  0.00     0.040 C
HETATM   17  C1  UNL     1      37.131  41.146  38.896  1.00  0.00     0.009 C
ENDBRANCH  13  16
ENDBRANCH  12  13
ENDBRANCH   1  12
BRANCH   2  18
HETATM   18  C8  UNL     1      36.081  40.972  42.528  1.00  0.00     0.214 C
HETATM   19  O1  UNL     1      35.483  39.944  42.273  1.00  0.00    -0.644 OA
HETATM   20  O2  UNL     1      37.496  40.875  42.432  1.00  0.00    -0.644 OA
ENDBRANCH   2  18
BRANCH   7  21
HETATM   21  O3  UNL     1      33.389  45.695  45.912  1.00  0.00    -0.351 OA
HETATM   22  C12 UNL     1      34.261  46.023  46.951  1.00  0.00     0.210 C
ENDBRANCH   7  21
BRANCH   9  23
HETATM   23  O5  UNL     1      33.566  47.865  41.666  1.00  0.00    -0.353 OA
HETATM   24  C16 UNL     1      34.503  48.809  41.249  1.00  0.00     0.210 C
ENDBRANCH   9  23
BRANCH   8  25
HETATM   25  O4  UNL     1      32.875  47.890  44.322  1.00  0.00    -0.351 OA
HETATM   26  C14 UNL     1      33.670  48.937  44.842  1.00  0.00     0.210 C
ENDBRANCH   8  25
TORSDOF 7
ENDMDL