MODEL 5
REMARK VINA RESULT: -6.280230217      1.498      2.366
REMARK  7 active torsions:
REMARK  status: ('A' for Active; 'I' for Inactive)
REMARK    1  A    between atoms: C2_2  and  C14_17
REMARK    2  A    between atoms: C3_3  and  C4_4
REMARK    3  A    between atoms: C4_4  and  N1_5
REMARK    4  A    between atoms: C14_17  and  C15_18
REMARK    5  A    between atoms: C15_18  and  C16_19
REMARK    6  A    between atoms: C16_19  and  C17_20
REMARK    7  A    between atoms: C19_23  and  N3_24
ROOT
HETATM    1  C1  UNL     1      39.823  39.769  38.596  1.00  0.00     0.043 C
HETATM    2  C2  UNL     1      39.542  40.137  40.039  1.00  0.00    -0.086 C
HETATM    3  C3  UNL     1      40.053  39.408  41.004  1.00  0.00     0.005 C
ENDROOT
BRANCH   3   4
HETATM    4  C4  UNL     1      39.906  39.588  42.452  1.00  0.00     0.300 C
BRANCH   4   5
HETATM    5  N1  UNL     1      38.748  38.861  42.991  1.00  0.00     0.094 N
HETATM    6  C5  UNL     1      37.836  39.694  43.693  1.00  0.00     0.296 C
HETATM    7  C6  UNL     1      36.392  39.333  43.592  1.00  0.00     0.101 C
HETATM    8  C7  UNL     1      35.815  39.955  42.308  1.00  0.00     0.033 C
HETATM    9  N2  UNL     1      36.038  38.009  43.808  1.00  0.00    -0.407 N
HETATM   10  C8  UNL     1      36.911  36.932  43.700  1.00  0.00     0.023 C
ATOM     11  H2  UNL     1      35.070  37.812  44.064  1.00  0.00     0.154 HD
HETATM   12  C9  UNL     1      37.259  36.500  42.297  1.00  0.00     0.038 C
HETATM   13  C10 UNL     1      36.171  35.722  44.318  1.00  0.00     0.038 C
HETATM   14  C11 UNL     1      38.173  37.033  44.518  1.00  0.00     0.037 C
HETATM   15  C12 UNL     1      37.845  37.402  45.934  1.00  0.00     0.014 C
HETATM   16  C13 UNL     1      39.253  37.861  43.911  1.00  0.00     0.279 C
ENDBRANCH   4   5
ENDBRANCH   3   4
BRANCH   2  17
HETATM   17  C14 UNL     1      38.692  41.319  40.276  1.00  0.00     0.034 C
BRANCH  17  18
HETATM   18  C15 UNL     1      38.161  41.764  38.931  1.00  0.00     0.009 C
BRANCH  18  19
HETATM   19  C16 UNL     1      36.637  41.688  38.874  1.00  0.00     0.048 C
BRANCH  19  20
HETATM   20  C17 UNL     1      36.191  43.125  38.995  1.00  0.00     0.009 A
HETATM   21  C18 UNL     1      36.099  44.071  38.008  1.00  0.00     0.159 A
HETATM   22  O1  UNL     1      35.698  45.222  38.326  1.00  0.00    -0.299 OA
HETATM   23  C19 UNL     1      35.381  45.512  39.537  1.00  0.00     0.184 A
HETATM   24  S1  UNL     1      35.665  44.027  40.351  1.00  0.00    -0.050 SA
BRANCH  23  25
HETATM   25  N3  UNL     1      34.949  46.649  40.035  1.00  0.00    -0.374 N
ATOM     26  H32 UNL     1      34.037  47.090  39.916  1.00  0.00     0.158 HD
ATOM     27  H31 UNL     1      35.434  47.317  40.635  1.00  0.00     0.158 HD
ENDBRANCH  23  25
ENDBRANCH  19  20
ENDBRANCH  18  19
ENDBRANCH  17  18
ENDBRANCH   2  17
TORSDOF 7
ENDMDL