MODEL 2
REMARK VINA RESULT: -6.663505860      1.848      3.187
REMARK  6 active torsions:
REMARK  status: ('A' for Active; 'I' for Inactive)
REMARK    1  A    between atoms: C5_7  and  C6_8
REMARK    2  A    between atoms: C6_8  and  C7_9
REMARK    3  A    between atoms: C7_9  and  C8_10
REMARK    4  A    between atoms: C8_10  and  C9_11
REMARK    5  A    between atoms: C9_11  and  S1_12
REMARK    6  A    between atoms: S1_12  and  C10_13
ROOT
HETATM    1  C1  UNL     1      35.288  43.185  42.698  1.00  0.00     0.025 A
HETATM    2  C2  UNL     1      35.990  42.779  41.585  1.00  0.00     0.013 A
HETATM    3  C3  UNL     1      35.967  43.620  40.480  1.00  0.00    -0.004 A
HETATM    4  C4  UNL     1      35.276  44.789  40.521  1.00  0.00     0.108 A
HETATM    5  N1  UNL     1      34.607  45.136  41.640  1.00  0.00    -0.346 N
ATOM      6  H1  UNL     1      34.097  46.020  41.642  1.00  0.00     0.167 HD
HETATM    7  C5  UNL     1      34.576  44.385  42.749  1.00  0.00     0.011 A
HETATM    8  N3  UNL     1      35.408  45.459  39.287  1.00  0.00    -0.375 N
ATOM      9  H3  UNL     1      34.948  46.335  39.036  1.00  0.00     0.161 HD
HETATM   10  C14 UNL     1      36.289  44.713  38.446  1.00  0.00     0.136 A
HETATM   11  C15 UNL     1      36.630  43.422  39.157  1.00  0.00     0.010 A
HETATM   12  C16 UNL     1      38.092  43.289  39.289  1.00  0.00     0.042 C
HETATM   13  C17 UNL     1      38.761  42.177  38.598  1.00  0.00     0.168 C
HETATM   14  O1  UNL     1      37.959  41.343  37.850  1.00  0.00    -0.391 OA
HETATM   15  C18 UNL     1      36.781  41.017  38.497  1.00  0.00     0.168 C
HETATM   16  C19 UNL     1      35.932  42.270  38.493  1.00  0.00     0.042 C
ENDROOT
BRANCH   7  17
HETATM   17  C6  UNL     1      33.835  44.762  43.989  1.00  0.00     0.057 C
BRANCH  17  18
HETATM   18  C7  UNL     1      33.509  46.241  43.926  1.00  0.00     0.007 C
BRANCH  18  19
HETATM   19  C8  UNL     1      34.294  47.067  44.900  1.00  0.00     0.010 C
BRANCH  19  20
HETATM   20  C9  UNL     1      33.753  48.451  45.031  1.00  0.00     0.074 C
BRANCH  20  21
HETATM   21  S1  UNL     1      35.129  49.608  44.658  1.00  0.00    -0.163 SA
BRANCH  21  22
HETATM   22  C10 UNL     1      34.890  50.096  42.906  1.00  0.00     0.074 C
HETATM   23  C11 UNL     1      35.710  49.267  41.975  1.00  0.00     0.044 C
HETATM   24  C12 UNL     1      34.651  48.542  41.166  1.00  0.00     0.233 C
HETATM   25  N2  UNL     1      33.467  49.369  41.221  1.00  0.00    -0.074 N
HETATM   26  C13 UNL     1      33.424  49.783  42.590  1.00  0.00     0.247 C
ATOM     27  H22 UNL     1      33.451  50.134  40.545  1.00  0.00     0.277 HD
ATOM     28  H21 UNL     1      32.616  48.916  40.886  1.00  0.00     0.277 HD
ENDBRANCH  21  22
ENDBRANCH  20  21
ENDBRANCH  19  20
ENDBRANCH  18  19
ENDBRANCH  17  18
ENDBRANCH   7  17
TORSDOF 6
ENDMDL