MODEL 2
REMARK VINA RESULT: -5.965588739      5.795      8.211
REMARK  8 active torsions:
REMARK  status: ('A' for Active; 'I' for Inactive)
REMARK    1  A    between atoms: C2_2  and  C3_3
REMARK    2  A    between atoms: C3_3  and  N1_4
REMARK    3  A    between atoms: N1_4  and  C4_5
REMARK    4  A    between atoms: N1_4  and  C7_9
REMARK    5  A    between atoms: C4_5  and  C5_6
REMARK    6  A    between atoms: C8_12  and  N4_13
REMARK    7  A    between atoms: C11_20  and  C12_21
REMARK    8  A    between atoms: C12_21  and  C13_23
ROOT
HETATM    1  C5  UNL     1      45.255  34.428  43.722  1.00  0.00     0.143 C
HETATM    2  C6  UNL     1      46.432  35.296  44.064  1.00  0.00     0.060 C
HETATM    3  N2  UNL     1      47.329  35.977  44.333  1.00  0.00    -0.197 NA
ENDROOT
BRANCH   1   4
HETATM    4  C4  UNL     1      44.600  35.093  42.569  1.00  0.00     0.138 C
BRANCH   4   5
HETATM    5  N1  UNL     1      44.076  34.299  41.517  1.00  0.00    -0.365 N
BRANCH   5   6
HETATM    6  C3  UNL     1      44.696  34.108  40.254  1.00  0.00     0.124 C
BRANCH   6   7
HETATM    7  C2  UNL     1      45.948  34.871  39.964  1.00  0.00     0.015 C
HETATM    8  C1  UNL     1      46.091  34.801  38.420  1.00  0.00     0.006 C
ENDBRANCH   6   7
ENDBRANCH   5   6
BRANCH   5   9
HETATM    9  C7  UNL     1      42.825  33.658  41.756  1.00  0.00     0.135 A
HETATM   10  N3  UNL     1      42.892  32.324  42.050  1.00  0.00    -0.176 N
HETATM   11  C8  UNL     1      41.748  31.644  42.269  1.00  0.00     0.677 A
ATOM     12  H3  UNL     1      43.794  31.850  42.102  1.00  0.00     0.186 HD
HETATM   13  N5  UNL     1      40.584  32.290  42.196  1.00  0.00    -0.195 N
HETATM   14  C9  UNL     1      40.509  33.602  41.907  1.00  0.00     0.040 A
ATOM     15  H5  UNL     1      39.721  31.773  42.364  1.00  0.00     0.184 HD
HETATM   16  C10 UNL     1      39.171  34.223  41.848  1.00  0.00     0.070 C
HETATM   17  C11 UNL     1      41.662  34.335  41.676  1.00  0.00     0.077 A
BRANCH  11  18
HETATM   18  N4  UNL     1      41.832  30.366  42.550  1.00  0.00    -0.234 N
ATOM     19  H42 UNL     1      41.354  29.649  42.004  1.00  0.00     0.174 HD
ATOM     20  H41 UNL     1      42.400  30.086  43.349  1.00  0.00     0.174 HD
ENDBRANCH  11  18
BRANCH  17  21
HETATM   21  C12 UNL     1      41.565  35.737  41.390  1.00  0.00     0.170 C
HETATM   22  O1  UNL     1      41.289  36.015  40.169  1.00  0.00    -0.292 OA
BRANCH  21  23
HETATM   23  C13 UNL     1      41.740  36.866  42.298  1.00  0.00     0.078 A
HETATM   24  C14 UNL     1      40.607  37.590  42.883  1.00  0.00    -0.029 A
HETATM   25  C15 UNL     1      39.189  37.365  42.439  1.00  0.00     0.016 C
HETATM   26  C16 UNL     1      40.695  38.084  44.321  1.00  0.00     0.016 C
HETATM   27  C17 UNL     1      41.580  38.282  41.965  1.00  0.00    -0.029 A
HETATM   28  C18 UNL     1      40.975  38.842  40.732  1.00  0.00     0.016 C
HETATM   29  C19 UNL     1      42.600  39.256  42.584  1.00  0.00     0.016 C
ENDBRANCH  21  23
ENDBRANCH  17  21
ENDBRANCH   5   9
ENDBRANCH   4   5
ENDBRANCH   1   4
TORSDOF 8
ENDMDL