MODEL 4
REMARK VINA RESULT: -5.997534565      1.023      1.480
REMARK  8 active torsions:
REMARK  status: ('A' for Active; 'I' for Inactive)
REMARK    1  A    between atoms: C2_4  and  C3_5
REMARK    2  A    between atoms: C4_6  and  O1_7
REMARK    3  A    between atoms: C5_9  and  C6_10
REMARK    4  A    between atoms: N2_17  and  C13_18
REMARK    5  A    between atoms: C13_18  and  C14_19
REMARK    6  A    between atoms: C13_18  and  C15_22
REMARK    7  A    between atoms: C14_19  and  O2_20
REMARK    8  A    between atoms: C15_22  and  N3_23
ROOT
HETATM    1  C3  UNL     1      37.734  38.825  42.800  1.00  0.00     0.084 A
HETATM    2  C4  UNL     1      36.774  39.541  42.132  1.00  0.00     0.102 A
HETATM    3  C5  UNL     1      37.454  40.552  41.436  1.00  0.00    -0.003 A
HETATM    4  C12 UNL     1      38.800  40.428  41.694  1.00  0.00     0.102 A
HETATM    5  N2  UNL     1      38.928  39.396  42.504  1.00  0.00    -0.344 N
ENDROOT
BRANCH   5   6
HETATM    6  C13 UNL     1      40.206  38.887  43.044  1.00  0.00     0.141 C
BRANCH   6   7
HETATM    7  C14 UNL     1      40.682  39.723  44.160  1.00  0.00     0.191 C
BRANCH   7   8
HETATM    8  O2  UNL     1      41.713  40.581  43.931  1.00  0.00    -0.399 OA
ATOM      9  H2  UNL     1      41.579  41.296  43.319  1.00  0.00     0.209 HD
ENDBRANCH   7   8
ENDBRANCH   6   7
BRANCH   6  10
HETATM   10  C15 UNL     1      41.148  38.742  41.914  1.00  0.00     0.300 C
BRANCH  10  11
HETATM   11  N3  UNL     1      41.684  37.465  41.547  1.00  0.00     0.090 N
HETATM   12  C16 UNL     1      43.070  37.456  42.148  1.00  0.00     0.272 C
HETATM   13  C17 UNL     1      43.733  36.190  41.757  1.00  0.00     0.030 C
HETATM   14  C18 UNL     1      43.163  35.102  42.678  1.00  0.00     0.003 C
HETATM   15  C19 UNL     1      41.885  35.666  43.265  1.00  0.00     0.030 C
HETATM   16  C20 UNL     1      41.019  36.360  42.255  1.00  0.00     0.272 C
ENDBRANCH  10  11
ENDBRANCH   6  10
ENDBRANCH   5   6
BRANCH   1  17
HETATM   17  C2  UNL     1      37.559  37.660  43.672  1.00  0.00     0.115 C
HETATM   18  N1  UNL     1      36.474  36.989  43.640  1.00  0.00    -0.401 N
HETATM   19  C1  UNL     1      36.277  35.839  44.488  1.00  0.00     0.145 C
ATOM     20  H1  UNL     1      35.731  37.272  43.001  1.00  0.00     0.158 HD
ENDBRANCH   1  17
BRANCH   2  21
HETATM   21  O1  UNL     1      35.407  39.363  42.103  1.00  0.00    -0.358 OA
ATOM     22  H1  UNL     1      34.720  39.985  41.895  1.00  0.00     0.217 HD
ENDBRANCH   2  21
BRANCH   3  23
HETATM   23  C6  UNL     1      36.819  41.557  40.580  1.00  0.00     0.023 C
HETATM   24  C7  UNL     1      36.953  41.139  39.115  1.00  0.00     0.009 C
HETATM   25  C8  UNL     1      35.977  42.044  38.362  1.00  0.00     0.001 C
HETATM   26  C9  UNL     1      36.413  43.481  38.454  1.00  0.00     0.000 C
HETATM   27  C10 UNL     1      36.627  43.883  39.883  1.00  0.00     0.001 C
HETATM   28  C11 UNL     1      37.505  42.928  40.662  1.00  0.00     0.009 C
ENDBRANCH   3  23
TORSDOF 8
ENDMDL