MODEL 2
REMARK VINA RESULT: -5.871917804      0.845      1.326
REMARK  10 active torsions:
REMARK  status: ('A' for Active; 'I' for Inactive)
REMARK    1  A    between atoms: C2_2  and  S1_3
REMARK    2  A    between atoms: S1_3  and  C3_4
REMARK    3  A    between atoms: C5_9  and  C6_10
REMARK    4  A    between atoms: C7_11  and  C8_12
REMARK    5  A    between atoms: C8_12  and  O2_13
REMARK    6  A    between atoms: C8_12  and  C9_15
REMARK    7  A    between atoms: C9_15  and  C11_17
REMARK    8  A    between atoms: C13_19  and  S2_20
REMARK    9  A    between atoms: S2_20  and  C14_21
REMARK   10  A    between atoms: C14_21  and  C15_22
ROOT
HETATM    1  C3  UNL     1      33.527  45.795  44.064  1.00  0.00     0.147 A
HETATM    2  N1  UNL     1      33.851  46.735  43.155  1.00  0.00    -0.302 N
ATOM      3  H1  UNL     1      33.628  47.714  43.338  1.00  0.00     0.171 HD
HETATM    4  C4  UNL     1      34.463  46.395  42.010  1.00  0.00     0.269 A
HETATM    5  O1  UNL     1      34.762  47.277  41.168  1.00  0.00    -0.266 OA
HETATM    6  C5  UNL     1      34.771  45.051  41.756  1.00  0.00     0.119 A
HETATM    7  C13 UNL     1      34.434  44.108  42.694  1.00  0.00     0.096 A
HETATM    8  N2  UNL     1      33.809  44.504  43.848  1.00  0.00    -0.330 N
ATOM      9  H2  UNL     1      33.555  43.807  44.548  1.00  0.00     0.168 HD
ENDROOT
BRANCH   6  10
HETATM   10  C6  UNL     1      35.419  44.687  40.521  1.00  0.00    -0.056 C
HETATM   11  C7  UNL     1      35.961  44.412  39.454  1.00  0.00    -0.069 C
BRANCH  11  12
HETATM   12  C8  UNL     1      36.595  44.125  38.171  1.00  0.00     0.200 C
BRANCH  12  13
HETATM   13  O2  UNL     1      35.693  44.338  37.104  1.00  0.00    -0.383 OA
ATOM     14  H2  UNL     1      35.187  43.553  36.925  1.00  0.00     0.211 HD
ENDBRANCH  12  13
BRANCH  12  15
HETATM   15  C9  UNL     1      36.974  42.685  38.139  1.00  0.00     0.022 C
HETATM   16  C10 UNL     1      38.413  42.620  38.690  1.00  0.00     0.013 C
BRANCH  15  17
HETATM   17  C11 UNL     1      36.095  41.893  39.086  1.00  0.00     0.003 C
HETATM   18  C12 UNL     1      36.845  40.749  39.726  1.00  0.00     0.005 C
ENDBRANCH  15  17
ENDBRANCH  12  15
ENDBRANCH  11  12
ENDBRANCH   6  10
BRANCH   7  19
HETATM   19  S2  UNL     1      34.816  42.416  42.379  1.00  0.00    -0.110 SA
BRANCH  19  20
HETATM   20  C14 UNL     1      36.340  41.831  43.087  1.00  0.00     0.084 C
BRANCH  20  21
HETATM   21  C15 UNL     1      37.362  42.864  43.414  1.00  0.00    -0.013 C
HETATM   22  C16 UNL     1      38.521  42.875  42.438  1.00  0.00     0.010 C
HETATM   23  C17 UNL     1      37.889  42.862  44.800  1.00  0.00     0.010 C
ENDBRANCH  20  21
ENDBRANCH  19  20
ENDBRANCH   7  19
BRANCH   1  24
HETATM   24  S1  UNL     1      32.707  46.261  45.594  1.00  0.00    -0.094 SA
BRANCH  24  25
HETATM   25  C2  UNL     1      32.763  48.056  45.805  1.00  0.00     0.078 C
HETATM   26  C1  UNL     1      31.531  48.699  45.227  1.00  0.00     0.016 C
ENDBRANCH  24  25
ENDBRANCH   1  24
TORSDOF 10
ENDMDL