MODEL 3
REMARK VINA RESULT: -6.386118875      2.701      5.920
REMARK  9 active torsions:
REMARK  status: ('A' for Active; 'I' for Inactive)
REMARK    1  A    between atoms: C2_2  and  C3_3
REMARK    2  A    between atoms: C3_3  and  C4_4
REMARK    3  A    between atoms: C3_3  and  C5_7
REMARK    4  A    between atoms: C3_3  and  C16_20
REMARK    5  A    between atoms: C4_4  and  O1_5
REMARK    6  A    between atoms: C5_7  and  C6_8
REMARK    7  A    between atoms: C6_8  and  O3_10
REMARK    8  A    between atoms: O3_10  and  C7_11
REMARK    9  A    between atoms: C18_22  and  O4_23
ROOT
HETATM    1  C3  UNL     1      36.773  40.205  43.607  1.00  0.00     0.019 C
ENDROOT
BRANCH   1   2
HETATM    2  C2  UNL     1      36.615  39.151  42.590  1.00  0.00     0.013 C
HETATM    3  C1  UNL     1      36.884  37.753  42.778  1.00  0.00     0.006 C
ENDBRANCH   1   2
BRANCH   1   4
HETATM    4  C4  UNL     1      36.050  39.610  44.840  1.00  0.00     0.179 C
BRANCH   4   5
HETATM    5  O1  UNL     1      34.701  39.700  44.799  1.00  0.00    -0.400 OA
ATOM      6  H1  UNL     1      34.249  39.197  45.467  1.00  0.00     0.209 HD
ENDBRANCH   4   5
ENDBRANCH   1   4
BRANCH   1   7
HETATM    7  C5  UNL     1      36.274  41.551  43.334  1.00  0.00     0.127 C
BRANCH   7   8
HETATM    8  C6  UNL     1      35.294  41.800  42.275  1.00  0.00     0.260 C
HETATM    9  O2  UNL     1      34.097  41.483  42.209  1.00  0.00    -0.265 OA
BRANCH   8  10
HETATM   10  O3  UNL     1      35.704  42.508  41.113  1.00  0.00    -0.316 OA
BRANCH  10  11
HETATM   11  C7  UNL     1      36.982  42.351  40.546  1.00  0.00     0.137 C
HETATM   12  C8  UNL     1      37.488  43.628  39.916  1.00  0.00     0.037 C
HETATM   13  C9  UNL     1      37.926  43.343  38.495  1.00  0.00    -0.011 C
HETATM   14  C10 UNL     1      36.643  42.949  37.756  1.00  0.00     0.010 C
HETATM   15  C14 UNL     1      38.905  42.174  38.503  1.00  0.00     0.010 C
HETATM   16  C11 UNL     1      36.256  41.591  38.259  1.00  0.00    -0.007 C
HETATM   17  C12 UNL     1      37.252  40.611  37.620  1.00  0.00     0.010 C
HETATM   18  C15 UNL     1      36.900  41.223  39.580  1.00  0.00     0.023 C
HETATM   19  C13 UNL     1      38.149  40.910  38.827  1.00  0.00    -0.007 C
ENDBRANCH  10  11
ENDBRANCH   8  10
ENDBRANCH   7   8
ENDBRANCH   1   7
BRANCH   1  20
HETATM   20  C16 UNL     1      38.206  40.351  44.120  1.00  0.00    -0.013 A
HETATM   21  C17 UNL     1      38.542  40.468  45.481  1.00  0.00     0.074 A
HETATM   22  C18 UNL     1      39.917  40.545  45.616  1.00  0.00     0.183 A
HETATM   23  O5  UNL     1      40.389  40.479  44.425  1.00  0.00    -0.292 OA
HETATM   24  C19 UNL     1      39.407  40.364  43.498  1.00  0.00     0.059 A
HETATM   25  C20 UNL     1      39.695  40.277  42.068  1.00  0.00     0.077 C
BRANCH  22  26
HETATM   26  O4  UNL     1      40.640  40.669  46.817  1.00  0.00    -0.341 OA
ATOM     27  H4  UNL     1      41.209  40.016  47.206  1.00  0.00     0.220 HD
ENDBRANCH  22  26
ENDBRANCH   1  20
TORSDOF 9
ENDMDL