MODEL 2
REMARK VINA RESULT: -6.497403440      3.774      7.571
REMARK  8 active torsions:
REMARK  status: ('A' for Active; 'I' for Inactive)
REMARK    1  A    between atoms: C2_2  and  C3_3
REMARK    2  A    between atoms: C3_3  and  C13_18
REMARK    3  A    between atoms: N1_4  and  C4_6
REMARK    4  A    between atoms: C6_8  and  O1_9
REMARK    5  A    between atoms: C8_11  and  O2_12
REMARK    6  A    between atoms: C10_14  and  O3_15
REMARK    7  A    between atoms: C18_25  and  C19_26
REMARK    8  A    between atoms: C20_27  and  N3_28
ROOT
HETATM    1  C3  UNL     1      36.673  41.472  42.620  1.00  0.00     0.023 C
HETATM    2  N1  UNL     1      35.553  41.816  42.022  1.00  0.00    -0.359 N
ATOM      3  H1  UNL     1      34.978  41.071  41.630  1.00  0.00     0.166 HD
ENDROOT
BRANCH   1   4
HETATM    4  C2  UNL     1      37.454  42.587  43.160  1.00  0.00     0.053 C
HETATM    5  C1  UNL     1      38.733  42.884  42.439  1.00  0.00     0.011 C
ENDBRANCH   1   4
BRANCH   1   6
HETATM    6  C13 UNL     1      36.970  40.073  42.710  1.00  0.00     0.029 A
HETATM    7  C14 UNL     1      37.736  39.230  41.918  1.00  0.00     0.019 A
HETATM    8  C15 UNL     1      38.456  39.559  40.681  1.00  0.00     0.069 C
HETATM    9  N2  UNL     1      37.731  37.962  42.449  1.00  0.00    -0.361 N
HETATM   10  C16 UNL     1      36.997  37.956  43.537  1.00  0.00     0.025 A
ATOM     11  H2  UNL     1      38.218  37.155  42.060  1.00  0.00     0.165 HD
HETATM   12  C17 UNL     1      36.681  36.818  44.475  1.00  0.00     0.070 C
HETATM   13  C18 UNL     1      36.512  39.231  43.733  1.00  0.00     0.055 A
BRANCH  13  14
HETATM   14  C19 UNL     1      35.665  39.655  44.815  1.00  0.00    -0.041 C
HETATM   15  C20 UNL     1      34.968  40.030  45.755  1.00  0.00     0.009 C
BRANCH  15  16
HETATM   16  N3  UNL     1      34.194  40.447  46.838  1.00  0.00    -0.359 N
ATOM     17  H32 UNL     1      34.597  39.569  46.511  1.00  0.00     0.166 HD
ATOM     18  H31 UNL     1      33.628  40.770  47.624  1.00  0.00     0.166 HD
ENDBRANCH  15  16
ENDBRANCH  13  14
ENDBRANCH   1   6
BRANCH   2  19
HETATM   19  C4  UNL     1      35.095  43.127  41.885  1.00  0.00     0.037 A
HETATM   20  C5  UNL     1      35.387  43.876  40.755  1.00  0.00     0.069 A
HETATM   21  C6  UNL     1      34.928  45.171  40.634  1.00  0.00     0.106 A
HETATM   22  C8  UNL     1      34.172  45.738  41.640  1.00  0.00     0.135 A
HETATM   23  C10 UNL     1      33.890  44.974  42.763  1.00  0.00     0.106 A
HETATM   24  C12 UNL     1      34.332  43.677  42.916  1.00  0.00     0.069 A
BRANCH  21  25
HETATM   25  O1  UNL     1      35.221  45.917  39.500  1.00  0.00    -0.353 OA
HETATM   26  C7  UNL     1      36.144  45.406  38.548  1.00  0.00     0.210 C
ENDBRANCH  21  25
BRANCH  22  27
HETATM   27  O2  UNL     1      33.739  47.028  41.473  1.00  0.00    -0.351 OA
HETATM   28  C9  UNL     1      34.377  48.183  41.907  1.00  0.00     0.210 C
ENDBRANCH  22  27
BRANCH  23  29
HETATM   29  O3  UNL     1      33.132  45.568  43.752  1.00  0.00    -0.353 OA
HETATM   30  C11 UNL     1      33.694  45.961  44.992  1.00  0.00     0.210 C
ENDBRANCH  23  29
ENDBRANCH   2  19
TORSDOF 8
ENDMDL