MODEL 2
REMARK VINA RESULT: -6.145762156      2.301      3.448
REMARK  9 active torsions:
REMARK  status: ('A' for Active; 'I' for Inactive)
REMARK    1  A    between atoms: C2_2  and  N1_3
REMARK    2  A    between atoms: N1_3  and  C3_4
REMARK    3  A    between atoms: N1_3  and  C5_6
REMARK    4  A    between atoms: C8_9  and  C9_10
REMARK    5  A    between atoms: C10_11  and  C11_12
REMARK    6  A    between atoms: C11_12  and  O1_13
REMARK    7  A    between atoms: N2_15  and  O2_17
REMARK    8  A    between atoms: O2_17  and  C12_18
REMARK    9  A    between atoms: C16_25  and  N5_26
ROOT
HETATM    1  C5  UNL     1      37.239  39.395  41.819  1.00  0.00     0.064 A
HETATM    2  C6  UNL     1      36.047  40.042  42.227  1.00  0.00     0.033 A
HETATM    3  C7  UNL     1      35.548  41.156  41.599  1.00  0.00     0.014 A
HETATM    4  C8  UNL     1      36.232  41.659  40.534  1.00  0.00    -0.028 A
HETATM    5  C14 UNL     1      37.410  41.040  40.109  1.00  0.00    -0.016 A
HETATM    6  C15 UNL     1      38.137  41.581  38.954  1.00  0.00     0.052 C
HETATM    7  C16 UNL     1      37.925  39.901  40.748  1.00  0.00     0.136 A
ENDROOT
BRANCH   4   8
HETATM    8  C9  UNL     1      35.759  42.860  39.816  1.00  0.00     0.016 C
HETATM    9  C10 UNL     1      35.646  44.007  40.401  1.00  0.00     0.058 C
BRANCH   9  10
HETATM   10  C11 UNL     1      35.189  45.207  39.739  1.00  0.00     0.160 C
HETATM   11  N2  UNL     1      34.294  45.994  40.069  1.00  0.00    -0.236 N
ATOM     12  H2  UNL     1      34.167  46.774  39.424  1.00  0.00     0.197 HD
BRANCH  10  13
HETATM   13  O1  UNL     1      35.863  45.552  38.514  1.00  0.00    -0.345 OA
ATOM     14  H1  UNL     1      36.266  44.834  38.041  1.00  0.00     0.219 HD
ENDBRANCH  10  13
BRANCH  11  15
HETATM   15  O2  UNL     1      33.469  46.011  41.107  1.00  0.00    -0.202 OA
BRANCH  15  16
HETATM   16  C12 UNL     1      33.544  47.104  41.995  1.00  0.00     0.251 C
HETATM   17  N3  UNL     1      33.662  46.897  43.376  1.00  0.00    -0.055 NA
HETATM   18  N4  UNL     1      33.501  48.273  41.501  1.00  0.00    -0.361 N
HETATM   19  C13 UNL     1      33.559  49.521  42.200  1.00  0.00     0.149 C
ATOM     20  H4  UNL     1      33.416  48.330  40.486  1.00  0.00     0.162 HD
ENDBRANCH  15  16
ENDBRANCH  11  15
ENDBRANCH   9  10
ENDBRANCH   4   8
BRANCH   7  21
HETATM   21  N5  UNL     1      39.112  39.365  40.207  1.00  0.00    -0.113 N
HETATM   22  O3  UNL     1      40.227  39.686  40.725  1.00  0.00    -0.532 OA
HETATM   23  O4  UNL     1      39.206  38.468  39.179  1.00  0.00    -0.532 OA
ENDBRANCH   7  21
BRANCH   1  24
HETATM   24  N1  UNL     1      37.691  38.301  42.560  1.00  0.00    -0.380 N
BRANCH  24  25
HETATM   25  C2  UNL     1      37.039  36.999  42.275  1.00  0.00     0.118 C
HETATM   26  C1  UNL     1      37.972  36.111  41.509  1.00  0.00     0.026 C
ENDBRANCH  24  25
BRANCH  24  27
HETATM   27  C3  UNL     1      38.645  38.239  43.628  1.00  0.00     0.118 C
HETATM   28  C4  UNL     1      37.935  37.977  44.918  1.00  0.00     0.026 C
ENDBRANCH  24  27
ENDBRANCH   1  24
TORSDOF 9
ENDMDL