MODEL 1
REMARK VINA RESULT: -5.752852320      0.000      0.000
REMARK  11 active torsions:
REMARK  status: ('A' for Active; 'I' for Inactive)
REMARK    1  A    between atoms: C2_2  and  C3_3
REMARK    2  A    between atoms: C3_3  and  O1_4
REMARK    3  A    between atoms: C5_6  and  O2_7
REMARK    4  A    between atoms: C6_9  and  O3_10
REMARK    5  A    between atoms: O3_10  and  C7_11
REMARK    6  A    between atoms: C13_19  and  C14_20
REMARK    7  A    between atoms: C13_19  and  C20_28
REMARK    8  A    between atoms: C14_20  and  C15_21
REMARK    9  A    between atoms: C15_21  and  C16_22
REMARK   10  A    between atoms: C16_22  and  C18_24
REMARK   11  A    between atoms: C18_24  and  C19_25
ROOT
HETATM    1  C3  UNL     1       4.925  -1.425  28.926  1.00  0.00     0.099 C
HETATM    2  C5  UNL     1       3.971  -0.817  29.942  1.00  0.00     0.184 C
HETATM    3  C6  UNL     1       2.639  -0.390  29.361  1.00  0.00     0.178 C
HETATM    4  C9  UNL     1       2.959   0.670  28.406  1.00  0.00     0.095 C
HETATM    5 BR1  UNL     1       3.690   2.150  29.447  1.00  0.00    -0.088 Br
HETATM    6  C10 UNL     1       3.919   0.263  27.313  1.00  0.00     0.022 C
HETATM    7  C11 UNL     1       4.177   1.494  26.528  1.00  0.00     0.046 C
HETATM    8  C12 UNL     1       5.577   1.814  26.196  1.00  0.00    -0.044 C
HETATM    9  C13 UNL     1       5.904   2.701  25.247  1.00  0.00    -0.008 C
HETATM   10  C23 UNL     1       6.584   1.223  27.051  1.00  0.00     0.005 C
HETATM   11  C24 UNL     1       6.300   0.131  27.692  1.00  0.00    -0.013 C
HETATM   12  C25 UNL     1       5.025  -0.634  27.675  1.00  0.00     0.013 C
HETATM   13  C26 UNL     1       5.295  -1.539  26.435  1.00  0.00     0.023 C
ENDROOT
BRANCH   9  14
HETATM   14  C14 UNL     1       4.916   3.400  24.514  1.00  0.00    -0.147 C
BRANCH  14  15
HETATM   15  C15 UNL     1       4.066   4.001  23.885  1.00  0.00     0.090 C
BRANCH  15  16
HETATM   16  C16 UNL     1       4.066   4.395  22.421  1.00  0.00     0.002 C
HETATM   17  C17 UNL     1       2.791   5.231  22.242  1.00  0.00     0.011 C
BRANCH  16  18
HETATM   18  C18 UNL     1       5.275   5.159  22.022  1.00  0.00     0.118 C
BRANCH  18  19
HETATM   19  C19 UNL     1       5.849   4.888  20.715  1.00  0.00     0.172 C
HETATM   20  O5  UNL     1       6.990   4.459  20.518  1.00  0.00    -0.648 OA
HETATM   21  O6  UNL     1       5.056   5.126  19.556  1.00  0.00    -0.648 OA
ENDBRANCH  18  19
ENDBRANCH  16  18
ENDBRANCH  15  16
ENDBRANCH  14  15
ENDBRANCH   9  14
BRANCH   9  22
HETATM   22  C20 UNL     1       7.373   2.875  24.934  1.00  0.00     0.019 C
HETATM   23  C21 UNL     1       7.798   4.316  25.071  1.00  0.00     0.015 C
HETATM   24  C22 UNL     1       7.587   2.511  23.443  1.00  0.00     0.015 C
ENDBRANCH   9  22
BRANCH   3  25
HETATM   25  O3  UNL     1       1.901  -1.486  29.033  1.00  0.00    -0.312 OA
BRANCH  25  26
HETATM   26  C7  UNL     1       0.569  -1.633  29.261  1.00  0.00     0.255 C
HETATM   27  C8  UNL     1      -0.237  -0.625  29.944  1.00  0.00     0.126 C
HETATM   28  O4  UNL     1       0.084  -2.688  28.844  1.00  0.00    -0.266 OA
ENDBRANCH  25  26
ENDBRANCH   3  25
BRANCH   1  29
HETATM   29  C2  UNL     1       4.616  -2.878  28.834  1.00  0.00     0.037 C
HETATM   30  C1  UNL     1       5.676  -3.840  29.236  1.00  0.00     0.008 C
ENDBRANCH   1  29
BRANCH   1  31
HETATM   31  O1  UNL     1       6.160  -1.370  29.588  1.00  0.00    -0.381 OA
HETATM   32  C4  UNL     1       6.322  -0.564  30.641  1.00  0.00     0.202 C
ENDBRANCH   1  31
BRANCH   2  33
HETATM   33  O2  UNL     1       3.615  -1.737  30.926  1.00  0.00    -0.390 OA
ATOM     34  H2  UNL     1       2.769  -1.533  31.306  1.00  0.00     0.210 HD
ENDBRANCH   2  33
TORSDOF 11
ENDMDL