MODEL 1
REMARK VINA RESULT: -6.717350352      0.000      0.000
REMARK  9 active torsions:
REMARK  status: ('A' for Active; 'I' for Inactive)
REMARK    1  A    between atoms: C2_2  and  C3_3
REMARK    2  A    between atoms: C13_14  and  N1_15
REMARK    3  A    between atoms: N1_15  and  C15_17
REMARK    4  A    between atoms: C15_17  and  C16_18
REMARK    5  A    between atoms: C16_18  and  O2_19
REMARK    6  A    between atoms: C16_18  and  C17_21
REMARK    7  A    between atoms: C17_21  and  N2_22
REMARK    8  A    between atoms: N2_22  and  S1_24
REMARK    9  A    between atoms: S1_24  and  C18_27
ROOT
HETATM    1  C3  UNL     1       6.900   5.804  21.120  1.00  0.00    -0.022 C
HETATM    2  C4  UNL     1       8.256   5.583  20.476  1.00  0.00     0.020 C
HETATM    3  C5  UNL     1       5.962   5.733  19.888  1.00  0.00     0.014 C
HETATM    4  C6  UNL     1       4.574   6.058  20.445  1.00  0.00     0.013 C
HETATM    5  C7  UNL     1       4.205   4.783  21.084  1.00  0.00     0.062 C
HETATM    6  C8  UNL     1       3.116   4.651  22.044  1.00  0.00     0.140 C
HETATM    7  O1  UNL     1       1.916   4.450  22.136  1.00  0.00    -0.297 OA
HETATM    8  C9  UNL     1       4.131   4.889  23.145  1.00  0.00     0.022 C
HETATM    9  C10 UNL     1       3.923   6.238  23.633  1.00  0.00     0.024 C
HETATM   10  C11 UNL     1       4.081   3.898  24.295  1.00  0.00     0.019 C
HETATM   11  C12 UNL     1       5.098   4.350  25.291  1.00  0.00     0.026 C
HETATM   12  C13 UNL     1       6.498   3.894  25.043  1.00  0.00     0.083 C
HETATM   13  C22 UNL     1       6.830   3.096  23.884  1.00  0.00     0.034 C
HETATM   14  C23 UNL     1       7.408   3.834  22.668  1.00  0.00    -0.041 C
HETATM   15  C24 UNL     1       7.481   2.727  21.607  1.00  0.00     0.015 C
HETATM   16  C25 UNL     1       8.802   4.214  23.013  1.00  0.00     0.015 C
HETATM   17  C26 UNL     1       6.498   4.977  22.234  1.00  0.00     0.011 C
HETATM   18  C27 UNL     1       5.127   4.403  22.201  1.00  0.00     0.018 C
ENDROOT
BRANCH  12  19
HETATM   19  N1  UNL     1       6.827   3.179  26.276  1.00  0.00    -0.390 N
HETATM   20  C14 UNL     1       6.442   3.800  27.453  1.00  0.00     0.149 C
BRANCH  19  21
HETATM   21  C15 UNL     1       7.876   2.273  26.158  1.00  0.00     0.091 C
BRANCH  21  22
HETATM   22  C16 UNL     1       7.760   0.958  26.872  1.00  0.00     0.174 C
BRANCH  22  23
HETATM   23  O2  UNL     1       8.807   0.102  26.486  1.00  0.00    -0.389 OA
ATOM     24  H2  UNL     1       8.546  -0.416  25.733  1.00  0.00     0.210 HD
ENDBRANCH  22  23
BRANCH  22  25
HETATM   25  C17 UNL     1       6.449   0.263  26.826  1.00  0.00     0.169 C
BRANCH  25  26
HETATM   26  N2  UNL     1       6.340  -0.440  28.122  1.00  0.00    -0.312 N
ATOM     27  H2  UNL     1       6.248   0.020  29.027  1.00  0.00     0.172 HD
BRANCH  26  28
HETATM   28  S1  UNL     1       6.387  -2.144  27.888  1.00  0.00     0.265 S
HETATM   29  O3  UNL     1       6.709  -2.765  29.214  1.00  0.00    -0.200 OA
HETATM   30  O4  UNL     1       7.333  -2.589  26.847  1.00  0.00    -0.200 OA
BRANCH  28  31
HETATM   31  C18 UNL     1       4.727  -2.647  27.491  1.00  0.00     0.119 A
HETATM   32  C19 UNL     1       4.123  -2.727  26.268  1.00  0.00     0.033 A
HETATM   33  C20 UNL     1       2.836  -3.105  26.249  1.00  0.00     0.009 A
HETATM   34  C21 UNL     1       2.237  -3.377  27.445  1.00  0.00     0.051 A
HETATM   35  S2  UNL     1       3.483  -3.098  28.570  1.00  0.00    -0.088 SA
ENDBRANCH  28  31
ENDBRANCH  26  28
ENDBRANCH  25  26
ENDBRANCH  22  25
ENDBRANCH  21  22
ENDBRANCH  19  21
ENDBRANCH  12  19
BRANCH   1  36
HETATM   36  C2  UNL     1       6.964   7.288  21.371  1.00  0.00    -0.027 C
HETATM   37  C1  UNL     1       7.140   7.848  22.551  1.00  0.00     0.007 C
ENDBRANCH   1  36
TORSDOF 9
ENDMDL