MODEL 4
REMARK VINA RESULT: -5.681161303      4.429      7.947
REMARK  10 active torsions:
REMARK  status: ('A' for Active; 'I' for Inactive)
REMARK    1  A    between atoms: C5_5  and  C6_6
REMARK    2  A    between atoms: C6_6  and  C8_8
REMARK    3  A    between atoms: C8_8  and  C9_9
REMARK    4  A    between atoms: C9_9  and  C10_10
REMARK    5  A    between atoms: C11_11  and  C12_12
REMARK    6  A    between atoms: C13_13  and  C14_14
REMARK    7  A    between atoms: C19_20  and  C20_21
REMARK    8  A    between atoms: C20_21  and  O2_22
REMARK    9  A    between atoms: C29_33  and  C30_34
REMARK   10  A    between atoms: C30_34  and  O4_35
ROOT
HETATM    1  C1  UNL     1       4.276   3.761  25.715  1.00  0.00     0.102 C
HETATM    2  C2  UNL     1       3.586   4.724  26.027  1.00  0.00    -0.154 C
HETATM    3  C3  UNL     1       2.761   5.835  26.399  1.00  0.00    -0.025 C
HETATM    4  C4  UNL     1       1.441   5.539  27.027  1.00  0.00     0.057 C
HETATM    5  C5  UNL     1       3.178   7.068  26.184  1.00  0.00    -0.008 C
ENDROOT
BRANCH   5   6
HETATM    6  C6  UNL     1       4.494   7.276  25.560  1.00  0.00     0.005 C
HETATM    7  C7  UNL     1       5.466   7.662  26.657  1.00  0.00     0.014 C
BRANCH   6   8
HETATM    8  C8  UNL     1       4.413   8.405  24.502  1.00  0.00     0.009 C
BRANCH   8   9
HETATM    9  C9  UNL     1       4.554   7.755  23.194  1.00  0.00     0.009 C
BRANCH   9  10
HETATM   10  C10 UNL     1       5.134   6.440  23.029  1.00  0.00     0.031 C
HETATM   11  C11 UNL     1       4.374   5.320  22.407  1.00  0.00     0.015 C
HETATM   12  C22 UNL     1       5.460   4.207  22.370  1.00  0.00     0.017 C
HETATM   13  C23 UNL     1       6.763   4.915  22.200  1.00  0.00     0.031 C
HETATM   14  C24 UNL     1       7.305   4.632  20.820  1.00  0.00     0.037 C
HETATM   15  C31 UNL     1       6.493   6.394  22.364  1.00  0.00     0.101 C
HETATM   16  C25 UNL     1       8.183   3.414  20.797  1.00  0.00     0.013 C
HETATM   17  C29 UNL     1       8.162   5.723  20.278  1.00  0.00     0.144 C
HETATM   18  C26 UNL     1       9.593   3.905  20.918  1.00  0.00     0.037 C
HETATM   19  C27 UNL     1       9.557   5.371  20.666  1.00  0.00    -0.050 C
HETATM   20  C28 UNL     1      10.603   6.167  20.779  1.00  0.00     0.017 C
HETATM   21  O5  UNL     1       7.804   6.987  20.741  1.00  0.00    -0.222 OA
HETATM   22  O6  UNL     1       6.548   6.976  21.129  1.00  0.00    -0.228 OA
HETATM   23  C32 UNL     1       7.544   6.926  23.322  1.00  0.00     0.050 C
BRANCH  11  24
HETATM   24  C12 UNL     1       3.818   5.512  21.085  1.00  0.00    -0.024 C
HETATM   25  C13 UNL     1       2.569   5.666  20.799  1.00  0.00    -0.013 C
BRANCH  25  26
HETATM   26  C14 UNL     1       1.367   5.698  21.646  1.00  0.00     0.035 C
HETATM   27  C15 UNL     1       1.476   6.504  22.902  1.00  0.00     0.028 C
HETATM   28  C16 UNL     1       0.962   4.285  21.994  1.00  0.00     0.028 C
HETATM   29  C17 UNL     1       0.732   3.517  20.701  1.00  0.00     0.080 C
HETATM   30  C18 UNL     1      -0.531   4.048  20.123  1.00  0.00     0.140 C
HETATM   31  O1  UNL     1      -1.371   3.285  19.692  1.00  0.00    -0.297 OA
HETATM   32  C19 UNL     1      -0.740   5.500  20.084  1.00  0.00     0.149 C
HETATM   33  C21 UNL     1       0.201   6.283  20.887  1.00  0.00     0.152 C
HETATM   34  O3  UNL     1       0.044   7.486  20.955  1.00  0.00    -0.296 OA
BRANCH  32  35
HETATM   35  C20 UNL     1      -2.202   5.863  20.371  1.00  0.00     0.184 C
BRANCH  35  36
HETATM   36  O2  UNL     1      -3.040   5.534  19.337  1.00  0.00    -0.400 OA
ATOM     37  H2  UNL     1      -3.918   5.877  19.456  1.00  0.00     0.209 HD
ENDBRANCH  35  36
ENDBRANCH  32  35
ENDBRANCH  25  26
ENDBRANCH  11  24
BRANCH  17  38
HETATM   38  C30 UNL     1       8.095   5.744  18.776  1.00  0.00     0.210 C
BRANCH  38  39
HETATM   39  O4  UNL     1       7.720   7.024  18.364  1.00  0.00    -0.397 OA
ATOM     40  H4  UNL     1       7.536   7.548  19.135  1.00  0.00     0.209 HD
ENDBRANCH  38  39
ENDBRANCH  17  38
ENDBRANCH   9  10
ENDBRANCH   8   9
ENDBRANCH   6   8
ENDBRANCH   5   6
TORSDOF 10
ENDMDL