MODEL 3
REMARK VINA RESULT: -5.898721328      5.452     10.027
REMARK  11 active torsions:
REMARK  status: ('A' for Active; 'I' for Inactive)
REMARK    1  A    between atoms: C3_3  and  O1_4
REMARK    2  A    between atoms: C6_8  and  C7_9
REMARK    3  A    between atoms: C7_9  and  C8_10
REMARK    4  A    between atoms: C8_10  and  C9_11
REMARK    5  A    between atoms: C9_11  and  C10_12
REMARK    6  A    between atoms: C11_14  and  C12_15
REMARK    7  A    between atoms: C17_21  and  C18_22
REMARK    8  A    between atoms: C18_22  and  C19_23
REMARK    9  A    between atoms: C21_26  and  O5_27
REMARK   10  A    between atoms: O5_27  and  C22_28
REMARK   11  A    between atoms: C30_37  and  O7_38
ROOT
HETATM    1  C9  UNL     1       5.787   2.345  27.373  1.00  0.00     0.058 C
HETATM    2  C11 UNL     1       6.860   2.021  26.347  1.00  0.00     0.033 C
HETATM    3  C13 UNL     1       6.290   2.233  24.949  1.00  0.00     0.024 C
HETATM    4  C14 UNL     1       6.158   3.660  24.727  1.00  0.00     0.003 C
HETATM    5  C15 UNL     1       5.481   4.279  25.930  1.00  0.00     0.027 C
HETATM    6  C16 UNL     1       5.721   5.707  25.542  1.00  0.00     0.021 C
HETATM    7  C17 UNL     1       5.330   5.705  24.072  1.00  0.00     0.001 C
HETATM    8  C21 UNL     1       6.444   6.460  23.376  1.00  0.00     0.141 C
HETATM    9  C24 UNL     1       6.293   6.443  21.874  1.00  0.00     0.034 C
HETATM   10  C25 UNL     1       5.800   5.184  21.300  1.00  0.00     0.007 C
HETATM   11  C26 UNL     1       5.972   4.036  22.257  1.00  0.00    -0.009 C
HETATM   12  C27 UNL     1       7.376   3.550  22.189  1.00  0.00     0.011 C
HETATM   13  C28 UNL     1       5.376   4.227  23.620  1.00  0.00    -0.026 C
HETATM   14  C29 UNL     1       3.952   3.669  23.509  1.00  0.00     0.017 C
HETATM   15  C30 UNL     1       6.154   3.788  27.152  1.00  0.00     0.078 C
HETATM   16  C31 UNL     1       7.551   3.239  26.924  1.00  0.00     0.057 C
ENDROOT
BRANCH   1  17
HETATM   17  C8  UNL     1       4.450   1.849  27.150  1.00  0.00     0.022 C
BRANCH  17  18
HETATM   18  C7  UNL     1       4.233   0.544  27.936  1.00  0.00     0.010 C
BRANCH  18  19
HETATM   19  C6  UNL     1       3.742  -0.501  26.954  1.00  0.00     0.016 C
HETATM   20  C2  UNL     1       2.667  -1.360  27.493  1.00  0.00    -0.057 C
HETATM   21  C1  UNL     1       1.878  -1.140  28.523  1.00  0.00     0.017 C
HETATM   22  C3  UNL     1       2.629  -2.568  26.628  1.00  0.00     0.146 C
HETATM   23  C4  UNL     1       4.086  -2.787  26.268  1.00  0.00     0.037 C
HETATM   24  C5  UNL     1       4.823  -1.521  26.644  1.00  0.00     0.012 C
BRANCH  22  25
HETATM   25  O1  UNL     1       2.047  -3.651  27.242  1.00  0.00    -0.391 OA
ATOM     26  H1  UNL     1       1.581  -3.423  28.037  1.00  0.00     0.210 HD
ENDBRANCH  22  25
ENDBRANCH  18  19
ENDBRANCH  17  18
ENDBRANCH   1  17
BRANCH   1  27
HETATM   27  C10 UNL     1       6.300   1.896  28.712  1.00  0.00     0.245 C
HETATM   28  O2  UNL     1       5.858   2.319  29.748  1.00  0.00    -0.306 OA
ENDBRANCH   1  27
BRANCH   2  29
HETATM   29  C12 UNL     1       7.576   0.751  26.529  1.00  0.00     0.242 C
HETATM   30  O3  UNL     1       8.728   0.666  26.147  1.00  0.00    -0.306 OA
ENDBRANCH   2  29
BRANCH  15  31
HETATM   31  O7  UNL     1       6.106   4.571  28.284  1.00  0.00    -0.388 OA
ATOM     32  H7  UNL     1       6.718   5.298  28.288  1.00  0.00     0.210 HD
ENDBRANCH  15  31
BRANCH   7  33
HETATM   33  C18 UNL     1       4.011   6.313  23.803  1.00  0.00     0.090 C
BRANCH  33  34
HETATM   34  C19 UNL     1       3.250   6.913  24.899  1.00  0.00     0.123 C
HETATM   35  C20 UNL     1       2.222   6.192  25.700  1.00  0.00     0.091 C
HETATM   36  O4  UNL     1       3.425   8.078  25.224  1.00  0.00    -0.298 OA
ENDBRANCH  33  34
ENDBRANCH   7  33
BRANCH   8  37
HETATM   37  O5  UNL     1       6.470   7.795  23.786  1.00  0.00    -0.316 OA
BRANCH  37  38
HETATM   38  C22 UNL     1       7.637   8.463  24.086  1.00  0.00     0.255 C
HETATM   39  C23 UNL     1       8.831   7.790  24.710  1.00  0.00     0.126 C
HETATM   40  O6  UNL     1       7.757   9.710  23.844  1.00  0.00    -0.266 OA
ENDBRANCH  37  38
ENDBRANCH   8  37
TORSDOF 11
ENDMDL