MODEL 2
REMARK VINA RESULT: -5.914209813      0.590      1.024
REMARK  10 active torsions:
REMARK  status: ('A' for Active; 'I' for Inactive)
REMARK    1  A    between atoms: C2_2  and  C4_4
REMARK    2  A    between atoms: C10_10  and  O1_11
REMARK    3  A    between atoms: C13_16  and  C14_17
REMARK    4  A    between atoms: C14_17  and  C15_19
REMARK    5  A    between atoms: C18_23  and  C19_24
REMARK    6  A    between atoms: C18_23  and  C21_26
REMARK    7  A    between atoms: C24_30  and  C25_31
REMARK    8  A    between atoms: C25_31  and  C27_33
REMARK    9  A    between atoms: C27_33  and  C28_34
REMARK   10  A    between atoms: C28_34  and  C30_36
ROOT
HETATM    1  C4  UNL     1       4.516   1.730  26.108  1.00  0.00     0.047 C
HETATM    2  C5  UNL     1       4.098   3.103  25.657  1.00  0.00     0.026 C
HETATM    3  C6  UNL     1       5.156   4.069  25.337  1.00  0.00    -0.013 C
HETATM    4  C7  UNL     1       5.884   4.558  26.613  1.00  0.00     0.021 C
HETATM    5  C8  UNL     1       6.180   3.357  24.542  1.00  0.00    -0.059 C
HETATM    6  C9  UNL     1       6.576   2.161  25.037  1.00  0.00     0.009 C
HETATM    7  C10 UNL     1       6.009   1.613  26.301  1.00  0.00     0.149 C
HETATM    8  C11 UNL     1       6.555   4.156  23.368  1.00  0.00     0.115 C
HETATM    9  C12 UNL     1       8.028   4.162  23.132  1.00  0.00     0.156 C
HETATM   10  O2  UNL     1       8.630   3.193  23.469  1.00  0.00    -0.296 OA
HETATM   11  C13 UNL     1       8.806   5.274  22.515  1.00  0.00     0.198 C
HETATM   12  C17 UNL     1       7.902   6.094  21.705  1.00  0.00     0.179 C
HETATM   13  O4  UNL     1       7.978   5.938  20.512  1.00  0.00    -0.293 OA
HETATM   14  C18 UNL     1       6.904   7.089  22.160  1.00  0.00     0.122 C
HETATM   15  O5  UNL     1       5.848   6.385  22.686  1.00  0.00    -0.366 OA
HETATM   16  C23 UNL     1       6.096   5.550  23.720  1.00  0.00     0.144 C
HETATM   17  C24 UNL     1       4.823   5.245  24.527  1.00  0.00     0.032 C
ENDROOT
BRANCH  17  18
HETATM   18  C25 UNL     1       3.596   5.416  23.762  1.00  0.00    -0.010 C
HETATM   19  C26 UNL     1       2.417   5.850  24.603  1.00  0.00     0.010 C
BRANCH  18  20
HETATM   20  C27 UNL     1       3.158   4.458  22.734  1.00  0.00     0.019 C
BRANCH  20  21
HETATM   21  C28 UNL     1       2.404   5.143  21.613  1.00  0.00     0.083 C
HETATM   22  C29 UNL     1       1.491   4.034  21.006  1.00  0.00     0.021 C
BRANCH  21  23
HETATM   23  C30 UNL     1       3.225   5.548  20.460  1.00  0.00     0.176 C
HETATM   24  O6  UNL     1       2.835   6.479  19.726  1.00  0.00    -0.648 OA
HETATM   25  O7  UNL     1       4.445   4.895  20.189  1.00  0.00    -0.648 OA
ENDBRANCH  21  23
ENDBRANCH  20  21
ENDBRANCH  18  20
ENDBRANCH  17  18
BRANCH   1  26
HETATM   26  C2  UNL     1       3.786   1.223  27.297  1.00  0.00    -0.086 C
HETATM   27  C1  UNL     1       3.288  -0.020  27.347  1.00  0.00     0.014 C
HETATM   28  C3  UNL     1       3.565   2.070  28.506  1.00  0.00     0.043 C
ENDBRANCH   1  26
BRANCH  14  29
HETATM   29  C19 UNL     1       7.530   8.066  23.112  1.00  0.00     0.042 C
HETATM   30  C20 UNL     1       8.642   8.861  22.525  1.00  0.00     0.009 C
ENDBRANCH  14  29
BRANCH  14  31
HETATM   31  C21 UNL     1       6.419   7.842  20.945  1.00  0.00     0.042 C
HETATM   32  C22 UNL     1       5.188   8.641  21.194  1.00  0.00     0.009 C
ENDBRANCH  14  31
BRANCH   7  33
HETATM   33  O1  UNL     1       6.309   0.229  26.303  1.00  0.00    -0.391 OA
ATOM     34  H1  UNL     1       7.103   0.125  26.813  1.00  0.00     0.210 HD
ENDBRANCH   7  33
BRANCH  11  35
HETATM   35  C14 UNL     1       9.877   4.714  21.671  1.00  0.00     0.145 C
HETATM   36  O3  UNL     1       9.607   3.837  20.876  1.00  0.00    -0.297 OA
BRANCH  35  37
HETATM   37  C15 UNL     1      11.293   5.178  21.745  1.00  0.00     0.075 C
HETATM   38  C16 UNL     1      11.558   5.739  23.122  1.00  0.00     0.013 C
ENDBRANCH  35  37
ENDBRANCH  11  35
TORSDOF 10
ENDMDL