MODEL 3
REMARK VINA RESULT: -6.574500954      1.359      1.871
REMARK  8 active torsions:
REMARK  status: ('A' for Active; 'I' for Inactive)
REMARK    1  A    between atoms: C2_2  and  C3_3
REMARK    2  A    between atoms: C2_2  and  C24_31
REMARK    3  A    between atoms: C3_3  and  C4_5
REMARK    4  A    between atoms: C13_14  and  O2_15
REMARK    5  A    between atoms: O2_15  and  S1_16
REMARK    6  A    between atoms: C21_27  and  C22_28
REMARK    7  A    between atoms: C24_31  and  C26_33
REMARK    8  A    between atoms: C26_33  and  C27_34
ROOT
HETATM    1  C4  UNL     1       4.947   6.280  21.439  1.00  0.00     0.076 C
HETATM    2  C5  UNL     1       6.377   6.164  20.863  1.00  0.00     0.014 C
HETATM    3  C6  UNL     1       7.238   5.466  21.863  1.00  0.00     0.007 C
HETATM    4  C7  UNL     1       6.208   4.742  22.678  1.00  0.00     0.007 C
HETATM    5  C8  UNL     1       6.710   4.164  23.945  1.00  0.00    -0.001 C
HETATM    6  C9  UNL     1       7.501   2.934  23.552  1.00  0.00     0.033 C
HETATM    7  C10 UNL     1       7.646   2.031  24.691  1.00  0.00    -0.023 C
HETATM    8  C11 UNL     1       6.907   1.989  25.771  1.00  0.00    -0.072 C
HETATM    9  C12 UNL     1       7.215   0.990  26.824  1.00  0.00     0.068 C
HETATM   10  C13 UNL     1       5.927   0.201  27.012  1.00  0.00     0.149 C
HETATM   11  C14 UNL     1       4.837   1.137  27.393  1.00  0.00     0.035 C
HETATM   12  C15 UNL     1       4.515   2.098  26.251  1.00  0.00     0.016 C
HETATM   13  C16 UNL     1       5.780   2.918  25.956  1.00  0.00    -0.017 C
HETATM   14  C17 UNL     1       6.006   3.676  27.289  1.00  0.00     0.020 C
HETATM   15  C18 UNL     1       5.599   3.941  24.897  1.00  0.00     0.003 C
HETATM   16  C19 UNL     1       4.266   3.759  24.189  1.00  0.00     0.007 C
HETATM   17  C20 UNL     1       3.911   4.943  23.297  1.00  0.00     0.019 C
HETATM   18  C21 UNL     1       5.105   5.726  22.869  1.00  0.00     0.035 C
ENDROOT
BRANCH   1  19
HETATM   19  C3  UNL     1       4.005   5.558  20.591  1.00  0.00     0.160 C
HETATM   20  O1  UNL     1       4.523   4.825  19.689  1.00  0.00    -0.292 OA
BRANCH  19  21
HETATM   21  C2  UNL     1       2.564   5.590  20.680  1.00  0.00    -0.017 C
HETATM   22  C1  UNL     1       1.796   4.550  20.906  1.00  0.00     0.023 C
BRANCH  21  23
HETATM   23  C24 UNL     1       1.842   6.904  20.541  1.00  0.00     0.027 C
HETATM   24  C25 UNL     1       2.753   8.080  20.537  1.00  0.00     0.015 C
BRANCH  23  25
HETATM   25  C26 UNL     1       0.758   7.091  21.567  1.00  0.00     0.122 C
BRANCH  25  26
HETATM   26  C27 UNL     1      -0.517   7.338  20.860  1.00  0.00     0.173 C
HETATM   27  O7  UNL     1      -0.872   8.500  20.598  1.00  0.00    -0.648 OA
HETATM   28  O8  UNL     1      -1.299   6.269  20.499  1.00  0.00    -0.648 OA
ENDBRANCH  25  26
ENDBRANCH  23  25
ENDBRANCH  21  23
ENDBRANCH  19  21
ENDBRANCH   1  19
BRANCH  18  29
HETATM   29  C22 UNL     1       5.438   6.894  23.705  1.00  0.00     0.133 C
HETATM   30  C23 UNL     1       4.422   7.908  24.034  1.00  0.00     0.091 C
HETATM   31  O6  UNL     1       6.544   7.069  24.143  1.00  0.00    -0.297 OA
ENDBRANCH  18  29
BRANCH  10  32
HETATM   32  O2  UNL     1       6.088  -0.868  27.860  1.00  0.00    -0.251 OA
BRANCH  32  33
HETATM   33  S1  UNL     1       6.334  -2.331  27.173  1.00  0.00     0.251 S
HETATM   34  O3  UNL     1       7.778  -2.488  26.788  1.00  0.00    -0.572 OA
HETATM   35  O4  UNL     1       5.432  -2.638  26.018  1.00  0.00    -0.572 OA
HETATM   36  O5  UNL     1       6.022  -3.528  28.341  1.00  0.00    -0.572 OA
ENDBRANCH  32  33
ENDBRANCH  10  32
TORSDOF 8
ENDMDL