MODEL 5
REMARK VINA RESULT: -7.244463956      0.898      1.130
REMARK  10 active torsions:
REMARK  status: ('A' for Active; 'I' for Inactive)
REMARK    1  A    between atoms: C2_2  and  C4_4
REMARK    2  A    between atoms: C4_4  and  C5_5
REMARK    3  A    between atoms: C6_6  and  C7_7
REMARK    4  A    between atoms: C7_7  and  C9_9
REMARK    5  A    between atoms: C18_18  and  C19_19
REMARK    6  A    between atoms: C19_19  and  O1_20
REMARK    7  A    between atoms: C25_30  and  O5_31
REMARK    8  A    between atoms: O5_31  and  C26_32
REMARK    9  A    between atoms: C26_32  and  C27_34
REMARK   10  A    between atoms: C27_34  and  O7_36
ROOT
HETATM    1  C9  UNL     1       5.145   4.349  23.948  1.00  0.00     0.004 C
HETATM    2  C10 UNL     1       3.971   4.859  24.754  1.00  0.00     0.006 C
HETATM    3  C11 UNL     1       4.140   4.253  26.176  1.00  0.00     0.007 C
HETATM    4  C12 UNL     1       5.142   3.206  25.848  1.00  0.00     0.005 C
HETATM    5  C13 UNL     1       5.642   2.274  26.812  1.00  0.00    -0.029 C
HETATM    6  C14 UNL     1       6.613   2.716  27.873  1.00  0.00     0.016 C
HETATM    7  C15 UNL     1       4.497   1.648  27.557  1.00  0.00     0.011 C
HETATM    8  C16 UNL     1       3.672   0.641  26.896  1.00  0.00     0.012 C
HETATM    9  C17 UNL     1       3.670  -0.710  27.618  1.00  0.00     0.072 A
HETATM   10  C18 UNL     1       3.747  -1.951  26.837  1.00  0.00     0.130 A
HETATM   11  O2  UNL     1       4.802  -2.329  26.077  1.00  0.00    -0.351 OA
HETATM   12  C20 UNL     1       4.837  -1.558  27.382  1.00  0.00     0.170 A
HETATM   13  C21 UNL     1       6.114  -0.951  27.473  1.00  0.00     0.233 C
HETATM   14  O3  UNL     1       6.867  -1.524  28.297  1.00  0.00    -0.286 OA
HETATM   15  C22 UNL     1       6.848   0.184  26.871  1.00  0.00     0.203 C
HETATM   16  O4  UNL     1       8.049   0.212  27.219  1.00  0.00    -0.289 OA
HETATM   17  C23 UNL     1       6.399   1.254  25.955  1.00  0.00     0.074 C
HETATM   18  C24 UNL     1       7.481   1.872  25.196  1.00  0.00     0.046 C
HETATM   19  C25 UNL     1       7.360   3.300  24.734  1.00  0.00     0.141 C
HETATM   20  C29 UNL     1       6.139   4.044  25.014  1.00  0.00    -0.009 C
HETATM   21  C30 UNL     1       6.415   5.345  25.780  1.00  0.00     0.018 C
ENDROOT
BRANCH   1  22
HETATM   22  C7  UNL     1       5.456   5.163  22.779  1.00  0.00     0.009 C
HETATM   23  C8  UNL     1       5.126   6.621  22.852  1.00  0.00     0.014 C
BRANCH  22  24
HETATM   24  C6  UNL     1       5.019   4.634  21.453  1.00  0.00    -0.026 C
HETATM   25  C5  UNL     1       3.651   4.453  21.033  1.00  0.00    -0.030 C
BRANCH  25  26
HETATM   26  C4  UNL     1       2.679   5.550  20.870  1.00  0.00     0.030 C
BRANCH  26  27
HETATM   27  C2  UNL     1       1.241   5.219  21.187  1.00  0.00    -0.019 C
HETATM   28  C1  UNL     1       0.952   3.757  20.828  1.00  0.00     0.010 C
HETATM   29  C3  UNL     1       1.115   5.301  22.710  1.00  0.00     0.010 C
ENDBRANCH  26  27
ENDBRANCH  25  26
ENDBRANCH  22  24
ENDBRANCH   1  22
BRANCH  19  30
HETATM   30  O5  UNL     1       7.997   3.489  23.485  1.00  0.00    -0.313 OA
BRANCH  30  31
HETATM   31  C26 UNL     1       8.981   4.404  23.196  1.00  0.00     0.287 C
HETATM   32  O6  UNL     1       9.637   4.773  24.198  1.00  0.00    -0.262 OA
BRANCH  31  33
HETATM   33  C27 UNL     1       9.278   4.929  21.850  1.00  0.00     0.213 C
HETATM   34  C28 UNL     1       8.700   4.106  20.753  1.00  0.00     0.050 C
BRANCH  33  35
HETATM   35  O7  UNL     1       8.699   6.215  21.736  1.00  0.00    -0.386 OA
ATOM     36  H7  UNL     1       8.599   6.417  20.813  1.00  0.00     0.210 HD
ENDBRANCH  33  35
ENDBRANCH  31  33
ENDBRANCH  30  31
ENDBRANCH  19  30
BRANCH  10  37
HETATM   37  C19 UNL     1       2.838  -3.079  27.276  1.00  0.00     0.206 C
BRANCH  37  38
HETATM   38  O1  UNL     1       2.157  -3.652  26.215  1.00  0.00    -0.398 OA
ATOM     39  H1  UNL     1       1.768  -4.488  26.442  1.00  0.00     0.209 HD
ENDBRANCH  37  38
ENDBRANCH  10  37
TORSDOF 10
ENDMDL