MODEL 4
REMARK VINA RESULT: -5.848003580      6.638     10.733
REMARK  10 active torsions:
REMARK  status: ('A' for Active; 'I' for Inactive)
REMARK    1  A    between atoms: C2_2  and  C4_4
REMARK    2  A    between atoms: C4_4  and  C5_5
REMARK    3  A    between atoms: C5_5  and  O1_6
REMARK    4  A    between atoms: C5_5  and  C6_8
REMARK    5  A    between atoms: C6_8  and  C8_10
REMARK    6  A    between atoms: C16_18  and  C17_19
REMARK    7  A    between atoms: C19_22  and  O3_23
REMARK    8  A    between atoms: C22_26  and  C23_27
REMARK    9  A    between atoms: C23_27  and  O5_29
REMARK   10  A    between atoms: C28_35  and  O7_36
ROOT
HETATM    1  C8  UNL     1       4.841  -1.184  28.236  1.00  0.00     0.001 C
HETATM    2  C9  UNL     1       4.823  -1.340  29.766  1.00  0.00     0.007 C
HETATM    3  C10 UNL     1       3.639  -0.537  30.243  1.00  0.00     0.011 C
HETATM    4  C11 UNL     1       2.875  -0.142  29.026  1.00  0.00    -0.032 C
HETATM    5  C12 UNL     1       3.244   1.301  28.725  1.00  0.00     0.016 C
HETATM    6  C13 UNL     1       1.377  -0.215  29.156  1.00  0.00     0.002 C
HETATM    7  C14 UNL     1       1.011   0.698  30.304  1.00  0.00     0.007 C
HETATM    8  C15 UNL     1      -0.421   1.058  30.322  1.00  0.00     0.015 C
HETATM    9  C16 UNL     1      -1.368  -0.062  29.875  1.00  0.00     0.090 C
HETATM   10  C19 UNL     1      -1.243  -1.253  30.728  1.00  0.00     0.082 C
HETATM   11  C21 UNL     1      -2.022  -2.418  30.187  1.00  0.00     0.062 C
HETATM   12  C22 UNL     1      -1.458  -3.631  30.925  1.00  0.00     0.158 C
HETATM   13  C25 UNL     1      -0.007  -3.312  30.887  1.00  0.00     0.148 C
HETATM   14  O6  UNL     1       0.823  -4.186  31.080  1.00  0.00    -0.296 OA
HETATM   15  C26 UNL     1       0.187  -1.870  30.599  1.00  0.00     0.098 C
HETATM   16  C27 UNL     1       0.817  -1.608  29.284  1.00  0.00     0.033 C
HETATM   17  C28 UNL     1       1.830  -2.676  28.871  1.00  0.00     0.124 C
HETATM   18  C29 UNL     1       2.561  -2.127  27.651  1.00  0.00     0.042 C
HETATM   19  C30 UNL     1       3.410  -0.958  27.871  1.00  0.00    -0.030 C
HETATM   20  C31 UNL     1       3.346  -0.092  26.603  1.00  0.00     0.016 C
ENDROOT
BRANCH   1  21
HETATM   21  C6  UNL     1       5.496  -2.394  27.700  1.00  0.00     0.015 C
HETATM   22  C7  UNL     1       5.694  -2.441  26.211  1.00  0.00     0.013 C
BRANCH  21  23
HETATM   23  C5  UNL     1       6.883  -2.504  28.321  1.00  0.00     0.126 C
BRANCH  23  24
HETATM   24  C4  UNL     1       7.987  -2.216  27.327  1.00  0.00     0.065 C
BRANCH  24  25
HETATM   25  C2  UNL     1       8.653  -0.923  27.590  1.00  0.00    -0.091 C
HETATM   26  C1  UNL     1       9.623  -0.844  28.468  1.00  0.00     0.014 C
HETATM   27  C3  UNL     1       8.217   0.289  26.854  1.00  0.00     0.042 C
ENDBRANCH  24  25
ENDBRANCH  23  24
BRANCH  23  28
HETATM   28  O1  UNL     1       6.981  -3.843  28.746  1.00  0.00    -0.395 OA
ATOM     29  H1  UNL     1       7.672  -3.915  29.394  1.00  0.00     0.210 HD
ENDBRANCH  23  28
ENDBRANCH  21  23
ENDBRANCH   1  21
BRANCH  17  30
HETATM   30  O7  UNL     1       1.154  -3.797  28.304  1.00  0.00    -0.395 OA
ATOM     31  H7  UNL     1       0.964  -3.635  27.387  1.00  0.00     0.210 HD
ENDBRANCH  17  30
BRANCH   9  32
HETATM   32  C17 UNL     1      -2.699   0.555  29.861  1.00  0.00     0.130 C
HETATM   33  C18 UNL     1      -3.081   1.890  30.383  1.00  0.00     0.091 C
HETATM   34  O2  UNL     1      -3.689  -0.055  29.368  1.00  0.00    -0.298 OA
ENDBRANCH   9  32
BRANCH  10  35
HETATM   35  O3  UNL     1      -1.388  -1.006  32.030  1.00  0.00    -0.383 OA
HETATM   36  C20 UNL     1      -2.477  -1.041  32.764  1.00  0.00     0.202 C
ENDBRANCH  10  35
BRANCH  12  37
HETATM   37  C23 UNL     1      -1.843  -4.893  30.316  1.00  0.00     0.270 C
HETATM   38  O4  UNL     1      -1.547  -5.189  29.133  1.00  0.00    -0.264 OA
BRANCH  37  39
HETATM   39  O5  UNL     1      -2.574  -5.878  31.002  1.00  0.00    -0.326 OA
HETATM   40  C24 UNL     1      -3.973  -5.882  31.019  1.00  0.00     0.213 C
ENDBRANCH  37  39
ENDBRANCH  12  37
TORSDOF 10
ENDMDL