MODEL 3
REMARK VINA RESULT: -5.907962337      1.068      1.337
REMARK  11 active torsions:
REMARK  status: ('A' for Active; 'I' for Inactive)
REMARK    1  A    between atoms: O1_2  and  C2_3
REMARK    2  A    between atoms: C2_3  and  C3_4
REMARK    3  A    between atoms: C3_4  and  C4_5
REMARK    4  A    between atoms: C4_5  and  C5_6
REMARK    5  A    between atoms: C4_5  and  C31_37
REMARK    6  A    between atoms: C6_7  and  C7_8
REMARK    7  A    between atoms: C7_8  and  C8_9
REMARK    8  A    between atoms: C9_10  and  C10_11
REMARK    9  A    between atoms: C10_11  and  O2_12
REMARK   10  A    between atoms: O2_12  and  C11_13
REMARK   11  A    between atoms: C29_33  and  O5_34
ROOT
HETATM    1  C8  UNL     1       5.577  -0.226  27.286  1.00  0.00     0.013 C
HETATM    2  C9  UNL     1       6.495  -0.291  28.463  1.00  0.00    -0.005 C
HETATM    3  C13 UNL     1       7.949  -0.464  28.024  1.00  0.00    -0.001 C
HETATM    4  C14 UNL     1       9.009   0.076  28.900  1.00  0.00     0.006 C
HETATM    5  C15 UNL     1       9.856  -0.924  29.620  1.00  0.00     0.012 C
HETATM    6  C16 UNL     1       9.209  -2.294  29.592  1.00  0.00    -0.018 C
HETATM    7  C17 UNL     1      10.292  -3.209  30.212  1.00  0.00     0.018 C
HETATM    8  C18 UNL     1       7.965  -2.408  30.331  1.00  0.00     0.012 C
HETATM    9  C19 UNL     1       6.702  -2.613  29.546  1.00  0.00     0.007 C
HETATM   10  C20 UNL     1       5.929  -1.347  29.327  1.00  0.00     0.006 C
HETATM   11  C21 UNL     1       4.562  -1.677  28.837  1.00  0.00    -0.022 C
HETATM   12  C22 UNL     1       3.553  -1.006  29.756  1.00  0.00     0.017 C
HETATM   13  C23 UNL     1       4.142  -3.120  28.866  1.00  0.00     0.093 C
HETATM   14  C24 UNL     1       2.843  -3.117  28.086  1.00  0.00     0.149 C
HETATM   15  O4  UNL     1       2.283  -4.209  27.908  1.00  0.00    -0.293 OA
HETATM   16  C25 UNL     1       2.268  -1.858  27.560  1.00  0.00     0.047 C
HETATM   17  C26 UNL     1       3.101  -0.856  27.194  1.00  0.00    -0.013 C
HETATM   18  C27 UNL     1       4.512  -1.268  27.410  1.00  0.00    -0.013 C
HETATM   19  C28 UNL     1       4.648  -2.350  26.364  1.00  0.00     0.021 C
HETATM   20  C29 UNL     1       9.222  -2.637  28.134  1.00  0.00     0.126 C
HETATM   21  C30 UNL     1       8.354  -1.683  27.302  1.00  0.00     0.038 C
ENDROOT
BRANCH   1  22
HETATM   22  C7  UNL     1       5.066   0.996  26.695  1.00  0.00     0.033 C
BRANCH  22  23
HETATM   23  C6  UNL     1       5.949   1.753  25.767  1.00  0.00    -0.029 C
HETATM   24  C5  UNL     1       5.553   2.851  25.137  1.00  0.00    -0.015 C
BRANCH  24  25
HETATM   25  C4  UNL     1       6.426   3.622  24.207  1.00  0.00     0.111 C
BRANCH  25  26
HETATM   26  C3  UNL     1       5.602   4.302  23.178  1.00  0.00     0.045 C
BRANCH  26  27
HETATM   27  C2  UNL     1       4.131   4.309  23.496  1.00  0.00     0.168 C
BRANCH  27  28
HETATM   28  O1  UNL     1       3.473   4.357  22.241  1.00  0.00    -0.396 OA
HETATM   29  C1  UNL     1       4.261   5.031  21.309  1.00  0.00     0.201 C
ENDBRANCH  27  28
ENDBRANCH  26  27
ENDBRANCH  25  26
BRANCH  25  30
HETATM   30  C31 UNL     1       7.438   2.755  23.593  1.00  0.00     0.180 C
HETATM   31  O6  UNL     1       7.197   2.225  22.473  1.00  0.00    -0.647 OA
HETATM   32  O7  UNL     1       8.637   2.508  24.206  1.00  0.00    -0.647 OA
ENDBRANCH  25  30
ENDBRANCH  24  25
ENDBRANCH  22  23
ENDBRANCH   1  22
BRANCH   2  33
HETATM   33  C10 UNL     1       6.566   0.979  29.277  1.00  0.00     0.189 C
BRANCH  33  34
HETATM   34  O2  UNL     1       6.169   0.912  30.608  1.00  0.00    -0.321 OA
BRANCH  34  35
HETATM   35  C11 UNL     1       6.957   1.443  31.574  1.00  0.00     0.254 C
HETATM   36  C12 UNL     1       7.710   0.571  32.523  1.00  0.00     0.126 C
HETATM   37  O3  UNL     1       7.056   2.698  31.672  1.00  0.00    -0.266 OA
ENDBRANCH  34  35
ENDBRANCH  33  34
ENDBRANCH   2  33
BRANCH  20  38
HETATM   38  O5  UNL     1       8.967  -3.967  27.852  1.00  0.00    -0.395 OA
ATOM     39  H5  UNL     1       9.389  -4.293  27.066  1.00  0.00     0.210 HD
ENDBRANCH  20  38
TORSDOF 11
ENDMDL