MODEL 2
REMARK VINA RESULT: -6.892377368      1.139      1.357
REMARK  11 active torsions:
REMARK  status: ('A' for Active; 'I' for Inactive)
REMARK    1  A    between atoms: C2_2  and  C3_3
REMARK    2  A    between atoms: C3_3  and  C4_4
REMARK    3  A    between atoms: C3_3  and  C27_34
REMARK    4  A    between atoms: C4_4  and  C5_5
REMARK    5  A    between atoms: C5_5  and  C6_6
REMARK    6  A    between atoms: C6_6  and  C7_8
REMARK    7  A    between atoms: C12_13  and  O2_14
REMARK    8  A    between atoms: C14_17  and  O3_18
REMARK    9  A    between atoms: C17_22  and  O4_23
REMARK   10  A    between atoms: O4_23  and  C18_24
REMARK   11  A    between atoms: C18_24  and  C19_26
ROOT
HETATM    1  C7  UNL     1       5.868   1.826  26.503  1.00  0.00     0.064 C
HETATM    2  C8  UNL     1       7.390   1.683  26.284  1.00  0.00     0.013 C
HETATM    3  C9  UNL     1       7.431   2.521  24.977  1.00  0.00     0.007 C
HETATM    4  C10 UNL     1       6.769   3.769  25.473  1.00  0.00     0.002 C
HETATM    5  C11 UNL     1       6.521   4.864  24.588  1.00  0.00     0.032 C
HETATM    6  C12 UNL     1       7.791   5.164  23.786  1.00  0.00     0.126 C
HETATM    7  C13 UNL     1       7.343   6.382  23.006  1.00  0.00     0.064 C
HETATM    8  C14 UNL     1       5.826   6.383  23.056  1.00  0.00     0.131 C
HETATM    9  C15 UNL     1       5.469   4.971  23.582  1.00  0.00     0.015 C
HETATM   10  C16 UNL     1       5.547   4.120  22.371  1.00  0.00     0.021 C
HETATM   11  C17 UNL     1       4.064   5.085  24.110  1.00  0.00     0.143 C
HETATM   12  C23 UNL     1       3.991   4.994  25.610  1.00  0.00     0.034 C
HETATM   13  C24 UNL     1       4.293   3.552  25.960  1.00  0.00     0.013 C
HETATM   14  C25 UNL     1       5.697   3.313  26.426  1.00  0.00    -0.029 C
HETATM   15  C26 UNL     1       5.841   3.957  27.785  1.00  0.00     0.016 C
ENDROOT
BRANCH   1  16
HETATM   16  C6  UNL     1       5.553   1.179  27.773  1.00  0.00     0.131 C
HETATM   17  O1  UNL     1       6.351   1.052  28.658  1.00  0.00    -0.298 OA
BRANCH  16  18
HETATM   18  C5  UNL     1       4.136   0.670  27.906  1.00  0.00     0.079 C
BRANCH  18  19
HETATM   19  C4  UNL     1       3.850  -0.426  26.946  1.00  0.00     0.018 C
BRANCH  19  20
HETATM   20  C3  UNL     1       3.597  -1.700  27.739  1.00  0.00     0.041 C
BRANCH  20  21
HETATM   21  C2  UNL     1       2.446  -2.477  27.275  1.00  0.00    -0.030 C
HETATM   22  C1  UNL     1       2.274  -3.124  26.156  1.00  0.00     0.007 C
ENDBRANCH  20  21
BRANCH  20  23
HETATM   23  C27 UNL     1       4.836  -2.549  27.815  1.00  0.00     0.233 C
HETATM   24  C28 UNL     1       5.711  -2.493  26.609  1.00  0.00     0.063 C
HETATM   25  C29 UNL     1       7.071  -1.929  26.890  1.00  0.00    -0.027 C
HETATM   26  C30 UNL     1       7.635  -2.172  28.051  1.00  0.00    -0.001 C
HETATM   27  C31 UNL     1       6.818  -3.019  28.996  1.00  0.00     0.299 C
HETATM   28  N1  UNL     1       5.535  -2.355  29.068  1.00  0.00     0.093 N
HETATM   29  C32 UNL     1       4.762  -2.975  30.113  1.00  0.00     0.310 C
ENDBRANCH  20  23
ENDBRANCH  19  20
ENDBRANCH  18  19
ENDBRANCH  16  18
ENDBRANCH   1  16
BRANCH   6  30
HETATM   30  O2  UNL     1       8.133   4.187  22.896  1.00  0.00    -0.395 OA
ATOM     31  H2  UNL     1       9.063   3.994  22.870  1.00  0.00     0.210 HD
ENDBRANCH   6  30
BRANCH  11  32
HETATM   32  O4  UNL     1       3.336   6.154  23.568  1.00  0.00    -0.312 OA
BRANCH  32  33
HETATM   33  C18 UNL     1       2.013   6.157  23.273  1.00  0.00     0.283 C
HETATM   34  O5  UNL     1       1.353   7.163  23.652  1.00  0.00    -0.260 OA
BRANCH  33  35
HETATM   35  C19 UNL     1       1.361   5.085  22.564  1.00  0.00     0.084 C
HETATM   36  C20 UNL     1       1.525   4.734  21.320  1.00  0.00    -0.082 C
HETATM   37  C21 UNL     1       2.443   5.396  20.376  1.00  0.00     0.043 C
HETATM   38  C22 UNL     1       0.739   3.574  20.782  1.00  0.00     0.043 C
ENDBRANCH  33  35
ENDBRANCH  32  33
ENDBRANCH  11  32
BRANCH   8  39
HETATM   39  O3  UNL     1       5.380   6.542  21.749  1.00  0.00    -0.395 OA
ATOM     40  H3  UNL     1       5.334   7.476  21.586  1.00  0.00     0.210 HD
ENDBRANCH   8  39
TORSDOF 11
ENDMDL