MODEL 4
REMARK VINA RESULT: -7.429178026      3.115      7.839
REMARK  7 active torsions:
REMARK  status: ('A' for Active; 'I' for Inactive)
REMARK    1  A    between atoms: C2_2  and  C3_3
REMARK    2  A    between atoms: C3_3  and  C4_4
REMARK    3  A    between atoms: C4_4  and  C5_5
REMARK    4  A    between atoms: C5_5  and  C6_6
REMARK    5  A    between atoms: C9_10  and  O2_11
REMARK    6  A    between atoms: C14_17  and  O3_18
REMARK    7  A    between atoms: C16_21  and  O4_22
ROOT
HETATM    1  C6  UNL     1      -0.982  36.911  42.774  1.00  0.00     0.087 A
HETATM    2  O1  UNL     1       0.003  36.165  43.198  1.00  0.00    -0.308 OA
HETATM    3  C7  UNL     1       0.095  36.236  44.506  1.00  0.00     0.131 A
HETATM    4  C8  UNL     1      -0.876  37.069  44.982  1.00  0.00     0.019 A
HETATM    5  C9  UNL     1      -1.573  37.507  43.865  1.00  0.00     0.104 A
HETATM    6  C10 UNL     1      -1.095  37.405  46.417  1.00  0.00     0.080 C
HETATM    7  C11 UNL     1       0.045  36.877  47.233  1.00  0.00    -0.057 C
HETATM    8  C12 UNL     1       0.503  37.654  48.201  1.00  0.00    -0.052 C
HETATM    9  C13 UNL     1      -0.079  38.999  48.479  1.00  0.00     0.046 C
HETATM   10  C14 UNL     1       1.637  37.201  49.044  1.00  0.00     0.149 C
HETATM   11  C15 UNL     1       1.640  35.715  49.118  1.00  0.00     0.069 C
HETATM   12  C16 UNL     1       1.646  35.049  47.763  1.00  0.00     0.136 C
HETATM   13  C17 UNL     1       0.540  35.544  46.877  1.00  0.00     0.121 C
HETATM   14  C18 UNL     1       1.005  35.611  45.470  1.00  0.00     0.194 C
HETATM   15  O5  UNL     1       2.118  35.163  45.100  1.00  0.00    -0.289 OA
ENDROOT
BRANCH   1  16
HETATM   16  C5  UNL     1      -1.361  37.058  41.349  1.00  0.00     0.068 C
BRANCH  16  17
HETATM   17  C4  UNL     1      -2.016  35.829  40.796  1.00  0.00     0.007 C
BRANCH  17  18
HETATM   18  C3  UNL     1      -3.110  35.396  41.739  1.00  0.00     0.000 C
BRANCH  18  19
HETATM   19  C2  UNL     1      -3.235  33.915  41.902  1.00  0.00    -0.005 C
HETATM   20  C1  UNL     1      -2.490  33.565  43.198  1.00  0.00     0.005 C
ENDBRANCH  18  19
ENDBRANCH  17  18
ENDBRANCH  16  17
ENDBRANCH   1  16
BRANCH   5  21
HETATM   21  O2  UNL     1      -2.643  38.369  43.886  1.00  0.00    -0.357 OA
ATOM     22  H2  UNL     1      -2.665  39.282  43.627  1.00  0.00     0.217 HD
ENDBRANCH   5  21
BRANCH  12  23
HETATM   23  O4  UNL     1       1.431  33.682  47.977  1.00  0.00    -0.394 OA
ATOM     24  H4  UNL     1       2.270  33.249  47.876  1.00  0.00     0.210 HD
ENDBRANCH  12  23
BRANCH  10  25
HETATM   25  O3  UNL     1       2.824  37.692  48.499  1.00  0.00    -0.391 OA
ATOM     26  H3  UNL     1       2.784  37.605  47.554  1.00  0.00     0.210 HD
ENDBRANCH  10  25
TORSDOF 7
ENDMDL