MODEL 1
REMARK VINA RESULT: -8.653814294      0.000      0.000
REMARK  7 active torsions:
REMARK  status: ('A' for Active; 'I' for Inactive)
REMARK    1  A    between atoms: O1_2  and  C2_3
REMARK    2  A    between atoms: C2_3  and  C3_4
REMARK    3  A    between atoms: C2_3  and  C8_9
REMARK    4  A    between atoms: C4_5  and  C5_6
REMARK    5  A    between atoms: C11_12  and  O2_13
REMARK    6  A    between atoms: C14_17  and  O3_18
REMARK    7  A    between atoms: N1_22  and  O4_24
ROOT
HETATM    1  C8  UNL     1       0.115  34.567  45.703  1.00  0.00     0.017 A
HETATM    2  C9  UNL     1       0.427  35.892  45.667  1.00  0.00    -0.016 A
HETATM    3  C10 UNL     1       0.263  36.713  44.445  1.00  0.00     0.052 C
HETATM    4  C11 UNL     1       0.928  36.469  46.838  1.00  0.00     0.087 A
HETATM    5  C12 UNL     1       1.109  35.745  48.003  1.00  0.00     0.059 A
HETATM    6  C13 UNL     1       0.793  34.403  48.040  1.00  0.00    -0.002 A
HETATM    7  C14 UNL     1       0.303  33.841  46.890  1.00  0.00     0.083 A
HETATM    8  C15 UNL     1       1.052  33.805  49.361  1.00  0.00     0.106 A
HETATM    9  C16 UNL     1       1.575  34.898  50.195  1.00  0.00     0.087 A
HETATM   10  N1  UNL     1       1.926  34.778  51.436  1.00  0.00    -0.269 N
ATOM     11  H1  UNL     1       1.850  33.875  51.905  1.00  0.00     0.194 HD
HETATM   12  C17 UNL     1       1.601  36.079  49.341  1.00  0.00     0.210 A
HETATM   13  O5  UNL     1       1.990  37.199  49.718  1.00  0.00    -0.285 OA
ENDROOT
BRANCH   1  14
HETATM   14  C2  UNL     1      -0.434  33.871  44.513  1.00  0.00     0.179 C
BRANCH  14  15
HETATM   15  O1  UNL     1       0.523  33.024  43.933  1.00  0.00    -0.382 OA
HETATM   16  C1  UNL     1      -0.004  31.833  43.474  1.00  0.00     0.202 C
ENDBRANCH  14  15
BRANCH  14  17
HETATM   17  C3  UNL     1      -1.029  34.777  43.508  1.00  0.00     0.006 C
HETATM   18  C4  UNL     1      -2.233  34.597  42.982  1.00  0.00    -0.024 C
BRANCH  18  19
HETATM   19  C5  UNL     1      -2.830  35.496  41.980  1.00  0.00    -0.000 C
HETATM   20  C6  UNL     1      -1.819  36.247  41.180  1.00  0.00     0.013 C
HETATM   21  C7  UNL     1      -3.775  34.789  41.038  1.00  0.00     0.013 C
ENDBRANCH  18  19
ENDBRANCH  14  17
ENDBRANCH   1  14
BRANCH   7  22
HETATM   22  O3  UNL     1      -0.029  32.488  46.888  1.00  0.00    -0.359 OA
ATOM     23  H3  UNL     1      -0.531  32.151  47.620  1.00  0.00     0.217 HD
ENDBRANCH   7  22
BRANCH   4  24
HETATM   24  O2  UNL     1       1.237  37.812  46.781  1.00  0.00    -0.359 OA
ATOM     25  H2  UNL     1       2.150  38.032  46.634  1.00  0.00     0.217 HD
ENDBRANCH   4  24
BRANCH  10  26
HETATM   26  O4  UNL     1       2.405  35.878  52.123  1.00  0.00    -0.290 OA
ATOM     27  H4  UNL     1       3.255  35.836  52.546  1.00  0.00     0.244 HD
ENDBRANCH  10  26
TORSDOF 7
ENDMDL