MODEL 1
REMARK VINA RESULT: -7.369536106      0.000      0.000
REMARK  8 active torsions:
REMARK  status: ('A' for Active; 'I' for Inactive)
REMARK    1  A    between atoms: C2_2  and  C3_3
REMARK    2  A    between atoms: C6_7  and  O2_8
REMARK    3  A    between atoms: C7_10  and  C8_11
REMARK    4  A    between atoms: C8_11  and  C10_13
REMARK    5  A    between atoms: C10_13  and  C12_15
REMARK    6  A    between atoms: C12_15  and  O3_16
REMARK    7  A    between atoms: C13_18  and  O4_19
REMARK    8  A    between atoms: C14_21  and  O5_22
ROOT
HETATM    1  C3  UNL     1       1.378  38.792  50.745  1.00  0.00     0.172 C
HETATM    2  C4  UNL     1       0.620  39.471  51.811  1.00  0.00     0.080 C
HETATM    3  O1  UNL     1       0.522  38.452  49.664  1.00  0.00    -0.310 OA
HETATM    4  C5  UNL     1       0.623  37.189  49.067  1.00  0.00     0.122 A
HETATM    5  C6  UNL     1       0.267  36.956  47.749  1.00  0.00     0.113 A
HETATM    6  C7  UNL     1       0.359  35.704  47.148  1.00  0.00     0.038 A
HETATM    7  C13 UNL     1       0.850  34.698  48.006  1.00  0.00     0.113 A
HETATM    8  C14 UNL     1       1.212  34.915  49.320  1.00  0.00     0.115 A
HETATM    9  C15 UNL     1       1.095  36.167  49.860  1.00  0.00     0.065 A
HETATM   10  C16 UNL     1       1.360  36.560  51.249  1.00  0.00     0.062 C
HETATM   11  C17 UNL     1       1.782  35.490  52.199  1.00  0.00     0.077 C
HETATM   12  O6  UNL     1       2.076  37.730  51.288  1.00  0.00    -0.318 OA
ENDROOT
BRANCH   6  13
HETATM   13  C8  UNL     1       0.055  35.484  45.724  1.00  0.00    -0.062 C
HETATM   14  C9  UNL     1       1.321  35.487  44.873  1.00  0.00     0.045 C
BRANCH  13  15
HETATM   15  C10 UNL     1      -1.143  34.857  45.232  1.00  0.00     0.035 C
HETATM   16  C11 UNL     1      -1.227  33.784  44.242  1.00  0.00     0.017 C
BRANCH  15  17
HETATM   17  C12 UNL     1      -2.049  36.018  44.716  1.00  0.00     0.172 C
BRANCH  17  18
HETATM   18  O3  UNL     1      -2.676  36.612  45.817  1.00  0.00    -0.400 OA
ATOM     19  H3  UNL     1      -3.616  36.529  45.707  1.00  0.00     0.209 HD
ENDBRANCH  17  18
ENDBRANCH  15  17
ENDBRANCH  13  15
ENDBRANCH   6  13
BRANCH   5  20
HETATM   20  O2  UNL     1      -0.204  38.038  47.046  1.00  0.00    -0.357 OA
ATOM     21  H2  UNL     1       0.131  38.888  47.310  1.00  0.00     0.217 HD
ENDBRANCH   5  20
BRANCH   7  22
HETATM   22  O4  UNL     1       0.952  33.433  47.443  1.00  0.00    -0.357 OA
ATOM     23  H4  UNL     1       0.302  33.230  46.781  1.00  0.00     0.217 HD
ENDBRANCH   7  22
BRANCH   8  24
HETATM   24  O5  UNL     1       1.712  33.902  50.130  1.00  0.00    -0.357 OA
ATOM     25  H5  UNL     1       2.572  33.523  49.997  1.00  0.00     0.217 HD
ENDBRANCH   8  24
BRANCH   1  26
HETATM   26  C2  UNL     1       2.439  39.699  50.121  1.00  0.00     0.064 C
HETATM   27  C1  UNL     1       3.556  39.986  51.118  1.00  0.00     0.010 C
ENDBRANCH   1  26
TORSDOF 8
ENDMDL