MODEL 3
REMARK VINA RESULT: -8.730793289      1.586      2.285
REMARK  7 active torsions:
REMARK  status: ('A' for Active; 'I' for Inactive)
REMARK    1  A    between atoms: C1_2  and  C2_3
REMARK    2  A    between atoms: C1_2  and  C10_12
REMARK    3  A    between atoms: C2_3  and  C3_4
REMARK    4  A    between atoms: C3_4  and  C4_6
REMARK    5  A    between atoms: C12_14  and  O3_15
REMARK    6  A    between atoms: C15_19  and  O4_20
REMARK    7  A    between atoms: C16_22  and  O5_23
ROOT
HETATM    1  C10 UNL     1       0.433  36.218  47.418  1.00  0.00     0.046 A
HETATM    2  C11 UNL     1       0.978  34.971  47.776  1.00  0.00     0.055 A
HETATM    3  C12 UNL     1       1.492  34.748  49.030  1.00  0.00     0.073 A
HETATM    4  C13 UNL     1       1.506  35.720  50.001  1.00  0.00    -0.013 A
HETATM    5  C14 UNL     1       0.985  36.937  49.678  1.00  0.00     0.013 A
HETATM    6  C15 UNL     1       0.446  37.194  48.386  1.00  0.00     0.089 A
HETATM    7  C16 UNL     1       1.099  37.841  50.855  1.00  0.00     0.154 C
HETATM    8  C17 UNL     1       1.151  36.883  52.012  1.00  0.00     0.041 C
HETATM    9  C18 UNL     1       1.992  35.750  51.424  1.00  0.00     0.045 C
ENDROOT
BRANCH   1  10
HETATM   10  C1  UNL     1      -0.099  36.412  46.081  1.00  0.00     0.169 C
HETATM   11  O1  UNL     1      -1.161  36.986  45.854  1.00  0.00    -0.292 OA
BRANCH  10  12
HETATM   12  C2  UNL     1       0.711  35.871  44.940  1.00  0.00     0.162 C
BRANCH  12  13
HETATM   13  C3  UNL     1      -0.147  35.441  43.811  1.00  0.00     0.138 C
HETATM   14  O2  UNL     1      -0.583  36.215  42.971  1.00  0.00    -0.297 OA
BRANCH  13  15
HETATM   15  C4  UNL     1      -0.500  34.023  43.675  1.00  0.00     0.056 C
HETATM   16  C5  UNL     1       0.395  33.123  44.508  1.00  0.00     0.012 C
HETATM   17  C6  UNL     1      -0.321  31.839  44.753  1.00  0.00     0.001 C
HETATM   18  C7  UNL     1      -1.322  31.495  43.688  1.00  0.00     0.000 C
HETATM   19  C8  UNL     1      -2.398  32.518  43.527  1.00  0.00     0.001 C
HETATM   20  C9  UNL     1      -1.902  33.809  44.198  1.00  0.00     0.012 C
ENDBRANCH  13  15
ENDBRANCH  12  13
ENDBRANCH  10  12
ENDBRANCH   1  10
BRANCH   6  21
HETATM   21  O4  UNL     1      -0.047  38.455  48.187  1.00  0.00    -0.359 OA
ATOM     22  H4  UNL     1       0.464  39.160  47.808  1.00  0.00     0.217 HD
ENDBRANCH   6  21
BRANCH   3  23
HETATM   23  O3  UNL     1       2.020  33.502  49.343  1.00  0.00    -0.360 OA
ATOM     24  H3  UNL     1       1.447  32.820  49.673  1.00  0.00     0.217 HD
ENDBRANCH   3  23
BRANCH   7  25
HETATM   25  O5  UNL     1       2.276  38.589  50.814  1.00  0.00    -0.391 OA
ATOM     26  H5  UNL     1       2.853  38.293  50.119  1.00  0.00     0.210 HD
ENDBRANCH   7  25
TORSDOF 7
ENDMDL