MODEL 4
REMARK VINA RESULT: -7.263832947      1.556      2.394
REMARK  7 active torsions:
REMARK  status: ('A' for Active; 'I' for Inactive)
REMARK    1  A    between atoms: C2_2  and  S1_16
REMARK    2  A    between atoms: N1_3  and  C3_5
REMARK    3  A    between atoms: C3_5  and  C4_6
REMARK    4  A    between atoms: C4_6  and  C5_7
REMARK    5  A    between atoms: S1_16  and  C11_17
REMARK    6  A    between atoms: C12_18  and  O1_19
REMARK    7  A    between atoms: N4_25  and  N5_26
ROOT
HETATM    1  C1  UNL     1      -1.312  36.619  46.145  1.00  0.00     0.076 C
HETATM    2  C2  UNL     1      -0.115  35.767  46.373  1.00  0.00     0.044 C
HETATM    3  N1  UNL     1      -0.008  34.570  46.001  1.00  0.00    -0.388 N
ATOM      4  H1  UNL     1       0.869  34.095  46.219  1.00  0.00     0.159 HD
ENDROOT
BRANCH   2   5
HETATM    5  S1  UNL     1       1.269  36.507  47.240  1.00  0.00    -0.053 SA
BRANCH   5   6
HETATM    6  C11 UNL     1       1.420  35.885  48.894  1.00  0.00     0.152 A
HETATM    7  C12 UNL     1       1.679  34.581  49.290  1.00  0.00     0.179 A
HETATM    8  N3  UNL     1       1.700  34.586  50.649  1.00  0.00    -0.310 N
HETATM    9  C13 UNL     1       1.459  35.852  51.065  1.00  0.00     0.200 A
ATOM     10  H3  UNL     1       1.867  33.779  51.250  1.00  0.00     0.170 HD
HETATM   11  S2  UNL     1       1.385  36.352  52.635  1.00  0.00    -0.039 SA
HETATM   12  N4  UNL     1       1.287  36.648  49.997  1.00  0.00    -0.225 N
BRANCH   7  13
HETATM   13  O1  UNL     1       1.874  33.511  48.430  1.00  0.00    -0.344 OA
ATOM     14  H1  UNL     1       1.488  32.649  48.535  1.00  0.00     0.219 HD
ENDBRANCH   7  13
BRANCH  12  15
HETATM   15  N5  UNL     1       1.021  38.023  50.015  1.00  0.00    -0.335 N
ATOM     16  H52 UNL     1       1.113  38.669  49.232  1.00  0.00     0.177 HD
ATOM     17  H51 UNL     1       0.697  38.556  50.822  1.00  0.00     0.177 HD
ENDBRANCH  12  15
ENDBRANCH   5   6
ENDBRANCH   2   5
BRANCH   3  18
HETATM   18  C3  UNL     1      -0.997  33.814  45.302  1.00  0.00     0.122 C
BRANCH  18  19
HETATM   19  C4  UNL     1      -0.624  33.474  43.908  1.00  0.00     0.052 C
BRANCH  19  20
HETATM   20  C5  UNL     1      -1.664  33.954  42.935  1.00  0.00     0.187 C
HETATM   21  C6  UNL     1      -1.979  35.422  43.036  1.00  0.00     0.033 C
HETATM   22  C7  UNL     1      -1.925  36.073  41.673  1.00  0.00     0.002 C
HETATM   23  C8  UNL     1      -2.850  35.408  40.710  1.00  0.00     0.002 C
HETATM   24  C9  UNL     1      -3.952  34.611  41.323  1.00  0.00     0.027 C
HETATM   25  C10 UNL     1      -3.554  33.230  41.769  1.00  0.00     0.232 C
HETATM   26  N2  UNL     1      -2.904  33.182  43.052  1.00  0.00    -0.071 N
ATOM     27  H22 UNL     1      -2.754  32.231  43.390  1.00  0.00     0.277 HD
ATOM     28  H21 UNL     1      -3.502  33.498  43.816  1.00  0.00     0.277 HD
ENDBRANCH  19  20
ENDBRANCH  18  19
ENDBRANCH   3  18
TORSDOF 7
ENDMDL