MODEL 4
REMARK VINA RESULT: -8.819217097      1.512      2.184
REMARK  7 active torsions:
REMARK  status: ('A' for Active; 'I' for Inactive)
REMARK    1  A    between atoms: O1_1  and  N1_3
REMARK    2  A    between atoms: C1_5  and  O2_6
REMARK    3  A    between atoms: C1_5  and  C2_8
REMARK    4  A    between atoms: C7_13  and  O3_14
REMARK    5  A    between atoms: C9_17  and  N2_18
REMARK    6  A    between atoms: C10_20  and  C11_21
REMARK    7  A    between atoms: C11_21  and  N3_22
ROOT
HETATM    1  C2  UNL     1      -1.276  37.294  43.358  1.00  0.00     0.181 A
HETATM    2  C3  UNL     1      -2.120  36.280  42.711  1.00  0.00     0.007 A
HETATM    3  C4  UNL     1      -2.081  35.014  43.046  1.00  0.00     0.012 A
HETATM    4  C5  UNL     1      -1.193  34.524  44.084  1.00  0.00    -0.005 A
HETATM    5  C6  UNL     1      -1.152  33.191  44.452  1.00  0.00     0.050 A
HETATM    6  C7  UNL     1      -0.304  32.747  45.446  1.00  0.00     0.068 A
HETATM    7  C8  UNL     1       0.522  33.652  46.086  1.00  0.00     0.068 A
HETATM    8  C9  UNL     1       0.494  34.984  45.731  1.00  0.00     0.062 A
HETATM    9  C17 UNL     1      -0.387  35.432  44.705  1.00  0.00     0.066 A
HETATM   10  N4  UNL     1      -0.398  36.816  44.360  1.00  0.00    -0.372 N
ATOM     11  H4  UNL     1       0.228  37.464  44.837  1.00  0.00     0.161 HD
ENDROOT
BRANCH   8  12
HETATM   12  N2  UNL     1       1.307  35.917  46.330  1.00  0.00    -0.366 N
HETATM   13  C10 UNL     1       1.274  36.806  47.159  1.00  0.00     0.081 C
ATOM     14  H2  UNL     1       2.252  35.836  45.954  1.00  0.00     0.165 HD
BRANCH  13  15
HETATM   15  C11 UNL     1       0.167  37.298  47.965  1.00  0.00     0.171 C
BRANCH  15  16
HETATM   16  N3  UNL     1       0.556  37.958  49.180  1.00  0.00    -0.369 N
HETATM   17  C12 UNL     1       1.866  37.738  49.640  1.00  0.00     0.063 C
HETATM   18  C13 UNL     1       2.764  38.926  49.686  1.00  0.00     0.045 C
HETATM   19  C14 UNL     1       2.026  40.157  50.134  1.00  0.00     0.010 C
HETATM   20  C15 UNL     1       0.763  40.394  49.371  1.00  0.00     0.045 C
HETATM   21  C16 UNL     1      -0.101  39.159  49.496  1.00  0.00     0.063 C
ENDBRANCH  15  16
ENDBRANCH  13  15
ENDBRANCH   8  12
BRANCH   6  22
HETATM   22  O3  UNL     1      -0.230  31.423  45.847  1.00  0.00    -0.361 OA
ATOM     23  H3  UNL     1      -0.182  30.695  45.239  1.00  0.00     0.217 HD
ENDBRANCH   6  22
BRANCH   1  24
HETATM   24  C1  UNL     1      -0.606  38.081  42.283  1.00  0.00     0.162 C
HETATM   25  N1  UNL     1      -1.110  38.340  41.143  1.00  0.00    -0.249 N
ATOM     26  H1  UNL     1      -2.044  37.994  40.925  1.00  0.00     0.196 HD
BRANCH  25  27
HETATM   27  O1  UNL     1      -0.443  39.063  40.213  1.00  0.00    -0.288 OA
ATOM     28  H1  UNL     1      -0.876  39.413  39.443  1.00  0.00     0.244 HD
ENDBRANCH  25  27
BRANCH  24  29
HETATM   29  O2  UNL     1       0.662  38.551  42.582  1.00  0.00    -0.346 OA
ATOM     30  H2  UNL     1       1.003  39.296  42.101  1.00  0.00     0.219 HD
ENDBRANCH  24  29
ENDBRANCH   1  24
TORSDOF 7
ENDMDL