MODEL 4
REMARK VINA RESULT: -8.257774018      0.957      1.436
REMARK  8 active torsions:
REMARK  status: ('A' for Active; 'I' for Inactive)
REMARK    1  A    between atoms: O1_1  and  N1_3
REMARK    2  A    between atoms: C1_5  and  O2_6
REMARK    3  A    between atoms: C1_5  and  C2_8
REMARK    4  A    between atoms: C2_8  and  C3_9
REMARK    5  A    between atoms: C5_11  and  C6_12
REMARK    6  A    between atoms: C6_12  and  C7_13
REMARK    7  A    between atoms: C10_16  and  O3_17
REMARK    8  A    between atoms: C12_20  and  O4_21
ROOT
HETATM    1  C3  UNL     1      -1.702  34.762  45.191  1.00  0.00     0.138 C
HETATM    2  C4  UNL     1      -0.404  35.018  45.915  1.00  0.00     0.040 C
HETATM    3  C5  UNL     1      -0.739  36.409  46.518  1.00  0.00     0.016 C
HETATM    4  C13 UNL     1      -1.560  37.003  45.444  1.00  0.00     0.173 C
HETATM    5  O5  UNL     1      -2.290  35.949  44.871  1.00  0.00    -0.384 OA
ENDROOT
BRANCH   1   6
HETATM    6  C2  UNL     1      -1.501  33.940  43.946  1.00  0.00     0.052 C
HETATM    7  C14 UNL     1      -2.202  32.597  44.068  1.00  0.00     0.020 C
HETATM    8  C15 UNL     1      -1.089  31.619  44.380  1.00  0.00     0.001 C
HETATM    9  C16 UNL     1       0.005  32.154  43.446  1.00  0.00     0.001 C
HETATM   10  C17 UNL     1      -0.004  33.616  43.837  1.00  0.00     0.020 C
BRANCH   6  11
HETATM   11  C1  UNL     1      -1.884  34.642  42.708  1.00  0.00     0.146 C
HETATM   12  N1  UNL     1      -2.969  34.357  42.112  1.00  0.00    -0.250 N
ATOM     13  H1  UNL     1      -3.534  33.626  42.544  1.00  0.00     0.196 HD
BRANCH  12  14
HETATM   14  O1  UNL     1      -3.470  34.896  40.982  1.00  0.00    -0.288 OA
ATOM     15  H1  UNL     1      -3.724  35.796  40.820  1.00  0.00     0.244 HD
ENDBRANCH  12  14
BRANCH  11  16
HETATM   16  O2  UNL     1      -1.057  35.615  42.197  1.00  0.00    -0.347 OA
ATOM     17  H2  UNL     1      -0.856  35.624  41.269  1.00  0.00     0.219 HD
ENDBRANCH  11  16
ENDBRANCH   6  11
ENDBRANCH   1   6
BRANCH   3  18
HETATM   18  C6  UNL     1       0.532  37.027  46.923  1.00  0.00     0.048 C
BRANCH  18  19
HETATM   19  C7  UNL     1       0.769  37.217  48.351  1.00  0.00    -0.024 A
HETATM   20  C8  UNL     1       0.415  38.455  48.896  1.00  0.00     0.012 A
HETATM   21  C9  UNL     1       0.656  38.799  50.208  1.00  0.00     0.037 A
HETATM   22  C10 UNL     1       1.275  37.899  51.051  1.00  0.00     0.068 A
HETATM   23  C11 UNL     1       1.621  36.683  50.521  1.00  0.00     0.073 A
HETATM   24  C12 UNL     1       1.376  36.326  49.180  1.00  0.00     0.074 A
BRANCH  22  25
HETATM   25  O3  UNL     1       1.531  38.225  52.385  1.00  0.00    -0.361 OA
ATOM     26  H3  UNL     1       2.361  38.611  52.642  1.00  0.00     0.217 HD
ENDBRANCH  22  25
BRANCH  24  27
HETATM   27  O4  UNL     1       1.754  35.077  48.755  1.00  0.00    -0.360 OA
ATOM     28  H4  UNL     1       1.853  34.865  47.834  1.00  0.00     0.217 HD
ENDBRANCH  24  27
ENDBRANCH  18  19
ENDBRANCH   3  18
TORSDOF 8
ENDMDL