MODEL 5
REMARK VINA RESULT: -7.731718061      6.338     10.541
REMARK  8 active torsions:
REMARK  status: ('A' for Active; 'I' for Inactive)
REMARK    1  A    between atoms: C2_2  and  C3_3
REMARK    2  A    between atoms: C3_3  and  C4_4
REMARK    3  A    between atoms: C4_4  and  N1_5
REMARK    4  A    between atoms: C8_9  and  O1_10
REMARK    5  A    between atoms: C10_13  and  O2_14
REMARK    6  A    between atoms: C12_16  and  O3_17
REMARK    7  A    between atoms: C14_20  and  O4_21
REMARK    8  A    between atoms: C16_24  and  O5_25
ROOT
HETATM    1  N1  UNL     1      -0.397  34.956  45.911  1.00  0.00     0.097 N
HETATM    2  C5  UNL     1       0.786  34.270  46.532  1.00  0.00     0.315 C
HETATM    3  C6  UNL     1       0.927  35.026  47.827  1.00  0.00     0.015 A
HETATM    4  C7  UNL     1       0.536  36.302  47.500  1.00  0.00     0.015 A
HETATM    5  C8  UNL     1       0.539  37.263  48.485  1.00  0.00     0.088 A
HETATM    6  C9  UNL     1       0.910  37.033  49.787  1.00  0.00     0.050 A
HETATM    7  C10 UNL     1       0.899  37.991  50.773  1.00  0.00     0.115 A
HETATM    8  C12 UNL     1       1.262  37.709  52.070  1.00  0.00     0.102 A
HETATM    9  C13 UNL     1       1.656  36.415  52.385  1.00  0.00     0.077 A
HETATM   10  C14 UNL     1       1.673  35.438  51.400  1.00  0.00     0.082 A
HETATM   11  C15 UNL     1       1.304  35.722  50.095  1.00  0.00     0.047 A
HETATM   12  C16 UNL     1       1.308  34.736  49.112  1.00  0.00     0.088 A
HETATM   13  C17 UNL     1       0.169  36.326  46.041  1.00  0.00     0.315 C
ENDROOT
BRANCH   1  14
HETATM   14  C4  UNL     1      -0.453  34.649  44.518  1.00  0.00     0.273 C
BRANCH  14  15
HETATM   15  C3  UNL     1      -1.084  33.365  44.133  1.00  0.00     0.030 C
BRANCH  15  16
HETATM   16  C2  UNL     1      -0.182  32.317  43.592  1.00  0.00    -0.003 C
HETATM   17  C1  UNL     1      -0.961  31.063  43.188  1.00  0.00     0.005 C
ENDBRANCH  15  16
ENDBRANCH  14  15
ENDBRANCH   1  14
BRANCH  12  18
HETATM   18  O5  UNL     1       1.700  33.465  49.442  1.00  0.00    -0.359 OA
ATOM     19  H5  UNL     1       2.512  33.325  49.913  1.00  0.00     0.217 HD
ENDBRANCH  12  18
BRANCH   5  20
HETATM   20  O1  UNL     1       0.131  38.547  48.108  1.00  0.00    -0.359 OA
ATOM     21  H1  UNL     1      -0.681  38.862  48.486  1.00  0.00     0.217 HD
ENDBRANCH   5  20
BRANCH  10  22
HETATM   22  O4  UNL     1       2.071  34.143  51.747  1.00  0.00    -0.360 OA
ATOM     23  H4  UNL     1       1.700  33.410  51.271  1.00  0.00     0.217 HD
ENDBRANCH  10  22
BRANCH   7  24
HETATM   24  O2  UNL     1       0.520  39.285  50.483  1.00  0.00    -0.352 OA
HETATM   25  C11 UNL     1       1.430  40.362  50.375  1.00  0.00     0.210 C
ENDBRANCH   7  24
BRANCH   8  26
HETATM   26  O3  UNL     1       1.267  38.634  53.105  1.00  0.00    -0.358 OA
ATOM     27  H3  UNL     1       1.081  38.427  54.013  1.00  0.00     0.217 HD
ENDBRANCH   8  26
TORSDOF 8
ENDMDL