MODEL 1
REMARK VINA RESULT: -8.288850956      0.000      0.000
REMARK  8 active torsions:
REMARK  status: ('A' for Active; 'I' for Inactive)
REMARK    1  A    between atoms: O1_1  and  C1_3
REMARK    2  A    between atoms: C1_3  and  C2_4
REMARK    3  A    between atoms: C2_4  and  O2_5
REMARK    4  A    between atoms: C2_4  and  C3_7
REMARK    5  A    between atoms: C7_11  and  O3_12
REMARK    6  A    between atoms: C8_15  and  O5_16
REMARK    7  A    between atoms: O5_16  and  C9_17
REMARK    8  A    between atoms: C17_25  and  O6_26
ROOT
HETATM    1  C3  UNL     1       1.924  39.636  49.987  1.00  0.00     0.050 C
HETATM    2  C4  UNL     1       1.986  39.089  51.389  1.00  0.00     0.015 C
HETATM    3  C5  UNL     1       1.061  37.904  51.592  1.00  0.00     0.045 C
HETATM    4  C6  UNL     1       1.352  36.950  50.503  1.00  0.00     0.014 A
HETATM    5  C7  UNL     1       1.659  35.615  50.405  1.00  0.00     0.192 A
HETATM    6  O4  UNL     1       1.822  35.289  49.134  1.00  0.00    -0.264 OA
HETATM    7  C8  UNL     1       1.630  36.378  48.397  1.00  0.00     0.197 A
HETATM    8  C16 UNL     1       1.336  37.431  49.212  1.00  0.00     0.040 A
HETATM    9  C17 UNL     1       1.023  38.876  49.069  1.00  0.00     0.163 C
ENDROOT
BRANCH   7  10
HETATM   10  O5  UNL     1       1.719  36.410  47.036  1.00  0.00    -0.324 OA
BRANCH  10  11
HETATM   11  C9  UNL     1       0.706  36.083  46.120  1.00  0.00     0.131 C
HETATM   12  C10 UNL     1       0.399  34.625  46.252  1.00  0.00     0.032 C
HETATM   13  C11 UNL     1       0.124  34.003  44.891  1.00  0.00     0.002 C
HETATM   14  C12 UNL     1      -1.352  34.177  44.553  1.00  0.00     0.000 C
HETATM   15  C13 UNL     1      -1.595  35.659  44.425  1.00  0.00     0.000 C
HETATM   16  C14 UNL     1      -1.772  36.273  45.778  1.00  0.00     0.002 C
HETATM   17  C15 UNL     1      -0.521  36.951  46.293  1.00  0.00     0.032 C
ENDBRANCH  10  11
ENDBRANCH   7  10
BRANCH   5  18
HETATM   18  O3  UNL     1       1.771  34.765  51.494  1.00  0.00    -0.340 OA
ATOM     19  H3  UNL     1       1.344  33.919  51.552  1.00  0.00     0.220 HD
ENDBRANCH   5  18
BRANCH   9  20
HETATM   20  O6  UNL     1      -0.322  39.030  49.332  1.00  0.00    -0.390 OA
ATOM     21  H6  UNL     1      -0.578  38.809  50.220  1.00  0.00     0.210 HD
ENDBRANCH   9  20
BRANCH   1  22
HETATM   22  C2  UNL     1       1.620  41.099  50.085  1.00  0.00     0.148 C
BRANCH  22  23
HETATM   23  C1  UNL     1       2.686  41.901  50.769  1.00  0.00     0.196 C
BRANCH  23  24
HETATM   24  O1  UNL     1       3.094  43.001  50.040  1.00  0.00    -0.398 OA
ATOM     25  H1  UNL     1       4.001  43.238  50.194  1.00  0.00     0.209 HD
ENDBRANCH  23  24
ENDBRANCH  22  23
BRANCH  22  26
HETATM   26  O2  UNL     1       1.376  41.647  48.834  1.00  0.00    -0.393 OA
ATOM     27  H2  UNL     1       1.547  40.990  48.170  1.00  0.00     0.210 HD
ENDBRANCH  22  26
ENDBRANCH   1  22
TORSDOF 8
ENDMDL