MODEL 4
REMARK VINA RESULT: -8.188655053      2.894      6.689
REMARK  6 active torsions:
REMARK  status: ('A' for Active; 'I' for Inactive)
REMARK    1  A    between atoms: C1_2  and  N2_4
REMARK    2  A    between atoms: N2_4  and  N3_6
REMARK    3  A    between atoms: C2_8  and  C3_9
REMARK    4  A    between atoms: C2_8  and  C12_24
REMARK    5  A    between atoms: C3_9  and  C4_10
REMARK    6  A    between atoms: N4_18  and  O1_20
ROOT
HETATM    1  C4  UNL     1      -0.881  36.970  45.571  1.00  0.00     0.088 C
HETATM    2  C5  UNL     1      -1.957  35.970  45.378  1.00  0.00     0.025 C
HETATM    3  C6  UNL     1      -1.634  34.719  44.662  1.00  0.00     0.002 C
HETATM    4  C7  UNL     1      -2.512  34.519  43.456  1.00  0.00     0.000 C
HETATM    5  C8  UNL     1      -2.540  35.678  42.516  1.00  0.00     0.000 C
HETATM    6  C9  UNL     1      -1.344  35.739  41.611  1.00  0.00     0.007 C
HETATM    7  C10 UNL     1      -0.184  36.476  42.194  1.00  0.00     0.078 C
HETATM    8  C11 UNL     1      -0.557  37.601  43.089  1.00  0.00     0.097 C
HETATM    9  N4  UNL     1      -1.093  38.619  42.444  1.00  0.00    -0.257 N
ATOM     10  H4  UNL     1      -1.375  39.429  42.996  1.00  0.00     0.195 HD
HETATM   11  N5  UNL     1      -0.412  37.717  44.467  1.00  0.00    -0.373 N
ATOM     12  H5  UNL     1       0.158  38.517  44.741  1.00  0.00     0.161 HD
ENDROOT
BRANCH   1  13
HETATM   13  C3  UNL     1       0.294  36.339  46.267  1.00  0.00     0.086 C
BRANCH  13  14
HETATM   14  C2  UNL     1       0.418  36.863  47.692  1.00  0.00     0.061 C
HETATM   15  N3  UNL     1       0.142  38.077  47.907  1.00  0.00    -0.300 N
ATOM     16  H3  UNL     1      -0.149  38.619  47.093  1.00  0.00     0.186 HD
BRANCH  15  17
HETATM   17  N2  UNL     1       0.183  38.748  49.081  1.00  0.00    -0.278 N
ATOM     18  H2  UNL     1      -0.537  38.608  49.789  1.00  0.00     0.189 HD
BRANCH  17  19
HETATM   19  C1  UNL     1       1.271  39.663  49.304  1.00  0.00     0.199 C
HETATM   20  N1  UNL     1       2.580  39.154  49.500  1.00  0.00    -0.068 NA
HETATM   21  S1  UNL     1       0.945  41.251  49.320  1.00  0.00    -0.043 SA
ENDBRANCH  17  19
ENDBRANCH  15  17
BRANCH  14  22
HETATM   22  C12 UNL     1       0.815  35.915  48.704  1.00  0.00     0.099 A
HETATM   23  C13 UNL     1       1.165  34.587  48.591  1.00  0.00     0.041 A
HETATM   24  C14 UNL     1       1.454  34.148  49.875  1.00  0.00     0.027 A
HETATM   25  C15 UNL     1       1.271  35.216  50.718  1.00  0.00     0.142 A
HETATM   26  O2  UNL     1       0.899  36.223  49.989  1.00  0.00    -0.321 OA
ENDBRANCH  14  22
ENDBRANCH  13  14
ENDBRANCH   1  13
BRANCH   9  27
HETATM   27  O1  UNL     1      -1.297  38.673  41.114  1.00  0.00    -0.288 OA
ATOM     28  H1  UNL     1      -0.613  38.722  40.457  1.00  0.00     0.244 HD
ENDBRANCH   9  27
TORSDOF 6
ENDMDL