MODEL 4
REMARK VINA RESULT: -8.210052373      2.991      7.999
REMARK  5 active torsions:
REMARK  status: ('A' for Active; 'I' for Inactive)
REMARK    1  A    between atoms: C4_7  and  C5_8
REMARK    2  A    between atoms: C5_8  and  N2_9
REMARK    3  A    between atoms: C8_12  and  N3_13
REMARK    4  A    between atoms: C19_27  and  C20_28
REMARK    5  A    between atoms: C20_28  and  C21_29
ROOT
HETATM    1  N2  UNL     1      34.753  13.808  -8.693  1.00  0.00    -0.382 N
HETATM    2  C6  UNL     1      34.092  12.882  -7.831  1.00  0.00     0.128 C
HETATM    3  C7  UNL     1      32.546  12.980  -7.877  1.00  0.00     0.073 C
HETATM    4  C8  UNL     1      32.235  12.927  -9.313  1.00  0.00     0.006 C
HETATM    5  C18 UNL     1      32.775  14.155 -10.023  1.00  0.00     0.105 C
HETATM    6  C19 UNL     1      34.321  13.974  -9.985  1.00  0.00    -0.010 C
ENDROOT
BRANCH   4   7
HETATM    7  N3  UNL     1      31.079  12.315  -9.847  1.00  0.00    -0.266 N
HETATM    8  C9  UNL     1      29.785  12.723  -9.896  1.00  0.00     0.112 A
HETATM    9  C10 UNL     1      29.035  11.722 -10.538  1.00  0.00     0.050 A
HETATM   10  C17 UNL     1      29.151  13.941  -9.438  1.00  0.00     0.178 C
HETATM   11  N4  UNL     1      29.842  10.741 -10.872  1.00  0.00    -0.305 N
HETATM   12  C13 UNL     1      27.583  11.925 -10.698  1.00  0.00     0.035 C
HETATM   13  C11 UNL     1      29.505   9.510 -11.553  1.00  0.00     0.161 C
HETATM   14  C12 UNL     1      31.049  11.070 -10.475  1.00  0.00     0.333 A
HETATM   15  O2  UNL     1      32.095  10.380 -10.617  1.00  0.00    -0.246 OA
HETATM   16  C14 UNL     1      27.165  12.465 -12.024  1.00  0.00     0.016 C
HETATM   17  C15 UNL     1      27.011  12.754  -9.596  1.00  0.00     0.018 C
HETATM   18  C16 UNL     1      27.678  14.089  -9.453  1.00  0.00     0.086 C
HETATM   19  O3  UNL     1      29.829  14.907  -9.017  1.00  0.00    -0.291 OA
ENDBRANCH   4   7
BRANCH   6  20
HETATM   20  C20 UNL     1      34.943  14.821 -10.986  1.00  0.00     0.057 C
BRANCH  20  21
HETATM   21  C21 UNL     1      34.157  16.043 -11.377  1.00  0.00    -0.009 A
HETATM   22  C22 UNL     1      34.932  17.344 -11.529  1.00  0.00     0.005 A
HETATM   23  C23 UNL     1      34.243  16.715 -12.690  1.00  0.00     0.005 A
ENDBRANCH  20  21
ENDBRANCH   6  20
BRANCH   1  24
HETATM   24  C5  UNL     1      35.478  14.810  -7.995  1.00  0.00     0.167 C
BRANCH  24  25
HETATM   25  C4  UNL     1      36.763  15.112  -8.688  1.00  0.00     0.035 A
HETATM   26  C3  UNL     1      37.451  14.055  -9.246  1.00  0.00     0.254 A
HETATM   27  N1  UNL     1      38.607  14.299  -9.877  1.00  0.00    -0.325 N
HETATM   28  O1  UNL     1      37.078  12.860  -9.212  1.00  0.00    -0.268 OA
HETATM   29  C2  UNL     1      39.078  15.558  -9.956  1.00  0.00     0.030 A
ATOM     30  H1  UNL     1      39.130  13.532 -10.299  1.00  0.00     0.169 HD
HETATM   31  C1  UNL     1      40.384  15.784 -10.638  1.00  0.00     0.070 C
HETATM   32  C26 UNL     1      38.417  16.634  -9.413  1.00  0.00     0.062 A
HETATM   33  C24 UNL     1      37.222  16.405  -8.760  1.00  0.00    -0.025 A
HETATM   34 CL1  UNL     1      39.013  18.283  -9.494  1.00  0.00    -0.082 Cl
HETATM   35  C25 UNL     1      36.475  17.561  -8.199  1.00  0.00     0.050 C
ENDBRANCH  24  25
ENDBRANCH   1  24
TORSDOF 5
ENDMDL