MODEL 4
REMARK VINA RESULT: -6.518423202      0.953      1.249
REMARK  7 active torsions:
REMARK  status: ('A' for Active; 'I' for Inactive)
REMARK    1  A    between atoms: C2_2  and  O1_4
REMARK    2  A    between atoms: O1_4  and  C4_5
REMARK    3  A    between atoms: C6_7  and  C7_8
REMARK    4  A    between atoms: C9_13  and  C10_14
REMARK    5  A    between atoms: C12_16  and  C13_17
REMARK    6  A    between atoms: C14_18  and  C15_19
REMARK       I    between atoms: C15_19  and  N2_21
REMARK    7  A    between atoms: C18_25  and  C19_26
ROOT
HETATM    1  C10 UNL     1      35.808  14.893  -9.703  1.00  0.00    -0.003 A
HETATM    2  C11 UNL     1      34.854  14.059 -10.212  1.00  0.00     0.042 A
HETATM    3  C12 UNL     1      34.036  13.422  -9.334  1.00  0.00     0.060 A
HETATM    4  S1  UNL     1      34.590  13.976  -7.832  1.00  0.00    -0.080 SA
HETATM    5  C18 UNL     1      35.867  15.017  -8.360  1.00  0.00     0.024 A
ENDROOT
BRANCH   1   6
HETATM    6  C9  UNL     1      36.644  15.666 -10.692  1.00  0.00     0.018 A
HETATM    7  C8  UNL     1      37.965  15.329 -10.856  1.00  0.00     0.142 A
HETATM    8  C6  UNL     1      38.702  16.002 -11.833  1.00  0.00     0.071 A
HETATM    9  F1  UNL     1      38.575  14.388 -10.124  1.00  0.00    -0.204 F
HETATM   10  C5  UNL     1      38.104  16.985 -12.614  1.00  0.00     0.056 A
HETATM   11  C4  UNL     1      36.784  17.323 -12.454  1.00  0.00     0.071 A
HETATM   12  C23 UNL     1      36.070  16.635 -11.470  1.00  0.00     0.052 A
BRANCH   8  13
HETATM   13  C7  UNL     1      40.103  15.693 -12.051  1.00  0.00     0.268 C
HETATM   14  N1  UNL     1      40.474  14.599 -12.853  1.00  0.00    -0.057 NA
HETATM   15  O2  UNL     1      40.979  16.401 -11.525  1.00  0.00    -0.271 OA
ENDBRANCH   8  13
BRANCH  11  16
HETATM   16  O1  UNL     1      36.174  18.291 -13.216  1.00  0.00    -0.347 OA
BRANCH  16  17
HETATM   17  C2  UNL     1      35.634  19.501 -12.833  1.00  0.00     0.120 C
HETATM   18  C1  UNL     1      36.100  20.650 -13.744  1.00  0.00     0.040 C
HETATM   19  C3  UNL     1      34.131  19.417 -12.975  1.00  0.00     0.040 C
ENDBRANCH  16  17
ENDBRANCH  11  16
ENDBRANCH   1   6
BRANCH   5  20
HETATM   20  C19 UNL     1      36.829  15.759  -7.485  1.00  0.00    -0.029 C
HETATM   21  C20 UNL     1      37.083  17.007  -7.753  1.00  0.00    -0.003 C
HETATM   22  C21 UNL     1      38.033  17.716  -6.872  1.00  0.00     0.168 C
HETATM   23  S2  UNL     1      37.724  16.763  -5.362  1.00  0.00     0.151 S
HETATM   24  O4  UNL     1      38.909  16.700  -4.487  1.00  0.00    -0.227 OA
HETATM   25  O5  UNL     1      36.459  17.175  -4.722  1.00  0.00    -0.227 OA
HETATM   26  C22 UNL     1      37.502  15.213  -6.295  1.00  0.00     0.180 C
ENDBRANCH   5  20
BRANCH   3  27
HETATM   27  C13 UNL     1      32.957  12.499  -9.608  1.00  0.00    -0.049 C
HETATM   28  C14 UNL     1      32.060  11.735  -9.858  1.00  0.00     0.001 C
BRANCH  28  29
HETATM   29  C15 UNL     1      30.976  10.821 -10.187  1.00  0.00     0.298 C
HETATM   30  O3  UNL     1      31.022   9.612  -9.805  1.00  0.00    -0.258 OA
HETATM   31  N2  UNL     1      29.877  11.256 -10.923  1.00  0.00    -0.350 N
HETATM   32  C16 UNL     1      29.795  12.626 -11.374  1.00  0.00     0.153 C
HETATM   33  C17 UNL     1      28.805  10.347 -11.248  1.00  0.00     0.153 C
ENDBRANCH  28  29
ENDBRANCH   3  27
TORSDOF 7
ENDMDL