MODEL 4
REMARK VINA RESULT: -6.531465655      2.971      5.070
REMARK  6 active torsions:
REMARK  status: ('A' for Active; 'I' for Inactive)
REMARK    1  A    between atoms: C11_12  and  C12_13
REMARK    2  A    between atoms: C14_16  and  O1_17
REMARK    3  A    between atoms: O1_17  and  C15_18
REMARK    4  A    between atoms: C15_18  and  C16_19
REMARK    5  A    between atoms: C16_19  and  N2_20
REMARK    6  A    between atoms: C21_27  and  O4_28
ROOT
HETATM    1  C1  UNL     1      27.937  16.084  -9.505  1.00  0.00     0.010 C
HETATM    2  C2  UNL     1      28.057  14.813 -10.334  1.00  0.00    -0.013 C
HETATM    3  C3  UNL     1      27.894  15.208 -11.766  1.00  0.00     0.005 C
HETATM    4  C4  UNL     1      27.510  13.969 -12.512  1.00  0.00     0.006 C
HETATM    5  C5  UNL     1      28.640  13.174 -12.997  1.00  0.00    -0.002 A
HETATM    6  C6  UNL     1      28.309  11.676 -12.882  1.00  0.00     0.014 A
HETATM    7  C7  UNL     1      28.266  10.970 -14.244  1.00  0.00     0.012 C
HETATM    8  C8  UNL     1      29.575  11.513 -12.133  1.00  0.00     0.114 A
HETATM    9  C9  UNL     1      30.492  10.630 -12.905  1.00  0.00     0.075 C
HETATM   10  N1  UNL     1      31.214   9.961 -13.513  1.00  0.00    -0.196 NA
HETATM   11  C10 UNL     1      29.849  12.995 -12.274  1.00  0.00     0.036 A
HETATM   12  C11 UNL     1      30.220  13.637 -11.006  1.00  0.00     0.038 C
HETATM   13  C14 UNL     1      31.224  12.683 -10.383  1.00  0.00     0.276 C
HETATM   14  O3  UNL     1      30.711  11.439 -10.098  1.00  0.00    -0.323 OA
HETATM   15  C21 UNL     1      29.561  11.068 -10.734  1.00  0.00     0.186 C
HETATM   16  C22 UNL     1      28.424  11.544  -9.884  1.00  0.00     0.071 C
HETATM   17  C23 UNL     1      28.754  12.789  -9.118  1.00  0.00     0.011 C
HETATM   18  C24 UNL     1      29.211  13.953  -9.997  1.00  0.00     0.007 C
ENDROOT
BRANCH  15  19
HETATM   19  O4  UNL     1      29.535   9.652 -10.734  1.00  0.00    -0.364 OA
ATOM     20  H4  UNL     1      30.320   9.350 -10.292  1.00  0.00     0.213 HD
ENDBRANCH  15  19
BRANCH  12  21
HETATM   21  C12 UNL     1      31.037  14.860 -11.309  1.00  0.00    -0.004 C
HETATM   22  C13 UNL     1      30.658  15.944 -11.907  1.00  0.00     0.053 C
HETATM   23 BR1  UNL     1      31.976  17.348 -12.145  1.00  0.00    -0.064 Br
ENDBRANCH  12  21
BRANCH  13  24
HETATM   24  O1  UNL     1      31.848  13.149  -9.261  1.00  0.00    -0.358 OA
BRANCH  24  25
HETATM   25  C15 UNL     1      32.811  12.266  -8.781  1.00  0.00     0.201 C
BRANCH  25  26
HETATM   26  C16 UNL     1      34.089  12.523  -9.582  1.00  0.00     0.298 C
BRANCH  26  27
HETATM   27  N2  UNL     1      34.929  13.520  -9.014  1.00  0.00     0.094 N
HETATM   28  C17 UNL     1      34.906  13.629  -7.590  1.00  0.00     0.298 C
HETATM   29  C18 UNL     1      35.491  14.991  -7.243  1.00  0.00     0.198 C
HETATM   30  O2  UNL     1      36.143  15.552  -8.350  1.00  0.00    -0.388 OA
HETATM   31  C19 UNL     1      37.076  14.597  -8.792  1.00  0.00     0.198 C
HETATM   32  C20 UNL     1      36.280  13.500  -9.510  1.00  0.00     0.298 C
ENDBRANCH  26  27
ENDBRANCH  25  26
ENDBRANCH  24  25
ENDBRANCH  13  24
TORSDOF 6
ENDMDL