MODEL 5
REMARK VINA RESULT: -6.004632317      1.702      2.478
REMARK  5 active torsions:
REMARK  status: ('A' for Active; 'I' for Inactive)
REMARK    1  A    between atoms: O1_2  and  C2_3
REMARK    2  A    between atoms: C7_8  and  C8_9
REMARK    3  A    between atoms: C8_9  and  C12_15
REMARK    4  A    between atoms: C15_18  and  S1_19
REMARK    5  A    between atoms: S1_19  and  N3_22
ROOT
HETATM    1  C8  UNL     1      33.026  12.635  -8.659  1.00  0.00     0.018 C
HETATM    2  C9  UNL     1      32.791  12.253  -7.373  1.00  0.00     0.136 C
HETATM    3  C10 UNL     1      31.484  11.836  -6.948  1.00  0.00     0.111 C
HETATM    4  N1  UNL     1      30.424  11.488  -6.621  1.00  0.00    -0.191 NA
HETATM    5  C11 UNL     1      33.848  12.241  -6.426  1.00  0.00     0.111 C
HETATM    6  N2  UNL     1      34.709  12.233  -5.628  1.00  0.00    -0.191 NA
ENDROOT
BRANCH   1   7
HETATM    7  C7  UNL     1      31.886  12.593  -9.568  1.00  0.00     0.011 A
HETATM    8  C2  UNL     1      30.827  13.439  -9.532  1.00  0.00     0.080 A
HETATM    9  C3  UNL     1      29.779  13.242 -10.448  1.00  0.00     0.050 A
HETATM   10  C4  UNL     1      29.815  12.219 -11.367  1.00  0.00    -0.012 A
HETATM   11  C5  UNL     1      30.879  11.346 -11.423  1.00  0.00    -0.045 A
HETATM   12  C24 UNL     1      28.770  12.058 -12.393  1.00  0.00     0.039 A
HETATM   13  C6  UNL     1      31.913  11.551 -10.512  1.00  0.00     0.023 A
HETATM   14  C20 UNL     1      30.922  10.190 -12.338  1.00  0.00     0.045 C
HETATM   15  C21 UNL     1      30.059  10.270 -13.528  1.00  0.00     0.064 C
HETATM   16  C22 UNL     1      28.865  11.094 -13.363  1.00  0.00     0.040 A
HETATM   17  N4  UNL     1      27.710  11.148 -14.107  1.00  0.00    -0.303 N
HETATM   18  N5  UNL     1      26.959  12.100 -13.611  1.00  0.00    -0.289 N
ATOM     19  H4  UNL     1      27.479  10.553 -14.903  1.00  0.00     0.186 HD
HETATM   20  C23 UNL     1      27.559  12.702 -12.549  1.00  0.00     0.131 A
ATOM     21  H5  UNL     1      26.041  12.357 -13.975  1.00  0.00     0.188 HD
HETATM   22 CL1  UNL     1      26.888  14.009 -11.611  1.00  0.00    -0.062 Cl
BRANCH   8  23
HETATM   23  O1  UNL     1      30.750  14.485  -8.631  1.00  0.00    -0.355 OA
HETATM   24  C1  UNL     1      29.586  14.785  -7.894  1.00  0.00     0.210 C
ENDBRANCH   8  23
ENDBRANCH   1   7
BRANCH   1  25
HETATM   25  C12 UNL     1      34.341  13.176  -8.895  1.00  0.00    -0.023 A
HETATM   26  C13 UNL     1      35.336  12.667  -9.658  1.00  0.00     0.014 A
HETATM   27  C14 UNL     1      36.553  13.335  -9.825  1.00  0.00     0.025 A
HETATM   28  C15 UNL     1      36.796  14.535  -9.225  1.00  0.00     0.074 A
HETATM   29  C18 UNL     1      35.790  15.078  -8.435  1.00  0.00     0.025 A
HETATM   30  C19 UNL     1      34.603  14.415  -8.279  1.00  0.00     0.014 A
BRANCH  28  31
HETATM   31  S1  UNL     1      38.337  15.316  -9.475  1.00  0.00     0.242 S
HETATM   32  O2  UNL     1      39.331  14.306  -9.991  1.00  0.00    -0.206 OA
HETATM   33  O3  UNL     1      38.841  15.736  -8.112  1.00  0.00    -0.206 OA
BRANCH  31  34
HETATM   34  N3  UNL     1      38.244  16.650 -10.543  1.00  0.00    -0.215 NA
HETATM   35  C16 UNL     1      37.832  16.210 -11.844  1.00  0.00     0.129 C
HETATM   36  C17 UNL     1      39.550  17.256 -10.641  1.00  0.00     0.129 C
ENDBRANCH  31  34
ENDBRANCH  28  31
ENDBRANCH   1  25
TORSDOF 5
ENDMDL