MODEL 2
REMARK VINA RESULT: -9.458525453      4.663      9.063
REMARK  8 active torsions:
REMARK  status: ('A' for Active; 'I' for Inactive)
REMARK    1  A    between atoms: C5_6  and  N2_7
REMARK    2  A    between atoms: N2_7  and  S1_9
REMARK    3  A    between atoms: S1_9  and  C6_12
REMARK    4  A    between atoms: C9_15  and  O3_16
REMARK    5  A    between atoms: O3_16  and  C10_17
REMARK    6  A    between atoms: C13_20  and  C14_21
REMARK    7  A    between atoms: C15_22  and  C16_23
REMARK    8  A    between atoms: N4_29  and  O4_30
ROOT
HETATM    1  N1  UNL     1      37.908  15.312  -9.505  1.00  0.00    -0.191 NA
HETATM    2  C1  UNL     1      36.966  14.741  -9.150  1.00  0.00     0.099 C
HETATM    3  C2  UNL     1      35.795  14.020  -8.713  1.00  0.00     0.047 A
HETATM    4  C3  UNL     1      34.924  13.459  -9.618  1.00  0.00     0.025 A
HETATM    5  C4  UNL     1      33.797  12.766  -9.162  1.00  0.00     0.035 A
HETATM    6  C5  UNL     1      33.542  12.637  -7.817  1.00  0.00     0.081 A
HETATM    7  C24 UNL     1      34.463  13.228  -6.946  1.00  0.00     0.145 A
HETATM    8  F1  UNL     1      34.190  13.088  -5.619  1.00  0.00    -0.204 F
HETATM    9  C25 UNL     1      35.575  13.912  -7.357  1.00  0.00     0.067 A
ENDROOT
BRANCH   6  10
HETATM   10  N2  UNL     1      32.422  11.934  -7.314  1.00  0.00    -0.278 N
ATOM     11  H2  UNL     1      32.572  11.028  -6.870  1.00  0.00     0.179 HD
BRANCH  10  12
HETATM   12  S1  UNL     1      30.832  12.540  -7.419  1.00  0.00     0.263 S
HETATM   13  O1  UNL     1      29.972  12.158  -6.229  1.00  0.00    -0.200 OA
HETATM   14  O2  UNL     1      30.835  14.052  -7.440  1.00  0.00    -0.200 OA
BRANCH  12  15
HETATM   15  C6  UNL     1      29.998  12.039  -8.869  1.00  0.00     0.080 A
HETATM   16  C7  UNL     1      30.632  11.252  -9.798  1.00  0.00     0.028 A
HETATM   17  C8  UNL     1      29.921  10.879 -10.946  1.00  0.00     0.039 A
HETATM   18  C9  UNL     1      28.624  11.283 -11.149  1.00  0.00     0.076 A
HETATM   19  C22 UNL     1      28.004  12.075 -10.198  1.00  0.00     0.039 A
HETATM   20  C23 UNL     1      28.696  12.458  -9.047  1.00  0.00     0.028 A
BRANCH  18  21
HETATM   21  O3  UNL     1      27.946  10.896 -12.298  1.00  0.00    -0.311 OA
BRANCH  21  22
HETATM   22  C10 UNL     1      28.133  11.612 -13.485  1.00  0.00     0.076 A
HETATM   23  C11 UNL     1      27.936  12.976 -13.522  1.00  0.00     0.039 A
HETATM   24  C12 UNL     1      28.136  13.625 -14.717  1.00  0.00     0.023 A
HETATM   25  C13 UNL     1      28.523  12.956 -15.869  1.00  0.00     0.018 A
HETATM   26  C20 UNL     1      28.710  11.574 -15.778  1.00  0.00     0.023 A
HETATM   27  C21 UNL     1      28.516  10.902 -14.591  1.00  0.00     0.039 A
BRANCH  25  28
HETATM   28  C14 UNL     1      28.734  13.625 -17.119  1.00  0.00    -0.060 C
HETATM   29  C15 UNL     1      28.918  14.210 -18.166  1.00  0.00    -0.039 C
BRANCH  29  30
HETATM   30  C16 UNL     1      29.116  14.906 -19.408  1.00  0.00     0.130 A
HETATM   31  C17 UNL     1      28.479  16.098 -19.692  1.00  0.00     0.129 A
HETATM   32  N3  UNL     1      28.663  16.752 -20.855  1.00  0.00    -0.371 N
HETATM   33  C18 UNL     1      29.487  16.262 -21.798  1.00  0.00     0.107 A
ATOM     34  H3  UNL     1      28.171  17.629 -21.023  1.00  0.00     0.164 HD
HETATM   35  C19 UNL     1      30.127  15.073 -21.527  1.00  0.00     0.141 A
HETATM   36  N4  UNL     1      29.942  14.420 -20.362  1.00  0.00    -0.225 N
BRANCH  36  37
HETATM   37  O4  UNL     1      30.575  13.228 -20.069  1.00  0.00    -0.282 OA
ATOM     38  H4  UNL     1      31.184  13.246 -19.340  1.00  0.00     0.245 HD
ENDBRANCH  36  37
ENDBRANCH  29  30
ENDBRANCH  25  28
ENDBRANCH  21  22
ENDBRANCH  18  21
ENDBRANCH  12  15
ENDBRANCH  10  12
ENDBRANCH   6  10
TORSDOF 8
ENDMDL