MODEL 2
REMARK VINA RESULT: -7.612995978      4.053      8.168
REMARK  6 active torsions:
REMARK  status: ('A' for Active; 'I' for Inactive)
REMARK    1  A    between atoms: C2_2  and  C3_3
REMARK    2  A    between atoms: N1_4  and  O1_6
REMARK    3  A    between atoms: O1_6  and  C4_7
REMARK    4  A    between atoms: C15_20  and  O2_21
REMARK    5  A    between atoms: O2_21  and  S1_22
REMARK    6  A    between atoms: S1_22  and  N3_23
ROOT
HETATM    1  C4  UNL     1      36.561  14.617  -6.911  1.00  0.00     0.324 C
HETATM    2  C5  UNL     1      36.792  14.197  -8.276  1.00  0.00     0.087 C
HETATM    3  N2  UNL     1      36.995  13.872  -9.369  1.00  0.00    -0.195 NA
ENDROOT
BRANCH   1   4
HETATM    4  O1  UNL     1      35.566  13.839  -6.272  1.00  0.00    -0.267 OA
BRANCH   4   5
HETATM    5  N1  UNL     1      34.299  13.741  -6.767  1.00  0.00    -0.280 N
HETATM    6  C3  UNL     1      33.712  12.602  -6.833  1.00  0.00     0.097 C
ATOM      7  H1  UNL     1      33.815  14.580  -7.088  1.00  0.00     0.193 HD
BRANCH   6   8
HETATM    8  C2  UNL     1      32.343  12.530  -7.373  1.00  0.00    -0.002 C
HETATM    9  C1  UNL     1      31.672  11.303  -6.835  1.00  0.00     0.021 C
HETATM   10  C6  UNL     1      31.551  13.742  -6.862  1.00  0.00     0.016 C
HETATM   11  C7  UNL     1      30.617  14.145  -7.985  1.00  0.00     0.007 C
HETATM   12  C8  UNL     1      30.756  13.073  -8.977  1.00  0.00    -0.001 C
HETATM   13  C9  UNL     1      30.545  13.433 -10.414  1.00  0.00    -0.005 C
HETATM   14  C19 UNL     1      32.243  12.710  -8.840  1.00  0.00    -0.028 C
HETATM   15  C10 UNL     1      29.420  14.356 -10.668  1.00  0.00     0.006 C
HETATM   16  C16 UNL     1      30.529  12.143 -11.172  1.00  0.00     0.002 C
HETATM   17  C11 UNL     1      28.270  13.803 -11.437  1.00  0.00     0.017 C
HETATM   18  C12 UNL     1      28.044  12.383 -10.899  1.00  0.00     0.069 C
HETATM   19 BR1  UNL     1      26.336  11.692 -11.355  1.00  0.00    -0.090 Br
HETATM   20  C13 UNL     1      29.183  11.572 -11.455  1.00  0.00     0.007 A
HETATM   21  C14 UNL     1      29.059  10.087 -11.524  1.00  0.00     0.048 A
HETATM   22  C15 UNL     1      28.988  10.877 -12.768  1.00  0.00     0.155 A
HETATM   23  C17 UNL     1      31.341  11.065 -10.505  1.00  0.00     0.007 C
HETATM   24  C18 UNL     1      32.498  11.549  -9.705  1.00  0.00     0.011 C
HETATM   25  C20 UNL     1      33.109  13.894  -9.230  1.00  0.00     0.016 C
BRANCH  22  26
HETATM   26  O2  UNL     1      27.790  10.891 -13.429  1.00  0.00    -0.253 OA
BRANCH  26  27
HETATM   27  S1  UNL     1      27.771  11.923 -14.750  1.00  0.00     0.355 S
HETATM   28  O3  UNL     1      28.137  11.123 -15.968  1.00  0.00    -0.176 OA
HETATM   29  O4  UNL     1      26.415  12.533 -14.861  1.00  0.00    -0.176 OA
BRANCH  27  30
HETATM   30  N3  UNL     1      28.928  13.190 -14.592  1.00  0.00    -0.306 N
ATOM     31  H32 UNL     1      29.728  13.296 -15.216  1.00  0.00     0.171 HD
ATOM     32  H31 UNL     1      28.713  13.806 -13.809  1.00  0.00     0.171 HD
ENDBRANCH  27  30
ENDBRANCH  26  27
ENDBRANCH  22  26
ENDBRANCH   6   8
ENDBRANCH   4   5
ENDBRANCH   1   4
TORSDOF 6
ENDMDL