MODEL 4
REMARK VINA RESULT: -6.998917034      4.213      7.451
REMARK  6 active torsions:
REMARK  status: ('A' for Active; 'I' for Inactive)
REMARK    1  A    between atoms: O1_2  and  C2_3
REMARK    2  A    between atoms: C5_6  and  N1_7
REMARK    3  A    between atoms: N1_7  and  S1_8
REMARK    4  A    between atoms: S1_8  and  C6_11
REMARK    5  A    between atoms: C12_19  and  C13_20
REMARK    6  A    between atoms: C18_28  and  O5_29
ROOT
HETATM    1  C2  UNL     1      35.239  15.657 -10.995  1.00  0.00     0.103 A
HETATM    2  C3  UNL     1      33.927  15.939 -11.316  1.00  0.00     0.057 A
HETATM    3  C4  UNL     1      33.537  17.063 -12.036  1.00  0.00     0.036 A
HETATM    4  C5  UNL     1      32.189  17.311 -12.340  1.00  0.00     0.136 A
HETATM    5  C11 UNL     1      31.983  18.509 -13.084  1.00  0.00     0.080 A
HETATM    6  C12 UNL     1      32.990  19.335 -13.465  1.00  0.00     0.081 A
HETATM    7  N2  UNL     1      34.255  19.028 -13.134  1.00  0.00    -0.352 N
ATOM      8  H2  UNL     1      35.012  19.649 -13.421  1.00  0.00     0.166 HD
HETATM    9  C15 UNL     1      34.545  17.909 -12.428  1.00  0.00     0.055 A
HETATM   10  C16 UNL     1      35.886  17.647 -12.116  1.00  0.00     0.002 A
HETATM   11  C17 UNL     1      36.937  18.601 -12.568  1.00  0.00     0.054 C
HETATM   12  C18 UNL     1      36.228  16.520 -11.400  1.00  0.00     0.109 A
ENDROOT
BRANCH   4  13
HETATM   13  N1  UNL     1      31.296  16.606 -12.021  1.00  0.00    -0.318 NA
BRANCH  13  14
HETATM   14  S1  UNL     1      29.864  16.121 -11.527  1.00  0.00     0.331 S
HETATM   15  O2  UNL     1      29.731  15.946 -10.002  1.00  0.00    -0.186 OA
HETATM   16  O3  UNL     1      28.659  16.953 -11.939  1.00  0.00    -0.186 OA
BRANCH  14  17
HETATM   17  C6  UNL     1      29.559  14.444 -12.113  1.00  0.00     0.135 A
HETATM   18  C7  UNL     1      29.061  14.086 -13.333  1.00  0.00     0.042 A
HETATM   19  C8  UNL     1      28.911  12.758 -13.565  1.00  0.00    -0.036 A
HETATM   20  C9  UNL     1      28.368  12.198 -14.880  1.00  0.00     0.050 C
HETATM   21  C10 UNL     1      29.275  11.912 -12.553  1.00  0.00     0.059 A
HETATM   22 BR1  UNL     1      29.188   9.984 -12.557  1.00  0.00    -0.042 Br
HETATM   23  S2  UNL     1      29.805  12.964 -11.327  1.00  0.00    -0.068 SA
ENDBRANCH  14  17
ENDBRANCH  13  14
ENDBRANCH   4  13
BRANCH   6  24
HETATM   24  C13 UNL     1      32.685  20.540 -14.223  1.00  0.00     0.172 C
HETATM   25  C14 UNL     1      32.541  20.483 -15.701  1.00  0.00     0.098 C
HETATM   26  O4  UNL     1      32.548  21.618 -13.611  1.00  0.00    -0.291 OA
ENDBRANCH   6  24
BRANCH   1  27
HETATM   27  O1  UNL     1      35.605  14.531 -10.277  1.00  0.00    -0.353 OA
HETATM   28  C1  UNL     1      34.675  13.571  -9.846  1.00  0.00     0.210 C
ENDBRANCH   1  27
BRANCH  12  29
HETATM   29  O5  UNL     1      37.563  16.308 -11.118  1.00  0.00    -0.352 OA
HETATM   30  C19 UNL     1      38.396  15.455 -11.907  1.00  0.00     0.210 C
ENDBRANCH  12  29
TORSDOF 6
ENDMDL