MODEL 4
REMARK VINA RESULT: -8.304317182      0.148      1.171
REMARK  7 active torsions:
REMARK  status: ('A' for Active; 'I' for Inactive)
REMARK    1  A    between atoms: N1_1  and  S1_4
REMARK    2  A    between atoms: S1_4  and  C1_7
REMARK    3  A    between atoms: C4_10  and  C5_11
REMARK    4  A    between atoms: C6_12  and  C7_13
REMARK    5  A    between atoms: C14_22  and  C15_23
REMARK    6  A    between atoms: C18_26  and  C19_27
REMARK    7  A    between atoms: C19_27  and  N2_28
ROOT
HETATM    1  C5  UNL     1      35.450  14.857  -7.369  1.00  0.00     0.123 A
HETATM    2  C6  UNL     1      35.281  14.642  -8.647  1.00  0.00     0.123 A
HETATM    3  O3  UNL     1      34.116  13.885  -8.801  1.00  0.00    -0.284 OA
HETATM    4  C13 UNL     1      33.552  13.629  -7.564  1.00  0.00     0.192 A
HETATM    5  C14 UNL     1      32.447  12.945  -7.278  1.00  0.00     0.075 C
HETATM    6  O6  UNL     1      34.395  14.244  -6.663  1.00  0.00    -0.284 OA
ENDROOT
BRANCH   1   7
HETATM    7  C4  UNL     1      36.506  15.586  -6.676  1.00  0.00     0.001 A
HETATM    8  C3  UNL     1      36.447  16.940  -6.434  1.00  0.00     0.016 A
HETATM    9  C2  UNL     1      37.482  17.589  -5.757  1.00  0.00     0.026 A
HETATM   10  C1  UNL     1      38.579  16.894  -5.318  1.00  0.00     0.079 A
HETATM   11  C23 UNL     1      38.643  15.543  -5.555  1.00  0.00     0.026 A
HETATM   12  C22 UNL     1      37.611  14.907  -6.228  1.00  0.00     0.016 A
BRANCH  10  13
HETATM   13  S1  UNL     1      39.903  17.720  -4.478  1.00  0.00     0.256 S
HETATM   14  O1  UNL     1      40.013  19.146  -4.860  1.00  0.00    -0.201 OA
HETATM   15  O2  UNL     1      41.185  16.963  -4.801  1.00  0.00    -0.201 OA
BRANCH  13  16
HETATM   16  N1  UNL     1      39.649  17.496  -2.772  1.00  0.00    -0.324 N
ATOM     17  H12 UNL     1      40.416  17.462  -2.100  1.00  0.00     0.169 HD
ATOM     18  H11 UNL     1      38.663  17.406  -2.528  1.00  0.00     0.169 HD
ENDBRANCH  13  16
ENDBRANCH  10  13
ENDBRANCH   1   7
BRANCH   2  19
HETATM   19  C7  UNL     1      36.156  15.109  -9.734  1.00  0.00     0.001 A
HETATM   20  C8  UNL     1      37.337  14.436  -9.939  1.00  0.00     0.016 A
HETATM   21  C9  UNL     1      38.203  14.809 -10.956  1.00  0.00     0.024 A
HETATM   22  C10 UNL     1      37.883  15.877 -11.788  1.00  0.00     0.034 A
HETATM   23 CL1  UNL     1      38.987  16.343 -13.075  1.00  0.00    -0.084 Cl
HETATM   24  C11 UNL     1      36.699  16.558 -11.591  1.00  0.00     0.024 A
HETATM   25  C12 UNL     1      35.855  16.159 -10.564  1.00  0.00     0.016 A
ENDBRANCH   2  19
BRANCH   5  26
HETATM   26  C15 UNL     1      31.670  12.361  -8.332  1.00  0.00    -0.032 A
HETATM   27  C16 UNL     1      32.253  11.523  -9.243  1.00  0.00     0.012 A
HETATM   28  C17 UNL     1      31.481  10.941 -10.274  1.00  0.00     0.014 A
HETATM   29  C18 UNL     1      30.156  11.201 -10.376  1.00  0.00    -0.015 A
HETATM   30  C20 UNL     1      29.598  12.053  -9.435  1.00  0.00     0.014 A
HETATM   31  C21 UNL     1      30.333  12.623  -8.435  1.00  0.00     0.012 A
BRANCH  29  32
HETATM   32  C19 UNL     1      29.312  10.669 -11.402  1.00  0.00     0.178 C
BRANCH  32  33
HETATM   33  N2  UNL     1      29.010  11.211 -12.498  1.00  0.00    -0.127 N
HETATM   34  O4  UNL     1      29.482  12.388 -12.997  1.00  0.00    -0.532 OA
HETATM   35  O5  UNL     1      28.086  10.567 -13.330  1.00  0.00    -0.532 OA
ENDBRANCH  32  33
ENDBRANCH  29  32
ENDBRANCH   5  26
TORSDOF 7
ENDMDL