MODEL 3
REMARK VINA RESULT: -9.218594680      0.994      1.652
REMARK  6 active torsions:
REMARK  status: ('A' for Active; 'I' for Inactive)
REMARK    1  A    between atoms: C2_2  and  N1_3
REMARK    2  A    between atoms: N1_3  and  C3_5
REMARK    3  A    between atoms: C7_12  and  N3_13
REMARK    4  A    between atoms: N4_18  and  C12_19
REMARK    5  A    between atoms: C12_19  and  C13_20
REMARK    6  A    between atoms: C13_20  and  N5_21
ROOT
HETATM    1  N3  UNL     1      32.334  12.801  -9.005  1.00  0.00    -0.376 N
HETATM    2  C8  UNL     1      32.420  13.305  -7.631  1.00  0.00     0.130 C
HETATM    3  C9  UNL     1      33.655  12.578  -7.127  1.00  0.00     0.040 C
HETATM    4  C10 UNL     1      34.287  13.434  -6.076  1.00  0.00     0.038 C
HETATM    5  C11 UNL     1      35.105  14.474  -6.840  1.00  0.00     0.274 C
HETATM    6  N4  UNL     1      35.054  14.090  -8.216  1.00  0.00     0.099 N
HETATM    7  C24 UNL     1      34.595  12.754  -8.307  1.00  0.00     0.246 C
HETATM    8  C25 UNL     1      33.651  12.460  -9.458  1.00  0.00     0.159 C
ENDROOT
BRANCH   1   9
HETATM    9  C7  UNL     1      31.094  12.717  -9.677  1.00  0.00     0.072 A
HETATM   10  C6  UNL     1      30.021  12.110  -9.066  1.00  0.00     0.145 A
HETATM   11  C5  UNL     1      28.795  12.021  -9.717  1.00  0.00     0.077 A
HETATM   12  F1  UNL     1      30.196  11.612  -7.818  1.00  0.00    -0.204 F
HETATM   13  C4  UNL     1      28.648  12.545 -10.990  1.00  0.00     0.072 A
HETATM   14  N2  UNL     1      27.631  12.625 -11.867  1.00  0.00    -0.320 N
HETATM   15  C27 UNL     1      29.709  13.163 -11.634  1.00  0.00     0.108 A
HETATM   16  C3  UNL     1      28.044  13.260 -12.995  1.00  0.00     0.225 A
ATOM     17  H2  UNL     1      26.690  12.263 -11.708  1.00  0.00     0.169 HD
HETATM   18  O2  UNL     1      29.293  13.558 -12.801  1.00  0.00    -0.277 OA
HETATM   19  C26 UNL     1      30.910  13.235 -10.964  1.00  0.00     0.072 A
BRANCH  16  20
HETATM   20  N1  UNL     1      27.319  13.506 -14.040  1.00  0.00    -0.356 N
ATOM     21  H1  UNL     1      26.402  13.928 -13.894  1.00  0.00     0.163 HD
BRANCH  20  22
HETATM   22  C2  UNL     1      27.719  13.225 -15.382  1.00  0.00     0.118 C
HETATM   23  C1  UNL     1      28.296  11.829 -15.436  1.00  0.00     0.026 C
ENDBRANCH  20  22
ENDBRANCH  16  20
ENDBRANCH   1   9
BRANCH   6  24
HETATM   24  C12 UNL     1      36.275  14.380  -8.891  1.00  0.00     0.317 C
BRANCH  24  25
HETATM   25  C13 UNL     1      36.579  15.799  -9.185  1.00  0.00     0.093 C
BRANCH  25  26
HETATM   26  N5  UNL     1      36.636  16.263 -10.505  1.00  0.00    -0.372 N
HETATM   27  C14 UNL     1      35.486  16.281 -11.310  1.00  0.00     0.067 C
HETATM   28  C15 UNL     1      34.832  17.568 -11.620  1.00  0.00     0.095 C
HETATM   29  C16 UNL     1      35.743  18.775 -11.658  1.00  0.00     0.118 C
HETATM   30  C17 UNL     1      36.537  19.002 -12.811  1.00  0.00    -0.145 C
HETATM   31  O1  UNL     1      34.886  19.900 -11.395  1.00  0.00    -0.368 OA
HETATM   32  C22 UNL     1      36.535  18.636 -10.338  1.00  0.00     0.071 C
HETATM   33  C18 UNL     1      37.153  19.500 -13.984  1.00  0.00     0.083 C
HETATM   34  C19 UNL     1      36.501  20.874 -14.332  1.00  0.00     0.013 C
HETATM   35  C20 UNL     1      35.769  21.461 -13.124  1.00  0.00     0.027 C
HETATM   36  C21 UNL     1      34.699  20.731 -12.481  1.00  0.00     0.170 C
HETATM   37  C23 UNL     1      37.453  17.460 -10.586  1.00  0.00     0.131 C
ENDBRANCH  25  26
ENDBRANCH  24  25
ENDBRANCH   6  24
TORSDOF 6
ENDMDL