MODEL 5
REMARK VINA RESULT: -7.066249105      4.605     10.103
REMARK  7 active torsions:
REMARK  status: ('A' for Active; 'I' for Inactive)
REMARK    1  A    between atoms: C3_3  and  C4_4
REMARK    2  A    between atoms: C5_5  and  C6_6
REMARK    3  A    between atoms: C13_15  and  O3_16
REMARK    4  A    between atoms: C16_21  and  C18_23
REMARK    5  A    between atoms: C18_23  and  O4_24
REMARK    6  A    between atoms: O4_24  and  C19_25
REMARK    7  A    between atoms: N1_31  and  C24_32
ROOT
HETATM    1  C6  UNL     1      34.472  13.855  -7.887  1.00  0.00    -0.015 C
HETATM    2  C7  UNL     1      34.987  14.533  -8.937  1.00  0.00     0.033 C
HETATM    3  C8  UNL     1      36.274  15.195  -9.263  1.00  0.00     0.171 A
HETATM    4  O1  UNL     1      36.576  14.795 -10.543  1.00  0.00    -0.334 OA
HETATM    5  C9  UNL     1      37.430  14.241  -9.670  1.00  0.00     0.305 A
HETATM    6  O2  UNL     1      37.261  13.854  -8.361  1.00  0.00    -0.335 OA
HETATM    7  C10 UNL     1      37.144  15.248  -8.142  1.00  0.00     0.167 A
HETATM    8  C11 UNL     1      38.337  15.959  -7.849  1.00  0.00    -0.014 A
HETATM    9  C12 UNL     1      37.838  16.335  -6.690  1.00  0.00    -0.019 A
HETATM   10  C13 UNL     1      36.571  15.669  -6.837  1.00  0.00     0.141 A
HETATM   11  C14 UNL     1      36.256  14.392  -6.162  1.00  0.00     0.043 C
HETATM   12  C15 UNL     1      35.282  13.607  -6.700  1.00  0.00     0.043 C
HETATM   13 CL1  UNL     1      35.031  12.105  -5.894  1.00  0.00    -0.084 Cl
HETATM   14  C16 UNL     1      38.643  17.189  -5.791  1.00  0.00     0.030 C
HETATM   15  C17 UNL     1      38.111  17.106  -4.345  1.00  0.00     0.025 C
HETATM   16  C21 UNL     1      40.071  16.799  -5.799  1.00  0.00     0.034 C
HETATM   17  C22 UNL     1      40.968  17.915  -5.224  1.00  0.00     0.039 C
HETATM   18  C23 UNL     1      40.268  15.645  -4.804  1.00  0.00     0.039 C
HETATM   19  N1  UNL     1      40.598  16.467  -7.055  1.00  0.00    -0.395 N
HETATM   20  C27 UNL     1      39.704  16.436  -8.160  1.00  0.00     0.156 C
ENDROOT
BRANCH  14  21
HETATM   21  C18 UNL     1      38.410  18.662  -6.155  1.00  0.00     0.195 C
BRANCH  21  22
HETATM   22  O4  UNL     1      37.091  18.800  -6.713  1.00  0.00    -0.321 OA
BRANCH  22  23
HETATM   23  C19 UNL     1      36.909  19.578  -7.838  1.00  0.00     0.254 C
HETATM   24  C20 UNL     1      36.789  19.045  -9.203  1.00  0.00     0.126 C
HETATM   25  O5  UNL     1      36.843  20.840  -7.662  1.00  0.00    -0.266 OA
ENDBRANCH  22  23
ENDBRANCH  21  22
ENDBRANCH  14  21
BRANCH  10  26
HETATM   26  O3  UNL     1      35.427  16.466  -6.900  1.00  0.00    -0.377 OA
ATOM     27  H3  UNL     1      34.926  16.539  -6.096  1.00  0.00     0.211 HD
ENDBRANCH  10  26
BRANCH  19  28
HETATM   28  C24 UNL     1      41.563  15.393  -7.054  1.00  0.00     0.080 A
HETATM   29  C25 UNL     1      42.163  14.993  -8.361  1.00  0.00     0.027 A
HETATM   30  C26 UNL     1      43.002  15.808  -7.409  1.00  0.00     0.027 A
ENDBRANCH  19  28
BRANCH   1  31
HETATM   31  C5  UNL     1      33.126  13.372  -8.011  1.00  0.00     0.013 C
HETATM   32  C4  UNL     1      32.172  13.426  -7.126  1.00  0.00     0.001 C
BRANCH  32  33
HETATM   33  C3  UNL     1      30.841  12.837  -7.508  1.00  0.00    -0.004 C
HETATM   34  C2  UNL     1      30.272  13.238  -8.619  1.00  0.00    -0.031 C
HETATM   35  C1  UNL     1      28.966  12.730  -9.098  1.00  0.00     0.036 C
ENDBRANCH  32  33
ENDBRANCH   1  31
TORSDOF 7
ENDMDL