MODEL 4
REMARK VINA RESULT: -9.027392997      0.928      1.324
REMARK  7 active torsions:
REMARK  status: ('A' for Active; 'I' for Inactive)
REMARK    1  A    between atoms: C2_2  and  C3_3
REMARK       I    between atoms: C3_3  and  N1_5
REMARK    2  A    between atoms: C6_8  and  C7_9
REMARK       I    between atoms: C7_9  and  N2_11
REMARK    3  A    between atoms: N2_11  and  C8_13
REMARK    4  A    between atoms: C13_18  and  N3_19
REMARK    5  A    between atoms: N3_19  and  C14_20
REMARK    6  A    between atoms: N3_19  and  C16_22
REMARK    7  A    between atoms: C16_22  and  C19_25
ROOT
HETATM    1  C8  UNL     1     170.978  30.301 180.539  1.00  0.00     0.130 C
HETATM    2  C9  UNL     1     170.619  29.635 179.162  1.00  0.00     0.031 C
HETATM    3  C10 UNL     1     171.949  29.283 178.525  1.00  0.00     0.003 C
HETATM    4  C11 UNL     1     173.085  30.115 179.076  1.00  0.00     0.006 C
HETATM    5  C12 UNL     1     172.572  31.561 179.182  1.00  0.00     0.054 C
HETATM    6  C13 UNL     1     171.416  31.664 180.171  1.00  0.00     0.008 C
ENDROOT
BRANCH   1   7
HETATM    7  N2  UNL     1     169.746  30.189 181.274  1.00  0.00    -0.351 N
HETATM    8  C7  UNL     1     169.643  29.376 182.448  1.00  0.00     0.222 C
HETATM    9  O2  UNL     1     170.693  28.754 182.802  1.00  0.00    -0.273 OA
ATOM     10  H2  UNL     1     168.926  30.702 180.951  1.00  0.00     0.163 HD
BRANCH   8  11
HETATM   11  C6  UNL     1     168.431  29.219 183.249  1.00  0.00     0.081 C
HETATM   12  C5  UNL     1     167.314  28.727 182.334  1.00  0.00     0.034 C
HETATM   13  C4  UNL     1     166.071  28.388 183.103  1.00  0.00     0.126 C
HETATM   14  N1  UNL     1     166.121  28.891 184.478  1.00  0.00    -0.352 N
HETATM   15  C3  UNL     1     165.527  28.093 185.486  1.00  0.00     0.219 C
HETATM   16  C22 UNL     1     166.749  30.153 184.766  1.00  0.00     0.126 C
HETATM   17  O1  UNL     1     164.984  26.990 185.152  1.00  0.00    -0.273 OA
HETATM   18  C21 UNL     1     167.949  30.470 183.930  1.00  0.00     0.034 C
BRANCH  15  19
HETATM   19  C2  UNL     1     165.513  28.501 186.920  1.00  0.00     0.098 C
HETATM   20  C1  UNL     1     164.419  27.717 187.635  1.00  0.00     0.014 C
ENDBRANCH  15  19
ENDBRANCH   8  11
ENDBRANCH   1   7
BRANCH   6  21
HETATM   21  N3  UNL     1     171.415  32.720 181.058  1.00  0.00    -0.377 N
BRANCH  21  22
HETATM   22  C14 UNL     1     171.937  32.374 182.342  1.00  0.00     0.119 C
HETATM   23  C15 UNL     1     173.400  32.699 182.543  1.00  0.00     0.026 C
ENDBRANCH  21  22
BRANCH  21  24
HETATM   24  C16 UNL     1     170.595  33.847 181.024  1.00  0.00     0.024 C
HETATM   25  C17 UNL     1     171.275  35.201 181.129  1.00  0.00     0.038 C
HETATM   26  C18 UNL     1     169.882  33.884 179.680  1.00  0.00     0.038 C
BRANCH  24  27
HETATM   27  C19 UNL     1     169.494  33.842 182.063  1.00  0.00     0.026 C
HETATM   28  C20 UNL     1     168.428  34.881 181.863  1.00  0.00     0.007 C
ENDBRANCH  24  27
ENDBRANCH  21  24
ENDBRANCH   6  21
TORSDOF 7
ENDMDL