MODEL 4
REMARK VINA RESULT: -9.716979396      3.851      9.106
REMARK  6 active torsions:
REMARK  status: ('A' for Active; 'I' for Inactive)
REMARK    1  A    between atoms: C2_2  and  C3_3
REMARK    2  A    between atoms: C3_3  and  S1_4
REMARK    3  A    between atoms: S1_4  and  N1_7
REMARK    4  A    between atoms: C6_10  and  C7_11
REMARK       I    between atoms: C7_11  and  N2_13
REMARK    5  A    between atoms: N2_13  and  C8_15
REMARK    6  A    between atoms: C12_19  and  C13_20
ROOT
HETATM    1  C7  UNL     1     169.847  29.249 181.625  1.00  0.00     0.222 C
HETATM    2  O3  UNL     1     170.242  28.263 182.332  1.00  0.00    -0.273 OA
HETATM    3  N2  UNL     1     168.863  30.143 182.128  1.00  0.00    -0.356 N
ATOM      4  H2  UNL     1     168.562  30.924 181.545  1.00  0.00     0.162 HD
ENDROOT
BRANCH   1   5
HETATM    5  C6  UNL     1     170.460  29.392 180.293  1.00  0.00     0.080 C
HETATM    6  C5  UNL     1     170.629  30.830 179.864  1.00  0.00     0.029 C
HETATM    7  C4  UNL     1     172.058  31.150 179.462  1.00  0.00     0.108 C
HETATM    8  N1  UNL     1     172.596  30.249 178.489  1.00  0.00    -0.211 NA
HETATM    9  C20 UNL     1     172.247  28.888 178.732  1.00  0.00     0.108 C
HETATM   10  C19 UNL     1     171.796  28.710 180.189  1.00  0.00     0.029 C
BRANCH   8  11
HETATM   11  S1  UNL     1     172.229  30.789 176.915  1.00  0.00     0.211 S
HETATM   12  O1  UNL     1     173.325  30.530 175.936  1.00  0.00    -0.211 OA
HETATM   13  O2  UNL     1     171.012  30.024 176.425  1.00  0.00    -0.211 OA
BRANCH  11  14
HETATM   14  C3  UNL     1     171.799  32.506 176.871  1.00  0.00     0.157 C
BRANCH  14  15
HETATM   15  C2  UNL     1     171.798  33.047 175.459  1.00  0.00     0.012 C
HETATM   16  C1  UNL     1     171.797  34.559 175.544  1.00  0.00     0.006 C
ENDBRANCH  14  15
ENDBRANCH  11  14
ENDBRANCH   8  11
ENDBRANCH   1   5
BRANCH   3  17
HETATM   17  C8  UNL     1     168.277  29.982 183.436  1.00  0.00     0.088 C
HETATM   18  C9  UNL     1     168.280  31.267 184.225  1.00  0.00     0.026 C
HETATM   19  C10 UNL     1     166.935  31.319 184.871  1.00  0.00     0.002 C
HETATM   20  C11 UNL     1     166.028  30.678 183.871  1.00  0.00     0.007 C
HETATM   21  C12 UNL     1     166.855  29.488 183.372  1.00  0.00     0.012 C
BRANCH  21  22
HETATM   22  C13 UNL     1     166.571  28.352 184.325  1.00  0.00    -0.009 C
HETATM   23  C14 UNL     1     167.277  27.081 183.973  1.00  0.00     0.005 C
HETATM   24  C15 UNL     1     166.793  26.020 184.967  1.00  0.00     0.000 C
HETATM   25  C16 UNL     1     165.325  25.764 184.845  1.00  0.00     0.000 C
HETATM   26  C17 UNL     1     164.700  26.730 183.881  1.00  0.00     0.000 C
HETATM   27  C18 UNL     1     165.082  28.127 184.332  1.00  0.00     0.005 C
ENDBRANCH  21  22
ENDBRANCH   3  17
TORSDOF 6
ENDMDL