MODEL 4
REMARK VINA RESULT: -9.417409077      2.645      8.996
REMARK  6 active torsions:
REMARK  status: ('A' for Active; 'I' for Inactive)
REMARK    1  A    between atoms: C1_2  and  C2_3
REMARK       I    between atoms: C1_2  and  N2_13
REMARK    2  A    between atoms: C2_3  and  C3_4
REMARK    3  A    between atoms: C3_4  and  C4_5
REMARK    4  A    between atoms: C4_5  and  C5_6
REMARK    5  A    between atoms: C5_6  and  N1_7
REMARK       I    between atoms: N3_18  and  C14_19
REMARK    6  A    between atoms: C14_19  and  C15_21
ROOT
HETATM    1  O1  UNL     1     166.875  27.958 182.461  1.00  0.00    -0.273 OA
HETATM    2  C1  UNL     1     167.942  27.874 183.106  1.00  0.00     0.223 C
HETATM    3  N2  UNL     1     169.117  28.580 182.812  1.00  0.00    -0.317 N
ATOM      4  H2  UNL     1     169.745  28.698 183.607  1.00  0.00     0.170 HD
HETATM    5  C11 UNL     1     169.535  29.092 181.748  1.00  0.00     0.082 C
HETATM    6  C12 UNL     1     168.890  29.107 180.431  1.00  0.00     0.096 C
HETATM    7  C13 UNL     1     169.914  28.612 179.420  1.00  0.00     0.135 C
HETATM    8  N3  UNL     1     170.989  29.595 179.431  1.00  0.00    -0.335 N
HETATM    9  C14 UNL     1     171.315  30.244 178.222  1.00  0.00     0.225 C
HETATM   10  O2  UNL     1     170.651  29.982 177.153  1.00  0.00    -0.273 OA
HETATM   11  C21 UNL     1     171.671  29.896 180.639  1.00  0.00     0.250 C
HETATM   12  N4  UNL     1     170.810  29.754 181.815  1.00  0.00    -0.363 N
ATOM     13  H4  UNL     1     171.123  30.137 182.707  1.00  0.00     0.162 HD
ENDROOT
BRANCH   2  14
HETATM   14  C2  UNL     1     167.982  26.964 184.266  1.00  0.00     0.103 C
BRANCH  14  15
HETATM   15  C3  UNL     1     166.835  26.014 184.235  1.00  0.00     0.011 C
BRANCH  15  16
HETATM   16  C4  UNL     1     165.946  26.005 185.434  1.00  0.00     0.031 C
BRANCH  16  17
HETATM   17  C5  UNL     1     164.746  26.894 185.164  1.00  0.00     0.272 C
BRANCH  17  18
HETATM   18  N1  UNL     1     164.530  27.817 186.249  1.00  0.00     0.088 N
HETATM   19  C6  UNL     1     165.607  28.790 186.260  1.00  0.00     0.272 C
HETATM   20  C7  UNL     1     165.236  29.912 185.318  1.00  0.00     0.030 C
HETATM   21  C8  UNL     1     164.096  30.733 185.915  1.00  0.00     0.003 C
HETATM   22  C9  UNL     1     163.127  29.815 186.640  1.00  0.00     0.030 C
HETATM   23  C10 UNL     1     163.226  28.399 186.117  1.00  0.00     0.272 C
ENDBRANCH  17  18
ENDBRANCH  16  17
ENDBRANCH  15  16
ENDBRANCH  14  15
ENDBRANCH   2  14
BRANCH   9  24
HETATM   24  C15 UNL     1     172.418  31.240 178.134  1.00  0.00     0.078 C
HETATM   25  C16 UNL     1     172.472  31.794 176.718  1.00  0.00     0.014 C
HETATM   26  C17 UNL     1     173.016  30.856 175.704  1.00  0.00     0.001 C
HETATM   27  C18 UNL     1     174.104  29.950 176.162  1.00  0.00     0.000 C
HETATM   28  C19 UNL     1     173.943  29.425 177.555  1.00  0.00     0.001 C
HETATM   29  C20 UNL     1     173.751  30.597 178.479  1.00  0.00     0.014 C
ENDBRANCH   9  24
TORSDOF 6
ENDMDL