MODEL 2
REMARK VINA RESULT: -9.884918194      1.960      6.424
REMARK  6 active torsions:
REMARK  status: ('A' for Active; 'I' for Inactive)
REMARK    1  A    between atoms: C2_2  and  N1_3
REMARK    2  A    between atoms: N1_3  and  C3_4
REMARK       I    between atoms: N1_3  and  C9_10
REMARK    3  A    between atoms: C3_4  and  C4_5
REMARK       I    between atoms: C9_10  and  N2_12
REMARK    4  A    between atoms: C10_14  and  C11_15
REMARK    5  A    between atoms: C11_15  and  C12_17
REMARK       I    between atoms: C12_17  and  N3_19
REMARK    6  A    between atoms: N3_19  and  C13_21
ROOT
HETATM    1  C11 UNL     1     166.960  32.310 185.964  1.00  0.00     0.254 C
HETATM    2  O2  UNL     1     167.259  32.916 187.018  1.00  0.00    -0.281 OA
ENDROOT
BRANCH   1   3
HETATM    3  C10 UNL     1     167.342  32.883 184.690  1.00  0.00     0.153 C
HETATM    4  N2  UNL     1     168.554  32.744 184.287  1.00  0.00    -0.315 N
HETATM    5  C9  UNL     1     168.961  33.289 183.050  1.00  0.00     0.322 C
ATOM      6  H2  UNL     1     169.225  32.236 184.863  1.00  0.00     0.170 HD
HETATM    7  N1  UNL     1     170.074  32.745 182.376  1.00  0.00    -0.334 N
HETATM    8  O1  UNL     1     168.295  34.266 182.582  1.00  0.00    -0.247 OA
BRANCH   7   9
HETATM    9  C2  UNL     1     170.394  33.344 181.076  1.00  0.00     0.123 C
HETATM   10  C1  UNL     1     171.458  34.390 181.198  1.00  0.00     0.026 C
ENDBRANCH   7   9
BRANCH   7  11
HETATM   11  C3  UNL     1     170.894  31.684 182.908  1.00  0.00     0.132 C
BRANCH  11  12
HETATM   12  C4  UNL     1     170.719  30.444 182.115  1.00  0.00     0.004 C
HETATM   13  C5  UNL     1     170.775  29.189 183.014  1.00  0.00     0.006 C
HETATM   14  C6  UNL     1     170.696  28.108 181.940  1.00  0.00     0.000 C
HETATM   15  C7  UNL     1     171.478  28.669 180.795  1.00  0.00     0.000 C
HETATM   16  C8  UNL     1     171.842  30.104 181.173  1.00  0.00     0.006 C
ENDBRANCH  11  12
ENDBRANCH   7  11
ENDBRANCH   1   3
BRANCH   1  17
HETATM   17  C12 UNL     1     166.239  31.049 186.043  1.00  0.00     0.293 C
HETATM   18  O3  UNL     1     165.185  30.929 186.719  1.00  0.00    -0.264 OA
HETATM   19  N3  UNL     1     166.722  29.925 185.346  1.00  0.00    -0.349 N
ATOM     20  H3  UNL     1     167.574  30.003 184.790  1.00  0.00     0.163 HD
BRANCH  19  21
HETATM   21  C13 UNL     1     166.027  28.671 185.410  1.00  0.00     0.093 C
HETATM   22  C14 UNL     1     165.043  28.609 184.237  1.00  0.00     0.009 C
HETATM   23  C15 UNL     1     165.770  28.565 182.915  1.00  0.00     0.011 C
HETATM   24  C19 UNL     1     164.224  27.365 184.424  1.00  0.00     0.011 C
HETATM   25  C16 UNL     1     166.682  27.360 182.881  1.00  0.00    -0.013 C
HETATM   26  C17 UNL     1     165.815  26.135 183.038  1.00  0.00     0.009 C
HETATM   27  C22 UNL     1     167.675  27.426 183.994  1.00  0.00     0.011 C
HETATM   28  C18 UNL     1     165.135  26.157 184.375  1.00  0.00    -0.013 C
HETATM   29  C20 UNL     1     166.151  26.231 185.478  1.00  0.00     0.011 C
HETATM   30  C21 UNL     1     166.967  27.492 185.312  1.00  0.00     0.009 C
ENDBRANCH  19  21
ENDBRANCH   1  17
TORSDOF 6
ENDMDL