MODEL 2
REMARK VINA RESULT: -10.128172689      1.915      2.804
REMARK  6 active torsions:
REMARK  status: ('A' for Active; 'I' for Inactive)
REMARK    1  A    between atoms: C1_2  and  C2_3
REMARK       I    between atoms: C1_2  and  N3_20
REMARK    2  A    between atoms: C2_3  and  C3_4
REMARK    3  A    between atoms: C3_4  and  C4_5
REMARK    4  A    between atoms: C4_5  and  N1_6
REMARK    5  A    between atoms: C7_9  and  C8_10
REMARK       I    between atoms: C8_10  and  N2_12
REMARK    6  A    between atoms: N3_20  and  C16_22
ROOT
HETATM    1  N1  UNL     1     170.752  28.771 182.028  1.00  0.00    -0.393 N
HETATM    2  C5  UNL     1     170.303  27.839 183.040  1.00  0.00     0.122 C
HETATM    3  C6  UNL     1     168.946  28.354 183.550  1.00  0.00     0.034 C
HETATM    4  C7  UNL     1     168.005  28.116 182.359  1.00  0.00     0.084 C
HETATM    5  C14 UNL     1     168.418  29.175 181.358  1.00  0.00     0.058 C
HETATM    6  C15 UNL     1     169.853  28.967 180.969  1.00  0.00     0.059 C
ENDROOT
BRANCH   1   7
HETATM    7  C4  UNL     1     171.404  29.913 182.589  1.00  0.00     0.122 C
BRANCH   7   8
HETATM    8  C3  UNL     1     170.511  31.108 182.779  1.00  0.00     0.029 C
BRANCH   8   9
HETATM    9  C2  UNL     1     170.857  32.306 181.972  1.00  0.00     0.104 C
BRANCH   9  10
HETATM   10  C1  UNL     1     171.895  32.144 180.960  1.00  0.00     0.217 C
HETATM   11  O1  UNL     1     173.105  32.346 181.218  1.00  0.00    -0.274 OA
HETATM   12  N3  UNL     1     171.565  31.748 179.640  1.00  0.00    -0.356 N
ATOM     13  H3  UNL     1     170.584  31.580 179.412  1.00  0.00     0.162 HD
BRANCH  12  14
HETATM   14  C16 UNL     1     172.557  31.573 178.603  1.00  0.00     0.084 C
HETATM   15  C17 UNL     1     172.089  32.093 177.272  1.00  0.00     0.025 C
HETATM   16  C18 UNL     1     171.991  31.047 176.203  1.00  0.00     0.002 C
HETATM   17  C19 UNL     1     173.317  30.663 175.620  1.00  0.00     0.000 C
HETATM   18  C20 UNL     1     174.008  29.554 176.357  1.00  0.00     0.000 C
HETATM   19  C21 UNL     1     174.292  29.977 177.780  1.00  0.00     0.002 C
HETATM   20  C22 UNL     1     173.001  30.145 178.569  1.00  0.00     0.025 C
ENDBRANCH  12  14
ENDBRANCH   9  10
ENDBRANCH   8   9
ENDBRANCH   7   8
ENDBRANCH   1   7
BRANCH   4  21
HETATM   21  C8  UNL     1     166.601  28.232 182.751  1.00  0.00     0.224 C
HETATM   22  O2  UNL     1     166.010  29.315 182.400  1.00  0.00    -0.273 OA
HETATM   23  N2  UNL     1     165.859  27.272 183.466  1.00  0.00    -0.352 N
HETATM   24  C9  UNL     1     166.476  26.052 183.907  1.00  0.00     0.125 C
HETATM   25  C13 UNL     1     164.469  27.493 183.762  1.00  0.00     0.125 C
HETATM   26  C10 UNL     1     166.069  25.853 185.374  1.00  0.00     0.020 C
HETATM   27  C11 UNL     1     164.591  25.741 185.547  1.00  0.00     0.003 C
HETATM   28  C12 UNL     1     163.812  26.290 184.383  1.00  0.00     0.020 C
ENDBRANCH   4  21
TORSDOF 6
ENDMDL