MODEL 1
REMARK VINA RESULT: -9.320779068      0.000      0.000
REMARK  6 active torsions:
REMARK  status: ('A' for Active; 'I' for Inactive)
REMARK    1  A    between atoms: N2_6  and  C5_7
REMARK    2  A    between atoms: C9_11  and  C10_12
REMARK    3  A    between atoms: C9_11  and  N4_18
REMARK    4  A    between atoms: C10_12  and  C11_13
REMARK    5  A    between atoms: C11_13  and  C12_14
REMARK    6  A    between atoms: C12_14  and  C13_15
ROOT
HETATM    1  C5  UNL     1     167.982  28.558 183.229  1.00  0.00     0.033 C
HETATM    2  C6  UNL     1     167.097  28.616 181.986  1.00  0.00     0.039 C
HETATM    3  C7  UNL     1     168.311  29.971 183.608  1.00  0.00     0.033 C
HETATM    4  C8  UNL     1     169.233  30.582 182.598  1.00  0.00     0.044 C
HETATM    5  C9  UNL     1     170.548  29.913 182.408  1.00  0.00     0.160 C
HETATM    6  C19 UNL     1     170.514  28.653 183.271  1.00  0.00     0.044 C
HETATM    7  C20 UNL     1     169.281  27.866 182.935  1.00  0.00     0.033 C
ENDROOT
BRANCH   5   8
HETATM    8  C10 UNL     1     171.773  30.699 182.624  1.00  0.00     0.042 C
BRANCH   8   9
HETATM    9  C11 UNL     1     171.821  32.151 182.621  1.00  0.00     0.011 C
BRANCH   9  10
HETATM   10  C12 UNL     1     172.015  32.890 181.336  1.00  0.00     0.099 C
BRANCH  10  11
HETATM   11  C13 UNL     1     170.914  33.925 181.165  1.00  0.00     0.231 C
HETATM   12  N3  UNL     1     171.313  35.270 181.305  1.00  0.00    -0.062 NA
HETATM   13  O1  UNL     1     169.738  33.557 180.916  1.00  0.00    -0.277 OA
ENDBRANCH  10  11
ENDBRANCH   9  10
ENDBRANCH   8   9
ENDBRANCH   5   8
BRANCH   5  14
HETATM   14  N4  UNL     1     170.603  29.449 181.027  1.00  0.00     0.098 N
HETATM   15  C14 UNL     1     171.896  29.332 180.458  1.00  0.00     0.273 C
HETATM   16  C15 UNL     1     171.746  28.384 179.248  1.00  0.00     0.030 C
HETATM   17  C16 UNL     1     171.005  29.184 178.199  1.00  0.00     0.003 C
HETATM   18  C17 UNL     1     170.421  30.454 178.772  1.00  0.00     0.030 C
HETATM   19  C18 UNL     1     169.779  30.242 180.135  1.00  0.00     0.273 C
ENDBRANCH   5  14
BRANCH   1  20
HETATM   20  N2  UNL     1     167.256  27.853 184.245  1.00  0.00    -0.325 N
HETATM   21  C4  UNL     1     167.717  26.563 184.715  1.00  0.00     0.130 C
HETATM   22  C3  UNL     1     166.541  25.571 184.562  1.00  0.00     0.040 C
HETATM   23  C2  UNL     1     165.462  25.983 185.539  1.00  0.00     0.128 C
HETATM   24  N1  UNL     1     165.082  27.359 185.252  1.00  0.00    -0.338 N
HETATM   25  C1  UNL     1     163.708  27.780 185.384  1.00  0.00     0.154 C
HETATM   26  C21 UNL     1     166.047  28.309 184.843  1.00  0.00     0.320 C
HETATM   27  O2  UNL     1     165.847  29.506 184.999  1.00  0.00    -0.247 OA
ENDBRANCH   1  20
TORSDOF 6
ENDMDL