MODEL 2
REMARK VINA RESULT: -8.858016362      1.417      2.086
REMARK  8 active torsions:
REMARK  status: ('A' for Active; 'I' for Inactive)
REMARK    1  A    between atoms: C2_2  and  C3_3
REMARK    2  A    between atoms: C3_3  and  C4_4
REMARK    3  A    between atoms: C9_9  and  C11_11
REMARK       I    between atoms: C11_11  and  N1_13
REMARK    4  A    between atoms: N1_13  and  C12_15
REMARK    5  A    between atoms: C12_15  and  C13_16
REMARK    6  A    between atoms: C13_16  and  N2_17
REMARK    7  A    between atoms: N3_22  and  C18_23
REMARK    8  A    between atoms: C18_23  and  N4_25
ROOT
HETATM    1  C4  UNL     1     172.415  30.962 180.469  1.00  0.00     0.089 C
HETATM    2  C5  UNL     1     172.071  29.489 180.677  1.00  0.00     0.037 C
HETATM    3  C6  UNL     1     170.741  29.461 181.421  1.00  0.00    -0.012 C
HETATM    4  C7  UNL     1     169.619  29.155 180.451  1.00  0.00     0.018 C
HETATM    5  C8  UNL     1     170.743  28.389 182.474  1.00  0.00     0.018 C
HETATM    6  C9  UNL     1     170.723  30.844 181.943  1.00  0.00     0.119 C
HETATM    7  C10 UNL     1     172.035  30.910 182.875  1.00  0.00     0.050 C
HETATM    8  N3  UNL     1     171.121  31.635 180.780  1.00  0.00    -0.335 N
ENDROOT
BRANCH   6   9
HETATM    9  C11 UNL     1     169.683  31.270 182.825  1.00  0.00     0.246 C
HETATM   10  O1  UNL     1     169.792  32.415 183.414  1.00  0.00    -0.271 OA
HETATM   11  N1  UNL     1     168.528  30.545 183.125  1.00  0.00    -0.357 N
ATOM     12  H1  UNL     1     168.399  29.632 182.688  1.00  0.00     0.162 HD
BRANCH  11  13
HETATM   13  C12 UNL     1     167.493  31.037 184.040  1.00  0.00     0.152 C
BRANCH  13  14
HETATM   14  C13 UNL     1     166.853  29.934 184.822  1.00  0.00     0.292 C
BRANCH  14  15
HETATM   15  N2  UNL     1     165.928  30.575 185.753  1.00  0.00     0.090 N
HETATM   16  C14 UNL     1     164.731  29.776 185.933  1.00  0.00     0.272 C
HETATM   17  C15 UNL     1     163.609  30.749 186.233  1.00  0.00     0.032 C
HETATM   18  C16 UNL     1     164.259  32.099 186.161  1.00  0.00     0.032 C
HETATM   19  C17 UNL     1     165.434  31.833 185.220  1.00  0.00     0.272 C
ENDBRANCH  14  15
ENDBRANCH  13  14
ENDBRANCH  11  13
ENDBRANCH   6   9
BRANCH   8  20
HETATM   20  C18 UNL     1     170.648  32.808 180.177  1.00  0.00     0.172 C
HETATM   21  S1  UNL     1     169.989  32.466 178.608  1.00  0.00    -0.041 SA
BRANCH  20  22
HETATM   22  N4  UNL     1     170.690  34.173 180.386  1.00  0.00    -0.367 N
HETATM   23  C19 UNL     1     170.045  35.296 179.767  1.00  0.00     0.151 C
HETATM   24  C20 UNL     1     171.608  34.666 181.502  1.00  0.00     0.151 C
ENDBRANCH  20  22
ENDBRANCH   8  20
BRANCH   1  25
HETATM   25  C3  UNL     1     172.884  31.117 179.047  1.00  0.00     0.025 C
BRANCH  25  26
HETATM   26  C2  UNL     1     172.917  29.913 178.192  1.00  0.00    -0.002 C
HETATM   27  C1  UNL     1     174.369  29.806 177.667  1.00  0.00     0.005 C
ENDBRANCH  25  26
ENDBRANCH   1  25
TORSDOF 8
ENDMDL