MODEL 3
REMARK VINA RESULT: -9.682697060      1.884      2.734
REMARK  6 active torsions:
REMARK  status: ('A' for Active; 'I' for Inactive)
REMARK    1  A    between atoms: C2_2  and  C3_3
REMARK    2  A    between atoms: C2_2  and  N2_7
REMARK    3  A    between atoms: C3_3  and  N1_4
REMARK       I    between atoms: N2_7  and  C6_9
REMARK    4  A    between atoms: C6_9  and  C7_11
REMARK    5  A    between atoms: C7_11  and  N3_12
REMARK    6  A    between atoms: C10_15  and  C11_16
ROOT
HETATM    1  N3  UNL     1     170.251  28.469 181.398  1.00  0.00    -0.385 N
HETATM    2  C8  UNL     1     169.134  29.125 180.805  1.00  0.00     0.122 C
HETATM    3  C9  UNL     1     167.797  28.664 181.400  1.00  0.00     0.025 C
HETATM    4  C10 UNL     1     168.145  28.071 182.771  1.00  0.00     0.001 C
HETATM    5  C21 UNL     1     169.120  28.924 183.501  1.00  0.00     0.004 C
HETATM    6  C22 UNL     1     168.818  30.395 183.450  1.00  0.00     0.012 C
HETATM    7  C23 UNL     1     170.472  28.731 182.777  1.00  0.00     0.127 C
ENDROOT
BRANCH   1   8
HETATM    8  C7  UNL     1     171.393  28.490 180.583  1.00  0.00     0.160 C
BRANCH   8   9
HETATM    9  C6  UNL     1     171.883  29.785 180.117  1.00  0.00     0.256 C
HETATM   10  N2  UNL     1     171.569  30.254 178.824  1.00  0.00    -0.350 N
ATOM     11  H2  UNL     1     170.981  29.695 178.205  1.00  0.00     0.163 HD
HETATM   12  O1  UNL     1     172.591  30.494 180.863  1.00  0.00    -0.267 OA
BRANCH  10  13
HETATM   13  C2  UNL     1     172.090  31.540 178.378  1.00  0.00     0.109 C
HETATM   14  C1  UNL     1     171.158  32.673 178.547  1.00  0.00     0.034 C
BRANCH  13  15
HETATM   15  C3  UNL     1     172.643  31.305 177.004  1.00  0.00     0.296 C
BRANCH  15  16
HETATM   16  N1  UNL     1     172.697  29.894 176.684  1.00  0.00     0.081 N
HETATM   17  C4  UNL     1     174.091  29.634 176.150  1.00  0.00     0.309 C
HETATM   18  C5  UNL     1     171.911  29.720 175.450  1.00  0.00     0.309 C
ENDBRANCH  15  16
ENDBRANCH  13  15
ENDBRANCH  10  13
ENDBRANCH   8   9
ENDBRANCH   1   8
BRANCH   4  19
HETATM   19  C11 UNL     1     166.941  27.626 183.515  1.00  0.00    -0.035 C
HETATM   20  C12 UNL     1     165.951  28.765 183.593  1.00  0.00     0.014 C
HETATM   21  C13 UNL     1     164.828  28.483 184.573  1.00  0.00    -0.013 C
HETATM   22  C14 UNL     1     164.077  27.289 184.017  1.00  0.00     0.009 C
HETATM   23  C18 UNL     1     165.375  28.126 185.922  1.00  0.00     0.009 C
HETATM   24  C15 UNL     1     165.013  26.144 183.823  1.00  0.00    -0.013 C
HETATM   25  C16 UNL     1     165.496  25.708 185.194  1.00  0.00     0.009 C
HETATM   26  C20 UNL     1     166.202  26.456 182.928  1.00  0.00     0.014 C
HETATM   27  C17 UNL     1     166.218  26.882 185.814  1.00  0.00    -0.013 C
HETATM   28  C19 UNL     1     167.398  27.262 184.917  1.00  0.00     0.014 C
ENDBRANCH   4  19
TORSDOF 6
ENDMDL