MODEL 3
REMARK VINA RESULT: -8.949257843      3.369      6.784
REMARK  8 active torsions:
REMARK  status: ('A' for Active; 'I' for Inactive)
REMARK       I    between atoms: C2_2  and  N1_4
REMARK    1  A    between atoms: N1_4  and  C3_6
REMARK    2  A    between atoms: C3_6  and  C4_7
REMARK    3  A    between atoms: C4_7  and  C5_8
REMARK    4  A    between atoms: C5_8  and  C6_9
REMARK    5  A    between atoms: C6_9  and  C7_10
REMARK    6  A    between atoms: C7_10  and  O3_12
REMARK    7  A    between atoms: O3_12  and  C8_13
REMARK    8  A    between atoms: N2_19  and  C15_21
ROOT
HETATM    1  C6  UNL     1     169.466  29.340 182.459  1.00  0.00     0.218 C
HETATM    2  C12 UNL     1     170.560  28.514 183.051  1.00  0.00     0.078 C
HETATM    3  C13 UNL     1     170.652  27.993 181.611  1.00  0.00     0.242 C
HETATM    4  N2  UNL     1     170.014  29.253 181.167  1.00  0.00    -0.043 N
HETATM    5  C14 UNL     1     169.015  28.907 180.172  1.00  0.00     0.275 C
ENDROOT
BRANCH   1   6
HETATM    6  C5  UNL     1     168.177  28.477 182.544  1.00  0.00     0.052 C
BRANCH   6   7
HETATM    7  C4  UNL     1     168.114  27.647 183.777  1.00  0.00     0.023 C
BRANCH   7   8
HETATM    8  C3  UNL     1     166.919  26.674 183.662  1.00  0.00     0.122 C
BRANCH   8   9
HETATM    9  N1  UNL     1     165.818  27.124 184.449  1.00  0.00    -0.361 N
HETATM   10  C2  UNL     1     164.496  26.709 184.173  1.00  0.00     0.213 C
HETATM   11  C1  UNL     1     163.327  27.157 184.971  1.00  0.00     0.117 C
HETATM   12  O1  UNL     1     164.277  25.926 183.216  1.00  0.00    -0.274 OA
ATOM     13  H1  UNL     1     165.988  27.760 185.227  1.00  0.00     0.162 HD
ENDBRANCH   8   9
ENDBRANCH   7   8
ENDBRANCH   6   7
ENDBRANCH   1   6
BRANCH   1  14
HETATM   14  C7  UNL     1     169.103  30.591 183.091  1.00  0.00     0.296 C
HETATM   15  O2  UNL     1     169.961  31.339 183.590  1.00  0.00    -0.262 OA
BRANCH  14  16
HETATM   16  O3  UNL     1     167.786  31.013 183.172  1.00  0.00    -0.309 OA
BRANCH  16  17
HETATM   17  C8  UNL     1     167.227  31.630 184.297  1.00  0.00     0.060 C
HETATM   18  C9  UNL     1     168.016  32.809 184.798  1.00  0.00     0.045 C
HETATM   19  C10 UNL     1     165.847  32.134 183.921  1.00  0.00     0.045 C
HETATM   20  C11 UNL     1     167.081  30.642 185.438  1.00  0.00     0.045 C
ENDBRANCH  16  17
ENDBRANCH  14  16
ENDBRANCH   1  14
BRANCH   4  21
HETATM   21  C15 UNL     1     170.994  30.081 180.605  1.00  0.00     0.135 C
HETATM   22  C16 UNL     1     171.550  29.325 179.377  1.00  0.00     0.044 C
HETATM   23  C17 UNL     1     172.025  30.468 178.472  1.00  0.00    -0.011 C
HETATM   24  C18 UNL     1     173.198  31.088 179.209  1.00  0.00     0.009 C
HETATM   25  C22 UNL     1     170.874  31.396 178.535  1.00  0.00     0.012 C
HETATM   26  C19 UNL     1     172.816  31.538 180.579  1.00  0.00    -0.011 C
HETATM   27  C20 UNL     1     171.573  32.434 180.549  1.00  0.00     0.012 C
HETATM   28  C23 UNL     1     172.223  30.391 181.396  1.00  0.00     0.044 C
HETATM   29  C21 UNL     1     170.568  31.391 180.020  1.00  0.00     0.023 C
ENDBRANCH   4  21
TORSDOF 8
ENDMDL