MODEL 2
REMARK VINA RESULT: -10.189953618      0.134      1.457
REMARK  5 active torsions:
REMARK  status: ('A' for Active; 'I' for Inactive)
REMARK    1  A    between atoms: N1_2  and  C2_3
REMARK       I    between atoms: N1_2  and  C10_14
REMARK    2  A    between atoms: C2_3  and  C3_4
REMARK       I    between atoms: C3_4  and  N2_6
REMARK    3  A    between atoms: N2_6  and  C4_8
REMARK    4  A    between atoms: C10_14  and  C11_16
REMARK    5  A    between atoms: C11_16  and  C12_17
ROOT
HETATM    1  C1  UNL     1     112.707 128.234 183.495  1.00  0.00     0.153 C
HETATM    2  N1  UNL     1     113.950 127.628 183.020  1.00  0.00    -0.348 N
HETATM    3  C10 UNL     1     114.982 128.390 182.435  1.00  0.00     0.220 C
HETATM    4  O2  UNL     1     114.781 129.623 182.339  1.00  0.00    -0.273 OA
ENDROOT
BRANCH   2   5
HETATM    5  C2  UNL     1     114.081 126.211 183.171  1.00  0.00     0.227 C
BRANCH   5   6
HETATM    6  C3  UNL     1     112.873 125.569 182.571  1.00  0.00     0.235 C
HETATM    7  O1  UNL     1     112.631 125.731 181.354  1.00  0.00    -0.272 OA
HETATM    8  N2  UNL     1     112.044 124.798 183.402  1.00  0.00    -0.355 N
ATOM      9  H2  UNL     1     112.276 124.690 184.390  1.00  0.00     0.162 HD
BRANCH   8  10
HETATM   10  C4  UNL     1     110.866 124.157 182.867  1.00  0.00     0.085 C
HETATM   11  C5  UNL     1     109.654 125.037 182.941  1.00  0.00     0.030 C
HETATM   12  C6  UNL     1     108.504 124.159 183.332  1.00  0.00    -0.008 A
HETATM   13  C7  UNL     1     108.372 123.806 184.765  1.00  0.00     0.010 A
HETATM   14  C8  UNL     1     109.054 122.866 183.810  1.00  0.00    -0.008 A
HETATM   15  C9  UNL     1     110.566 122.947 183.736  1.00  0.00     0.030 C
ENDBRANCH   8  10
ENDBRANCH   5   6
ENDBRANCH   2   5
BRANCH   3  16
HETATM   16  C11 UNL     1     116.224 127.789 181.962  1.00  0.00     0.112 C
BRANCH  16  17
HETATM   17  C12 UNL     1     116.237 127.497 180.502  1.00  0.00    -0.031 C
HETATM   18  C13 UNL     1     115.062 128.082 179.799  1.00  0.00     0.014 C
HETATM   19  C14 UNL     1     115.085 127.638 178.345  1.00  0.00    -0.013 C
HETATM   20  C15 UNL     1     115.095 126.137 178.213  1.00  0.00     0.009 C
HETATM   21  C19 UNL     1     116.358 128.150 177.675  1.00  0.00     0.009 C
HETATM   22  C16 UNL     1     116.292 125.573 178.944  1.00  0.00    -0.013 C
HETATM   23  C17 UNL     1     117.565 126.064 178.324  1.00  0.00     0.009 C
HETATM   24  C21 UNL     1     116.171 125.977 180.373  1.00  0.00     0.014 C
HETATM   25  C18 UNL     1     117.542 127.575 178.389  1.00  0.00    -0.013 C
HETATM   26  C20 UNL     1     117.507 127.985 179.839  1.00  0.00     0.014 C
ENDBRANCH  16  17
ENDBRANCH   3  16
TORSDOF 5
ENDMDL