MODEL 4
REMARK VINA RESULT: -8.532369788      2.469      5.242
REMARK  5 active torsions:
REMARK  status: ('A' for Active; 'I' for Inactive)
REMARK    1  A    between atoms: C5_6  and  C6_7
REMARK    2  A    between atoms: C6_7  and  C7_8
REMARK    3  A    between atoms: C7_8  and  C8_9
REMARK    4  A    between atoms: C8_9  and  C9_10
REMARK    5  A    between atoms: C9_10  and  C10_11
ROOT
HETATM    1  C1  UNL     1     115.726 127.429 182.949  1.00  0.00     0.013 C
HETATM    2  C2  UNL     1     115.929 127.734 181.809  1.00  0.00    -0.098 C
HETATM    3  C3  UNL     1     116.152 128.110 180.413  1.00  0.00     0.195 C
HETATM    4  C4  UNL     1     115.322 127.258 179.530  1.00  0.00     0.155 C
HETATM    5  O1  UNL     1     114.671 126.339 179.973  1.00  0.00    -0.296 OA
HETATM    6  C5  UNL     1     115.269 127.508 178.048  1.00  0.00     0.080 C
HETATM    7  C12 UNL     1     114.813 128.914 177.855  1.00  0.00     0.099 C
HETATM    8  C13 UNL     1     115.728 129.669 176.901  1.00  0.00     0.050 C
HETATM    9  C14 UNL     1     115.034 130.896 176.348  1.00  0.00     0.082 C
HETATM   10  C15 UNL     1     115.750 131.436 175.159  1.00  0.00     0.032 C
HETATM   11  N1  UNL     1     114.886 131.920 177.380  1.00  0.00    -0.355 N
ATOM     12  H1  UNL     1     115.341 132.805 177.159  1.00  0.00     0.162 HD
HETATM   13  C16 UNL     1     114.226 131.904 178.630  1.00  0.00     0.240 C
HETATM   14  O2  UNL     1     114.014 133.012 179.147  1.00  0.00    -0.271 OA
HETATM   15  C17 UNL     1     113.770 130.722 179.373  1.00  0.00     0.173 C
HETATM   16  C18 UNL     1     113.346 130.922 180.766  1.00  0.00     0.042 C
HETATM   17  N2  UNL     1     114.735 129.682 179.112  1.00  0.00    -0.355 N
HETATM   18  C19 UNL     1     115.642 129.509 180.182  1.00  0.00     0.100 C
HETATM   19  S1  UNL     1     116.103 130.774 181.084  1.00  0.00    -0.064 SA
ENDROOT
BRANCH   6  20
HETATM   20  C6  UNL     1     114.220 126.572 177.479  1.00  0.00     0.014 C
BRANCH  20  21
HETATM   21  C7  UNL     1     114.669 125.672 176.398  1.00  0.00     0.001 C
BRANCH  21  22
HETATM   22  C8  UNL     1     115.660 126.223 175.436  1.00  0.00     0.000 C
BRANCH  22  23
HETATM   23  C9  UNL     1     117.066 125.720 175.685  1.00  0.00    -0.000 C
BRANCH  23  24
HETATM   24  C10 UNL     1     118.016 126.850 176.005  1.00  0.00    -0.005 C
HETATM   25  C11 UNL     1     118.719 126.467 177.306  1.00  0.00     0.005 C
ENDBRANCH  23  24
ENDBRANCH  22  23
ENDBRANCH  21  22
ENDBRANCH  20  21
ENDBRANCH   6  20
TORSDOF 5
ENDMDL