MODEL 4
REMARK VINA RESULT: -9.798044609      1.745      7.214
REMARK  5 active torsions:
REMARK  status: ('A' for Active; 'I' for Inactive)
REMARK    1  A    between atoms: C9_9  and  C10_10
REMARK       I    between atoms: C10_10  and  N1_12
REMARK    2  A    between atoms: N1_12  and  C11_14
REMARK    3  A    between atoms: C11_14  and  C12_15
REMARK    4  A    between atoms: C11_14  and  C20_25
REMARK       I    between atoms: C12_15  and  N2_17
REMARK    5  A    between atoms: C15_20  and  C16_21
ROOT
HETATM    1  C1  UNL     1     109.704 127.426 184.631  1.00  0.00     0.012 C
HETATM    2  C2  UNL     1     109.695 126.282 184.266  1.00  0.00    -0.111 C
HETATM    3  C3  UNL     1     109.652 124.906 183.848  1.00  0.00     0.081 C
HETATM    4  C4  UNL     1     109.614 123.988 185.098  1.00  0.00     0.002 C
HETATM    5  C5  UNL     1     109.592 122.568 184.676  1.00  0.00     0.006 C
HETATM    6  C6  UNL     1     111.034 122.194 184.294  1.00  0.00     0.006 C
HETATM    7  C7  UNL     1     111.643 123.580 184.192  1.00  0.00     0.000 C
HETATM    8  C8  UNL     1     111.098 124.170 185.477  1.00  0.00     0.011 C
HETATM    9  C9  UNL     1     110.845 124.395 183.158  1.00  0.00     0.098 C
ENDROOT
BRANCH   9  10
HETATM   10  C10 UNL     1     111.757 125.269 182.475  1.00  0.00     0.224 C
HETATM   11  O1  UNL     1     111.412 125.659 181.285  1.00  0.00    -0.273 OA
HETATM   12  N1  UNL     1     113.001 125.794 182.870  1.00  0.00    -0.347 N
ATOM     13  H1  UNL     1     113.345 125.546 183.798  1.00  0.00     0.163 HD
BRANCH  12  14
HETATM   14  C11 UNL     1     113.834 126.668 182.051  1.00  0.00     0.180 C
BRANCH  14  15
HETATM   15  C12 UNL     1     114.795 125.875 181.247  1.00  0.00     0.243 C
HETATM   16  O2  UNL     1     115.176 124.776 181.728  1.00  0.00    -0.271 OA
HETATM   17  N2  UNL     1     115.302 126.274 179.987  1.00  0.00    -0.350 N
HETATM   18  C13 UNL     1     115.037 127.442 179.172  1.00  0.00     0.126 C
HETATM   19  C19 UNL     1     116.283 125.518 179.207  1.00  0.00     0.130 C
HETATM   20  C14 UNL     1     114.952 126.819 177.771  1.00  0.00     0.026 C
HETATM   21  C15 UNL     1     116.105 125.884 177.776  1.00  0.00     0.008 C
BRANCH  21  22
HETATM   22  C16 UNL     1     117.334 126.382 177.086  1.00  0.00    -0.017 C
HETATM   23  C17 UNL     1     118.435 126.815 177.989  1.00  0.00     0.010 C
HETATM   24  C18 UNL     1     116.948 127.527 176.187  1.00  0.00     0.010 C
ENDBRANCH  21  22
ENDBRANCH  14  15
BRANCH  14  25
HETATM   25  C20 UNL     1     114.540 127.630 182.970  1.00  0.00     0.009 C
HETATM   26  C21 UNL     1     113.817 128.902 183.210  1.00  0.00     0.012 C
HETATM   27  C22 UNL     1     115.934 127.887 182.485  1.00  0.00     0.012 C
ENDBRANCH  14  25
ENDBRANCH  12  14
ENDBRANCH   9  10
TORSDOF 5
ENDMDL