MODEL 5
REMARK VINA RESULT: -9.388146310      1.763      2.643
REMARK  4 active torsions:
REMARK  status: ('A' for Active; 'I' for Inactive)
REMARK    1  A    between atoms: C7_7  and  C9_9
REMARK    2  A    between atoms: C9_9  and  N1_10
REMARK    3  A    between atoms: N1_10  and  S1_12
REMARK    4  A    between atoms: S1_12  and  N2_15
ROOT
HETATM    1  C1  UNL     1     114.083 128.333 178.720  1.00  0.00     0.015 C
HETATM    2  C2  UNL     1     115.062 127.532 178.560  1.00  0.00    -0.076 C
HETATM    3  C3  UNL     1     116.386 127.979 178.066  1.00  0.00     0.019 C
HETATM    4  C4  UNL     1     117.379 127.680 179.130  1.00  0.00     0.014 C
HETATM    5  C5  UNL     1     116.974 126.586 180.100  1.00  0.00    -0.012 C
HETATM    6  C6  UNL     1     116.027 126.951 181.166  1.00  0.00     0.015 C
HETATM    7  C7  UNL     1     114.725 126.210 181.205  1.00  0.00    -0.026 C
HETATM    8  C8  UNL     1     114.909 124.921 182.033  1.00  0.00     0.017 C
HETATM    9  C12 UNL     1     114.120 125.821 179.908  1.00  0.00     0.024 C
HETATM   10  C13 UNL     1     115.036 126.081 178.804  1.00  0.00    -0.016 C
HETATM   11  C14 UNL     1     116.374 125.519 179.250  1.00  0.00     0.019 C
HETATM   12  C15 UNL     1     114.809 125.510 177.448  1.00  0.00     0.018 C
HETATM   13  C16 UNL     1     115.919 125.973 176.546  1.00  0.00    -0.013 C
HETATM   14  C17 UNL     1     115.303 125.918 175.130  1.00  0.00     0.010 C
HETATM   15  C18 UNL     1     116.518 127.298 176.745  1.00  0.00    -0.007 C
HETATM   16  C19 UNL     1     117.949 127.287 176.207  1.00  0.00     0.011 C
ENDROOT
BRANCH   7  17
HETATM   17  C9  UNL     1     113.785 127.063 182.030  1.00  0.00     0.142 C
BRANCH  17  18
HETATM   18  N1  UNL     1     113.358 126.471 183.262  1.00  0.00    -0.306 N
ATOM     19  H1  UNL     1     113.948 126.198 184.048  1.00  0.00     0.173 HD
BRANCH  18  20
HETATM   20  S1  UNL     1     111.623 126.310 183.147  1.00  0.00     0.298 S
HETATM   21  O1  UNL     1     111.237 125.820 181.780  1.00  0.00    -0.188 OA
HETATM   22  O2  UNL     1     111.055 127.690 183.301  1.00  0.00    -0.188 OA
BRANCH  20  23
HETATM   23  N2  UNL     1     111.134 125.237 184.386  1.00  0.00    -0.202 NA
HETATM   24  C10 UNL     1     111.540 123.884 184.183  1.00  0.00     0.130 C
HETATM   25  C11 UNL     1     109.738 125.416 184.649  1.00  0.00     0.130 C
ENDBRANCH  20  23
ENDBRANCH  18  20
ENDBRANCH  17  18
ENDBRANCH   7  17
TORSDOF 4
ENDMDL