MODEL 4
REMARK VINA RESULT: -9.190696472      1.255      2.138
REMARK  5 active torsions:
REMARK  status: ('A' for Active; 'I' for Inactive)
REMARK    1  A    between atoms: C2_2  and  C3_3
REMARK    2  A    between atoms: C3_3  and  C4_4
REMARK    3  A    between atoms: C4_4  and  C5_5
REMARK       I    between atoms: C5_5  and  N1_7
REMARK    4  A    between atoms: C9_11  and  C10_12
REMARK       I    between atoms: C10_12  and  N2_14
REMARK    5  A    between atoms: N2_14  and  C11_16
ROOT
HETATM    1  C10 UNL     1     113.546 125.668 182.912  1.00  0.00     0.241 C
HETATM    2  O2  UNL     1     114.428 124.797 183.023  1.00  0.00    -0.271 OA
HETATM    3  N2  UNL     1     113.693 126.680 181.949  1.00  0.00    -0.354 N
ATOM      4  H2  UNL     1     112.956 127.381 181.877  1.00  0.00     0.162 HD
ENDROOT
BRANCH   1   5
HETATM    5  C9  UNL     1     112.365 125.628 183.783  1.00  0.00     0.179 C
HETATM    6  N1  UNL     1     111.310 126.546 183.322  1.00  0.00    -0.339 N
HETATM    7  C5  UNL     1     111.178 127.924 183.624  1.00  0.00     0.220 C
HETATM    8  C6  UNL     1     110.400 125.793 182.486  1.00  0.00     0.127 C
HETATM    9  O1  UNL     1     110.201 128.544 183.131  1.00  0.00    -0.273 OA
HETATM   10  C7  UNL     1     110.809 124.359 182.568  1.00  0.00     0.022 C
HETATM   11  C8  UNL     1     111.674 124.285 183.780  1.00  0.00     0.037 C
BRANCH   7  12
HETATM   12  C4  UNL     1     112.147 128.637 184.491  1.00  0.00     0.103 C
BRANCH  12  13
HETATM   13  C3  UNL     1     111.571 129.225 185.728  1.00  0.00     0.009 C
BRANCH  13  14
HETATM   14  C2  UNL     1     110.915 128.243 186.656  1.00  0.00    -0.004 C
HETATM   15  C1  UNL     1     111.291 128.677 188.080  1.00  0.00     0.005 C
ENDBRANCH  13  14
ENDBRANCH  12  13
ENDBRANCH   7  12
ENDBRANCH   1   5
BRANCH   3  16
HETATM   16  C11 UNL     1     114.824 126.792 181.051  1.00  0.00     0.089 C
HETATM   17  C12 UNL     1     115.043 128.249 180.706  1.00  0.00     0.030 C
HETATM   18  C13 UNL     1     116.216 128.454 179.820  1.00  0.00    -0.012 C
HETATM   19  C14 UNL     1     117.275 127.403 179.883  1.00  0.00     0.009 C
HETATM   20  C18 UNL     1     115.758 128.695 178.398  1.00  0.00     0.009 C
HETATM   21  C15 UNL     1     117.040 126.190 179.054  1.00  0.00    -0.013 C
HETATM   22  C16 UNL     1     116.598 126.554 177.635  1.00  0.00     0.009 C
HETATM   23  C21 UNL     1     116.048 125.222 179.590  1.00  0.00     0.011 C
HETATM   24  C17 UNL     1     115.335 127.384 177.818  1.00  0.00    -0.013 C
HETATM   25  C19 UNL     1     114.281 126.669 178.585  1.00  0.00     0.011 C
HETATM   26  C20 UNL     1     114.738 125.958 179.824  1.00  0.00     0.009 C
ENDBRANCH   3  16
TORSDOF 5
ENDMDL