MODEL 4
REMARK VINA RESULT: -7.329229294      3.314      6.778
REMARK  10 active torsions:
REMARK  status: ('A' for Active; 'I' for Inactive)
REMARK    1  A    between atoms: C2_2  and  N1_3
REMARK    2  A    between atoms: N1_3  and  C3_4
REMARK    3  A    between atoms: N1_3  and  C5_6
REMARK    4  A    between atoms: C5_6  and  O1_7
REMARK    5  A    between atoms: C5_6  and  N2_9
REMARK    6  A    between atoms: N3_12  and  C8_13
REMARK    7  A    between atoms: C8_13  and  N4_15
REMARK    8  A    between atoms: N4_15  and  C9_17
REMARK    9  A    between atoms: C9_17  and  C12_20
REMARK   10  A    between atoms: C12_20  and  C13_21
ROOT
HETATM    1  N2  UNL     1     113.708 126.306 182.983  1.00  0.00    -0.344 N
HETATM    2  C6  UNL     1     114.874 126.355 182.060  1.00  0.00     0.146 C
HETATM    3  C7  UNL     1     115.740 127.538 182.381  1.00  0.00     0.145 C
HETATM    4  N3  UNL     1     114.851 128.703 182.170  1.00  0.00    -0.355 N
HETATM    5  C16 UNL     1     113.766 128.793 183.082  1.00  0.00     0.145 C
HETATM    6  C17 UNL     1     113.105 127.487 183.464  1.00  0.00     0.146 C
ENDROOT
BRANCH   4   7
HETATM    7  C8  UNL     1     115.144 129.607 181.106  1.00  0.00     0.170 C
HETATM    8  S1  UNL     1     116.300 130.734 181.376  1.00  0.00    -0.041 SA
BRANCH   7   9
HETATM    9  N4  UNL     1     114.454 129.506 179.890  1.00  0.00    -0.359 N
ATOM     10  H4  UNL     1     113.480 129.805 179.839  1.00  0.00     0.162 HD
BRANCH   9  11
HETATM   11  C9  UNL     1     115.104 128.984 178.704  1.00  0.00     0.025 C
HETATM   12  C10 UNL     1     115.299 129.986 177.613  1.00  0.00     0.038 C
HETATM   13  C11 UNL     1     114.143 127.922 178.142  1.00  0.00     0.038 C
BRANCH  11  14
HETATM   14  C12 UNL     1     116.371 128.279 179.020  1.00  0.00     0.034 C
BRANCH  14  15
HETATM   15  C13 UNL     1     116.640 127.001 178.323  1.00  0.00    -0.020 C
HETATM   16  C14 UNL     1     117.921 127.226 177.497  1.00  0.00     0.009 C
HETATM   17  C15 UNL     1     116.909 125.806 179.161  1.00  0.00     0.009 C
ENDBRANCH  14  15
ENDBRANCH  11  14
ENDBRANCH   9  11
ENDBRANCH   7   9
ENDBRANCH   4   7
BRANCH   1  18
HETATM   18  C5  UNL     1     113.254 125.015 183.302  1.00  0.00     0.217 C
BRANCH  18  19
HETATM   19  N1  UNL     1     111.985 124.476 183.493  1.00  0.00    -0.348 N
BRANCH  19  20
HETATM   20  C2  UNL     1     111.047 124.565 182.330  1.00  0.00     0.122 C
HETATM   21  C1  UNL     1     110.082 125.689 182.532  1.00  0.00     0.026 C
ENDBRANCH  19  20
BRANCH  19  22
HETATM   22  C3  UNL     1     111.475 123.813 184.644  1.00  0.00     0.122 C
HETATM   23  C4  UNL     1     111.035 122.384 184.347  1.00  0.00     0.026 C
ENDBRANCH  19  22
ENDBRANCH  18  19
BRANCH  18  24
HETATM   24  O1  UNL     1     114.239 124.137 183.448  1.00  0.00    -0.333 OA
ATOM     25  H1  UNL     1     114.086 123.498 184.134  1.00  0.00     0.220 HD
ENDBRANCH  18  24
ENDBRANCH   1  18
TORSDOF 10
ENDMDL