MODEL 4
REMARK VINA RESULT: -8.784459377      2.231      3.659
REMARK  7 active torsions:
REMARK  status: ('A' for Active; 'I' for Inactive)
REMARK    1  A    between atoms: C2_2  and  N1_3
REMARK    2  A    between atoms: N1_3  and  C3_4
REMARK    3  A    between atoms: N1_3  and  C8_11
REMARK    4  A    between atoms: C3_4  and  C4_5
REMARK       I    between atoms: C4_5  and  N2_7
REMARK    5  A    between atoms: C8_11  and  N3_13
REMARK    6  A    between atoms: N3_13  and  C9_15
REMARK    7  A    between atoms: C9_15  and  C10_16
ROOT
HETATM    1  N3  UNL     1     113.673 126.975 178.444  1.00  0.00    -0.366 N
ATOM      2  H3  UNL     1     113.048 127.782 178.451  1.00  0.00     0.161 HD
ENDROOT
BRANCH   1   3
HETATM    3  C8  UNL     1     114.879 127.010 177.706  1.00  0.00     0.170 C
HETATM    4  S1  UNL     1     115.034 126.044 176.353  1.00  0.00    -0.041 SA
BRANCH   3   5
HETATM    5  N1  UNL     1     116.009 127.803 178.004  1.00  0.00    -0.350 N
BRANCH   5   6
HETATM    6  C2  UNL     1     117.023 127.314 178.901  1.00  0.00     0.121 C
HETATM    7  C1  UNL     1     118.247 126.989 178.027  1.00  0.00     0.026 C
ENDBRANCH   5   6
BRANCH   5   8
HETATM    8  C3  UNL     1     116.192 129.120 177.443  1.00  0.00     0.228 C
BRANCH   8   9
HETATM    9  C4  UNL     1     115.088 130.051 177.696  1.00  0.00     0.237 C
HETATM   10  O1  UNL     1     114.351 130.424 176.762  1.00  0.00    -0.272 OA
HETATM   11  N2  UNL     1     114.855 130.534 178.998  1.00  0.00    -0.351 N
HETATM   12  C5  UNL     1     113.913 131.444 179.670  1.00  0.00     0.127 C
HETATM   13  C7  UNL     1     115.451 130.342 180.316  1.00  0.00     0.127 C
HETATM   14  C6  UNL     1     115.085 131.798 180.590  1.00  0.00     0.040 C
ENDBRANCH   8   9
ENDBRANCH   5   8
ENDBRANCH   3   5
ENDBRANCH   1   3
BRANCH   1  15
HETATM   15  C9  UNL     1     113.341 125.799 179.178  1.00  0.00     0.131 C
BRANCH  15  16
HETATM   16  C10 UNL     1     113.747 125.814 180.611  1.00  0.00    -0.023 C
HETATM   17  C11 UNL     1     114.023 127.261 181.040  1.00  0.00     0.015 C
HETATM   18  C12 UNL     1     114.221 127.337 182.533  1.00  0.00    -0.013 C
HETATM   19  C13 UNL     1     115.374 126.443 182.959  1.00  0.00     0.009 C
HETATM   20  C17 UNL     1     112.987 126.838 183.272  1.00  0.00     0.009 C
HETATM   21  C14 UNL     1     115.152 125.040 182.455  1.00  0.00    -0.013 C
HETATM   22  C15 UNL     1     113.918 124.510 183.196  1.00  0.00     0.009 C
HETATM   23  C19 UNL     1     114.955 125.014 180.954  1.00  0.00     0.015 C
HETATM   24  C16 UNL     1     112.743 125.403 182.884  1.00  0.00    -0.013 C
HETATM   25  C18 UNL     1     112.513 125.350 181.401  1.00  0.00     0.015 C
ENDBRANCH  15  16
ENDBRANCH   1  15
TORSDOF 7
ENDMDL