MODEL 1
REMARK VINA RESULT: -9.922152269      0.000      0.000
REMARK  5 active torsions:
REMARK  status: ('A' for Active; 'I' for Inactive)
REMARK    1  A    between atoms: C2_2  and  C3_3
REMARK    2  A    between atoms: C9_9  and  C10_10
REMARK       I    between atoms: C10_10  and  N1_12
REMARK    3  A    between atoms: N1_12  and  C11_14
REMARK    4  A    between atoms: C11_14  and  C12_15
REMARK       I    between atoms: N2_19  and  C16_20
REMARK    5  A    between atoms: C16_20  and  C17_22
ROOT
HETATM    1  C11 UNL     1     112.590 125.638 180.521  1.00  0.00     0.128 C
ENDROOT
BRANCH   1   2
HETATM    2  N1  UNL     1     113.981 125.534 180.078  1.00  0.00    -0.360 N
HETATM    3  C10 UNL     1     114.492 126.383 179.041  1.00  0.00     0.222 C
HETATM    4  O1  UNL     1     113.661 127.204 178.557  1.00  0.00    -0.273 OA
ATOM      5  H1  UNL     1     114.598 124.848 180.514  1.00  0.00     0.162 HD
BRANCH   3   6
HETATM    6  C9  UNL     1     115.887 126.233 178.643  1.00  0.00     0.090 C
HETATM    7  C3  UNL     1     116.913 126.737 179.597  1.00  0.00     0.025 C
HETATM    8  C4  UNL     1     117.857 127.573 178.751  1.00  0.00    -0.006 C
HETATM    9  C5  UNL     1     118.552 126.661 177.801  1.00  0.00     0.005 C
HETATM   10  C8  UNL     1     116.808 128.221 177.826  1.00  0.00     0.011 C
HETATM   11  C6  UNL     1     117.473 126.250 176.810  1.00  0.00     0.006 C
HETATM   12  C7  UNL     1     116.215 126.907 177.335  1.00  0.00    -0.001 C
BRANCH   7  13
HETATM   13  C2  UNL     1     116.434 127.529 180.726  1.00  0.00    -0.031 C
HETATM   14  C1  UNL     1     117.147 128.539 181.171  1.00  0.00     0.007 C
ENDBRANCH   7  13
ENDBRANCH   3   6
ENDBRANCH   1   2
BRANCH   1  15
HETATM   15  C12 UNL     1     112.544 125.121 181.940  1.00  0.00     0.021 C
HETATM   16  C13 UNL     1     113.782 125.375 182.723  1.00  0.00     0.009 C
HETATM   17  C14 UNL     1     113.919 126.775 183.248  1.00  0.00     0.020 C
HETATM   18  C15 UNL     1     112.623 127.507 183.357  1.00  0.00     0.126 C
HETATM   19  N2  UNL     1     111.565 126.561 183.632  1.00  0.00    -0.351 N
HETATM   20  C16 UNL     1     110.867 126.641 184.870  1.00  0.00     0.224 C
HETATM   21  C22 UNL     1     111.279 125.574 182.613  1.00  0.00     0.132 C
HETATM   22  O2  UNL     1     111.198 127.535 185.689  1.00  0.00    -0.273 OA
BRANCH  20  23
HETATM   23  C17 UNL     1     109.774 125.726 185.237  1.00  0.00     0.078 C
HETATM   24  C18 UNL     1     110.082 125.116 186.585  1.00  0.00     0.014 C
HETATM   25  C19 UNL     1     108.767 124.899 187.281  1.00  0.00     0.001 C
HETATM   26  C20 UNL     1     107.720 125.386 186.329  1.00  0.00     0.001 C
HETATM   27  C21 UNL     1     108.483 126.455 185.534  1.00  0.00     0.014 C
ENDBRANCH  20  23
ENDBRANCH   1  15
TORSDOF 5
ENDMDL