MODEL 1
REMARK VINA RESULT: -9.930859603      0.000      0.000
REMARK  5 active torsions:
REMARK  status: ('A' for Active; 'I' for Inactive)
REMARK    1  A    between atoms: C2_2  and  C4_4
REMARK    2  A    between atoms: C4_4  and  C5_5
REMARK    3  A    between atoms: C4_4  and  C19_24
REMARK       I    between atoms: C5_5  and  N1_7
REMARK    4  A    between atoms: C10_12  and  C11_13
REMARK       I    between atoms: C11_13  and  N2_15
REMARK    5  A    between atoms: N2_15  and  C12_17
ROOT
HETATM    1  C5  UNL     1     115.739 126.692 179.276  1.00  0.00     0.225 C
HETATM    2  O1  UNL     1     116.350 125.604 179.552  1.00  0.00    -0.273 OA
HETATM    3  N1  UNL     1     115.502 127.651 180.267  1.00  0.00    -0.338 N
HETATM    4  C6  UNL     1     114.814 128.904 180.158  1.00  0.00     0.127 C
HETATM    5  C7  UNL     1     115.479 129.821 181.171  1.00  0.00     0.027 C
HETATM    6  C8  UNL     1     116.171 128.938 182.150  1.00  0.00     0.015 C
HETATM    7  C9  UNL     1     117.650 129.244 182.261  1.00  0.00     0.012 C
HETATM    8  C10 UNL     1     115.939 127.538 181.638  1.00  0.00     0.183 C
ENDROOT
BRANCH   8   9
HETATM    9  C11 UNL     1     114.958 126.842 182.512  1.00  0.00     0.241 C
HETATM   10  O2  UNL     1     115.407 125.778 183.058  1.00  0.00    -0.271 OA
HETATM   11  N2  UNL     1     113.631 127.290 182.742  1.00  0.00    -0.354 N
ATOM     12  H2  UNL     1     113.285 128.142 182.300  1.00  0.00     0.162 HD
BRANCH  11  13
HETATM   13  C12 UNL     1     112.793 126.525 183.606  1.00  0.00     0.089 C
HETATM   14  C13 UNL     1     111.401 127.151 183.786  1.00  0.00     0.030 C
HETATM   15  C14 UNL     1     110.409 126.038 183.646  1.00  0.00    -0.012 C
HETATM   16  C15 UNL     1     110.243 125.762 182.170  1.00  0.00     0.005 C
HETATM   17  C18 UNL     1     111.271 124.828 184.045  1.00  0.00     0.011 C
HETATM   18  C16 UNL     1     111.670 125.325 181.798  1.00  0.00     0.007 C
HETATM   19  C17 UNL     1     112.422 125.161 183.075  1.00  0.00     0.009 C
ENDBRANCH  11  13
ENDBRANCH   8   9
BRANCH   1  20
HETATM   20  C4  UNL     1     115.316 126.849 177.836  1.00  0.00     0.085 C
BRANCH  20  21
HETATM   21  C2  UNL     1     114.606 125.591 177.449  1.00  0.00    -0.009 C
HETATM   22  C1  UNL     1     114.382 125.370 175.997  1.00  0.00     0.010 C
HETATM   23  C3  UNL     1     113.222 125.676 178.103  1.00  0.00     0.010 C
ENDBRANCH  20  21
BRANCH  20  24
HETATM   24  C19 UNL     1     116.584 127.113 177.083  1.00  0.00    -0.009 C
HETATM   25  C20 UNL     1     117.804 127.368 177.920  1.00  0.00     0.010 C
HETATM   26  C21 UNL     1     116.450 128.250 176.095  1.00  0.00     0.010 C
ENDBRANCH  20  24
ENDBRANCH   1  20
TORSDOF 5
ENDMDL