MODEL 3
REMARK VINA RESULT: -10.040633804      1.514      2.597
REMARK  5 active torsions:
REMARK  status: ('A' for Active; 'I' for Inactive)
REMARK    1  A    between atoms: C2_2  and  C3_3
REMARK    2  A    between atoms: C3_3  and  N1_4
REMARK       I    between atoms: N1_4  and  C4_6
REMARK    3  A    between atoms: C4_6  and  C5_8
REMARK    4  A    between atoms: C5_8  and  C6_9
REMARK    5  A    between atoms: C6_9  and  C7_10
REMARK       I    between atoms: C7_10  and  N2_12
ROOT
HETATM    1  C7  UNL     1     113.878 125.599 180.602  1.00  0.00     0.220 C
HETATM    2  O2  UNL     1     113.188 125.980 179.625  1.00  0.00    -0.273 OA
HETATM    3  N2  UNL     1     113.299 125.392 181.878  1.00  0.00    -0.351 N
HETATM    4  C8  UNL     1     114.014 124.960 183.039  1.00  0.00     0.126 C
HETATM    5  C9  UNL     1     112.983 124.215 183.802  1.00  0.00     0.032 C
HETATM    6  C10 UNL     1     111.618 124.628 183.385  1.00  0.00    -0.015 C
HETATM    7  C11 UNL     1     110.883 123.482 182.781  1.00  0.00     0.016 C
HETATM    8  C12 UNL     1     109.946 122.714 183.596  1.00  0.00    -0.013 C
HETATM    9  C13 UNL     1     110.301 122.485 185.021  1.00  0.00     0.009 C
HETATM   10  C14 UNL     1     109.889 123.576 185.921  1.00  0.00    -0.013 C
HETATM   11  C15 UNL     1     108.480 124.086 185.692  1.00  0.00     0.009 C
HETATM   12  C16 UNL     1     108.442 124.553 184.250  1.00  0.00    -0.013 C
HETATM   13  C17 UNL     1     108.547 123.299 183.410  1.00  0.00     0.009 C
HETATM   14  C18 UNL     1     109.443 125.590 183.922  1.00  0.00     0.014 C
HETATM   15  C19 UNL     1     110.834 125.383 184.426  1.00  0.00    -0.034 C
HETATM   16  C20 UNL     1     111.435 126.760 184.661  1.00  0.00     0.016 C
HETATM   17  C21 UNL     1     110.790 124.768 185.774  1.00  0.00     0.014 C
HETATM   18  C22 UNL     1     111.901 125.581 182.218  1.00  0.00     0.136 C
ENDROOT
BRANCH   1  19
HETATM   19  C6  UNL     1     115.325 125.357 180.428  1.00  0.00     0.112 C
BRANCH  19  20
HETATM   20  C5  UNL     1     116.065 126.401 179.672  1.00  0.00     0.112 C
BRANCH  20  21
HETATM   21  C4  UNL     1     116.087 127.732 180.304  1.00  0.00     0.218 C
HETATM   22  N1  UNL     1     114.921 128.534 180.310  1.00  0.00    -0.358 N
ATOM     23  H1  UNL     1     114.081 128.152 179.875  1.00  0.00     0.162 HD
HETATM   24  O1  UNL     1     117.149 128.141 180.833  1.00  0.00    -0.274 OA
BRANCH  22  25
HETATM   25  C3  UNL     1     114.839 129.848 180.886  1.00  0.00     0.149 C
BRANCH  25  26
HETATM   26  C2  UNL     1     114.204 129.863 182.209  1.00  0.00    -0.018 C
HETATM   27  C1  UNL     1     114.068 128.830 182.989  1.00  0.00     0.008 C
ENDBRANCH  25  26
ENDBRANCH  22  25
ENDBRANCH  20  21
ENDBRANCH  19  20
ENDBRANCH   1  19
TORSDOF 5
ENDMDL