MODEL 1
REMARK VINA RESULT: -6.203404870      0.000      0.000
REMARK  0 active torsions:
REMARK  status: ('A' for Active; 'I' for Inactive)
ROOT
HETATM    1  C1  UNL     1      11.877 -36.144   5.154  1.00  0.00     0.015 C
HETATM    2  C2  UNL     1      12.638 -36.087   3.804  1.00  0.00    -0.043 C
HETATM    3  C3  UNL     1      11.877 -34.983   3.091  1.00  0.00     0.015 C
HETATM    4  C4  UNL     1      14.018 -35.651   4.197  1.00  0.00     0.009 C
HETATM    5  C5  UNL     1      15.058 -36.408   3.447  1.00  0.00     0.002 C
HETATM    6  C6  UNL     1      14.579 -36.792   2.069  1.00  0.00     0.012 C
HETATM    7  C7  UNL     1      13.417 -37.745   2.024  1.00  0.00    -0.015 C
HETATM    8  C8  UNL     1      12.606 -37.249   0.797  1.00  0.00     0.018 C
HETATM    9  C9  UNL     1      12.530 -37.424   3.183  1.00  0.00     0.005 C
HETATM   10  C10 UNL     1      12.671 -38.415   4.324  1.00  0.00     0.026 C
HETATM   11  C11 UNL     1      12.307 -39.750   3.649  1.00  0.00     0.119 C
HETATM   12  N1  UNL     1      13.293 -40.116   2.712  1.00  0.00    -0.395 N
HETATM   13  C12 UNL     1      13.167 -41.477   2.427  1.00  0.00     0.021 C
HETATM   14  C13 UNL     1      11.979 -42.137   3.166  1.00  0.00     0.038 C
HETATM   15  C14 UNL     1      14.350 -42.340   2.892  1.00  0.00     0.038 C
HETATM   16  C15 UNL     1      12.809 -41.816   0.991  1.00  0.00     0.030 C
HETATM   17  C16 UNL     1      13.611 -41.033   0.058  1.00  0.00     0.005 C
HETATM   18  C17 UNL     1      13.396 -39.566   0.322  1.00  0.00     0.031 C
HETATM   19  C18 UNL     1      13.749 -39.176   1.775  1.00  0.00     0.032 C
HETATM   20  C19 UNL     1      15.284 -39.329   1.689  1.00  0.00     0.039 C
ENDROOT
TORSDOF 0
ENDMDL