MODEL 1
REMARK VINA RESULT: -6.028236392      0.000      0.000
REMARK  0 active torsions:
REMARK  status: ('A' for Active; 'I' for Inactive)
ROOT
HETATM    1  C1  UNL     1      11.727 -35.497   5.903  1.00  0.00     0.015 C
HETATM    2  C2  UNL     1      11.229 -34.345   6.827  1.00  0.00    -0.047 C
HETATM    3  C3  UNL     1       9.818 -34.173   6.387  1.00  0.00     0.015 C
HETATM    4  C4  UNL     1      11.405 -34.897   8.205  1.00  0.00     0.009 C
HETATM    5  C5  UNL     1      10.362 -34.528   9.188  1.00  0.00     0.002 C
HETATM    6  C6  UNL     1      10.361 -33.090   9.627  1.00  0.00     0.015 C
HETATM    7  C7  UNL     1      11.622 -32.369   9.497  1.00  0.00     0.053 C
HETATM    8  S1  UNL     1      11.604 -31.028  10.793  1.00  0.00    -0.154 SA
HETATM    9  C8  UNL     1      11.355 -29.602   9.637  1.00  0.00     0.005 C
HETATM   10  C9  UNL     1      12.597 -28.802   9.497  1.00  0.00     0.027 C
HETATM   11  C10 UNL     1      10.252 -28.706  10.176  1.00  0.00     0.027 C
HETATM   12  C11 UNL     1      10.916 -30.360   8.463  1.00  0.00     0.009 C
HETATM   13  C12 UNL     1      10.994 -29.789   7.120  1.00  0.00     0.007 C
HETATM   14  C13 UNL     1      10.903 -31.094   6.301  1.00  0.00     0.010 C
HETATM   15  C14 UNL     1      12.018 -31.895   7.003  1.00  0.00    -0.038 C
HETATM   16  C15 UNL     1      13.267 -31.222   6.352  1.00  0.00     0.015 C
HETATM   17  C16 UNL     1      12.157 -33.256   6.525  1.00  0.00     0.018 C
HETATM   18  C17 UNL     1      11.936 -31.512   8.369  1.00  0.00     0.013 C
ENDROOT
TORSDOF 0
ENDMDL