MODEL 1
REMARK VINA RESULT: -6.248104094      0.000      0.000
REMARK  0 active torsions:
REMARK  status: ('A' for Active; 'I' for Inactive)
ROOT
HETATM    1  C1  UNL     1      16.719 -40.790   0.450  1.00  0.00     0.047 C
HETATM    2  C2  UNL     1      15.755 -40.033   0.922  1.00  0.00     0.049 C
HETATM    3  O1  UNL     1      15.539 -39.307   2.109  1.00  0.00    -0.343 OA
HETATM    4  C3  UNL     1      14.548 -38.515   1.535  1.00  0.00     0.085 C
HETATM    5  C4  UNL     1      14.874 -37.132   1.146  1.00  0.00     0.041 C
HETATM    6  C5  UNL     1      13.792 -36.171   1.627  1.00  0.00     0.009 C
HETATM    7  C6  UNL     1      13.572 -36.366   3.116  1.00  0.00     0.002 C
HETATM    8  C7  UNL     1      12.592 -35.363   3.633  1.00  0.00    -0.043 C
HETATM    9  C8  UNL     1      11.360 -35.210   2.820  1.00  0.00     0.015 C
HETATM   10  C9  UNL     1      13.306 -34.002   3.621  1.00  0.00     0.015 C
HETATM   11  C10 UNL     1      12.317 -35.666   5.090  1.00  0.00     0.009 C
HETATM   12  C11 UNL     1      11.699 -37.001   5.279  1.00  0.00     0.002 C
HETATM   13  C12 UNL     1      11.925 -37.964   4.165  1.00  0.00     0.010 C
HETATM   14  C13 UNL     1      13.246 -37.790   3.461  1.00  0.00    -0.033 C
HETATM   15  C14 UNL     1      14.313 -38.344   4.403  1.00  0.00     0.016 C
HETATM   16  C15 UNL     1      13.193 -38.569   2.197  1.00  0.00     0.030 C
HETATM   17  C16 UNL     1      12.933 -40.019   2.318  1.00  0.00     0.010 C
HETATM   18  C17 UNL     1      13.302 -40.483   0.898  1.00  0.00     0.020 C
HETATM   19  C18 UNL     1      14.431 -39.557   0.474  1.00  0.00     0.036 C
HETATM   20  C19 UNL     1      14.420 -39.109  -0.936  1.00  0.00     0.025 C
ENDROOT
TORSDOF 0
ENDMDL