MODEL 1
REMARK VINA RESULT: -6.040429457      0.000      0.000
REMARK  1 active torsions:
REMARK  status: ('A' for Active; 'I' for Inactive)
REMARK    1  A    between atoms: C12_12  and  N1_13
ROOT
HETATM    1  C1  UNL     1      16.061 -39.371  -0.661  1.00  0.00     0.015 C
HETATM    2  C2  UNL     1      15.742 -37.922  -0.254  1.00  0.00    -0.043 C
HETATM    3  C3  UNL     1      17.120 -37.228  -0.343  1.00  0.00     0.015 C
HETATM    4  C4  UNL     1      14.950 -37.323  -1.349  1.00  0.00     0.009 C
HETATM    5  C5  UNL     1      13.822 -36.438  -0.800  1.00  0.00     0.002 C
HETATM    6  C6  UNL     1      12.993 -37.408   0.017  1.00  0.00     0.010 C
HETATM    7  C7  UNL     1      13.729 -37.817   1.307  1.00  0.00    -0.030 C
HETATM    8  C8  UNL     1      13.261 -39.288   1.445  1.00  0.00     0.016 C
HETATM    9  C9  UNL     1      15.191 -37.853   1.129  1.00  0.00     0.002 C
HETATM   10  C10 UNL     1      15.975 -36.775   1.851  1.00  0.00     0.008 C
HETATM   11  C11 UNL     1      15.562 -36.905   3.321  1.00  0.00     0.040 C
HETATM   12  C12 UNL     1      14.172 -36.373   3.358  1.00  0.00     0.131 C
HETATM   13  C13 UNL     1      14.250 -34.882   3.015  1.00  0.00     0.039 C
HETATM   14  C14 UNL     1      13.011 -34.268   3.663  1.00  0.00     0.002 C
HETATM   15  C15 UNL     1      11.846 -35.118   3.285  1.00  0.00     0.001 C
HETATM   16  C16 UNL     1      12.111 -36.082   2.154  1.00  0.00     0.012 C
HETATM   17  C17 UNL     1      13.194 -37.107   2.503  1.00  0.00    -0.003 C
HETATM   18  C18 UNL     1      12.475 -38.062   3.480  1.00  0.00     0.018 C
ENDROOT
BRANCH  12  19
HETATM   19  N1  UNL     1      13.795 -36.382   4.784  1.00  0.00    -0.070 N
ATOM     20  H13 UNL     1      12.903 -35.926   4.978  1.00  0.00     0.275 HD
ATOM     21  H12 UNL     1      13.534 -37.304   5.135  1.00  0.00     0.275 HD
ATOM     22  H11 UNL     1      14.588 -35.964   5.272  1.00  0.00     0.275 HD
ENDBRANCH  12  19
TORSDOF 1
ENDMDL