MODEL 5
REMARK VINA RESULT: -6.025091717      1.764      3.504
REMARK  0 active torsions:
REMARK  status: ('A' for Active; 'I' for Inactive)
ROOT
HETATM    1  C1  UNL     1      11.159 -37.462   5.185  1.00  0.00     0.014 C
HETATM    2  C2  UNL     1      12.435 -37.165   4.344  1.00  0.00     0.009 C
HETATM    3  C3  UNL     1      12.182 -36.266   3.288  1.00  0.00    -0.026 C
HETATM    4  C4  UNL     1      12.515 -36.289   1.855  1.00  0.00    -0.029 C
HETATM    5  C5  UNL     1      13.883 -36.439   1.326  1.00  0.00     0.036 C
HETATM    6  C6  UNL     1      14.428 -37.855   1.131  1.00  0.00    -0.036 C
HETATM    7  C7  UNL     1      14.002 -38.417  -0.239  1.00  0.00     0.016 C
HETATM    8  C8  UNL     1      15.865 -38.056   1.354  1.00  0.00     0.010 C
HETATM    9  C9  UNL     1      16.354 -38.972   2.405  1.00  0.00     0.002 C
HETATM   10  C10 UNL     1      15.414 -39.397   3.537  1.00  0.00     0.010 C
HETATM   11  C11 UNL     1      14.298 -38.390   3.461  1.00  0.00    -0.035 C
HETATM   12  C12 UNL     1      14.984 -37.240   3.970  1.00  0.00     0.016 C
HETATM   13  C13 UNL     1      13.059 -38.541   4.278  1.00  0.00     0.006 C
HETATM   14  C14 UNL     1      12.082 -39.578   3.800  1.00  0.00     0.052 C
HETATM   15  C15 UNL     1      12.644 -40.635   2.928  1.00  0.00    -0.012 C
HETATM   16  S1  UNL     1      12.307 -42.006   3.064  1.00  0.00    -0.090 SA
HETATM   17  C16 UNL     1      13.617 -40.159   1.867  1.00  0.00     0.052 C
HETATM   18  C17 UNL     1      13.729 -38.664   2.138  1.00  0.00     0.007 C
ENDROOT
TORSDOF 0
ENDMDL