MODEL 5
REMARK VINA RESULT: -5.916892101      2.584      3.710
REMARK  0 active torsions:
REMARK  status: ('A' for Active; 'I' for Inactive)
ROOT
HETATM    1  C1  UNL     1      11.339 -35.878   5.061  1.00  0.00     0.015 C
HETATM    2  C2  UNL     1      12.265 -35.587   4.186  1.00  0.00    -0.081 C
HETATM    3  C3  UNL     1      12.610 -34.250   3.673  1.00  0.00     0.034 C
HETATM    4  C4  UNL     1      14.077 -34.357   3.264  1.00  0.00     0.010 C
HETATM    5  C5  UNL     1      14.455 -35.763   3.470  1.00  0.00     0.002 C
HETATM    6  C6  UNL     1      15.452 -36.368   2.543  1.00  0.00    -0.004 C
HETATM    7  C7  UNL     1      16.714 -35.571   2.450  1.00  0.00     0.005 C
HETATM    8  C8  UNL     1      16.920 -34.732   1.268  1.00  0.00     0.002 C
HETATM    9  C9  UNL     1      16.099 -35.024   0.065  1.00  0.00     0.021 C
HETATM   10  C10 UNL     1      15.734 -36.477   0.052  1.00  0.00     0.013 C
HETATM   11  C11 UNL     1      15.162 -36.895  -1.257  1.00  0.00     0.031 C
HETATM   12  C12 UNL     1      16.530 -37.244  -1.848  1.00  0.00     0.076 C
HETATM   13  S1  UNL     1      17.219 -37.495  -0.167  1.00  0.00    -0.159 SA
HETATM   14  C13 UNL     1      14.913 -36.881   1.256  1.00  0.00     0.009 C
HETATM   15  C14 UNL     1      13.455 -36.503   1.019  1.00  0.00     0.007 C
HETATM   16  C15 UNL     1      12.594 -36.871   2.179  1.00  0.00     0.014 C
HETATM   17  C16 UNL     1      13.170 -36.544   3.519  1.00  0.00    -0.017 C
HETATM   18  C17 UNL     1      13.372 -37.800   4.363  1.00  0.00     0.020 C
ENDROOT
TORSDOF 0
ENDMDL