MODEL 1
REMARK VINA RESULT: -6.366162077      0.000      0.000
REMARK  0 active torsions:
REMARK  status: ('A' for Active; 'I' for Inactive)
ROOT
HETATM    1  C1  UNL     1      13.163 -33.403   3.746  1.00  0.00     0.014 C
HETATM    2  C2  UNL     1      12.950 -34.617   3.316  1.00  0.00    -0.084 C
HETATM    3  C3  UNL     1      11.586 -35.204   3.425  1.00  0.00     0.034 C
HETATM    4  C4  UNL     1      11.711 -36.384   4.384  1.00  0.00     0.005 C
HETATM    5  C5  UNL     1      13.133 -36.802   4.572  1.00  0.00     0.010 C
HETATM    6  C6  UNL     1      13.896 -36.903   3.244  1.00  0.00    -0.032 C
HETATM    7  C7  UNL     1      13.095 -37.800   2.357  1.00  0.00     0.016 C
HETATM    8  C8  UNL     1      13.994 -35.488   2.706  1.00  0.00     0.022 C
HETATM    9  C9  UNL     1      15.329 -34.860   2.935  1.00  0.00     0.010 C
HETATM   10  C10 UNL     1      16.488 -35.638   2.411  1.00  0.00     0.012 C
HETATM   11  C11 UNL     1      16.309 -37.107   2.557  1.00  0.00    -0.022 C
HETATM   12  C12 UNL     1      16.094 -37.741   1.237  1.00  0.00     0.017 C
HETATM   13  C13 UNL     1      15.253 -37.375   3.578  1.00  0.00     0.004 C
HETATM   14  C14 UNL     1      15.401 -38.822   3.868  1.00  0.00     0.008 C
HETATM   15  C15 UNL     1      16.878 -39.114   3.632  1.00  0.00     0.022 C
HETATM   16  C16 UNL     1      17.504 -37.793   3.216  1.00  0.00     0.022 C
HETATM   17  C17 UNL     1      18.628 -38.009   2.238  1.00  0.00     0.028 C
HETATM   18  S1  UNL     1      17.974 -36.831   4.649  1.00  0.00    -0.086 SA
ENDROOT
TORSDOF 0
ENDMDL