MODEL 2
REMARK VINA RESULT: -6.740220271      1.422      5.845
REMARK  0 active torsions:
REMARK  status: ('A' for Active; 'I' for Inactive)
ROOT
HETATM    1  C1  UNL     1      11.083 -34.395   8.544  1.00  0.00     0.015 C
HETATM    2  C2  UNL     1      11.135 -34.001   7.057  1.00  0.00    -0.044 C
HETATM    3  C3  UNL     1       9.655 -33.923   6.654  1.00  0.00     0.015 C
HETATM    4  C4  UNL     1      11.652 -32.604   7.021  1.00  0.00     0.009 C
HETATM    5  C5  UNL     1      11.837 -32.194   5.593  1.00  0.00     0.001 C
HETATM    6  C6  UNL     1      12.888 -33.035   4.944  1.00  0.00     0.006 C
HETATM    7  C7  UNL     1      12.887 -34.470   5.292  1.00  0.00    -0.001 C
HETATM    8  C8  UNL     1      11.901 -34.985   6.241  1.00  0.00    -0.002 C
HETATM    9  C9  UNL     1      10.873 -35.951   5.633  1.00  0.00     0.006 C
HETATM   10  C10 UNL     1      11.504 -37.069   4.881  1.00  0.00     0.006 C
HETATM   11  C11 UNL     1      12.876 -36.707   4.353  1.00  0.00     0.002 C
HETATM   12  C12 UNL     1      13.439 -37.655   3.387  1.00  0.00    -0.043 C
HETATM   13  C13 UNL     1      12.775 -37.803   2.071  1.00  0.00     0.015 C
HETATM   14  C14 UNL     1      13.435 -39.046   4.044  1.00  0.00     0.015 C
HETATM   15  C15 UNL     1      14.898 -37.319   3.154  1.00  0.00     0.009 C
HETATM   16  C16 UNL     1      15.253 -35.953   3.669  1.00  0.00     0.002 C
HETATM   17  C17 UNL     1      14.191 -34.969   3.274  1.00  0.00     0.010 C
HETATM   18  C18 UNL     1      12.858 -35.272   3.972  1.00  0.00    -0.036 C
HETATM   19  C19 UNL     1      11.739 -34.830   3.121  1.00  0.00     0.016 C
ENDROOT
TORSDOF 0
ENDMDL