MODEL 3
REMARK VINA RESULT: -7.037616991      5.529      9.682
REMARK  2 active torsions:
REMARK  status: ('A' for Active; 'I' for Inactive)
REMARK    1  A    between atoms: C2_2  and  O1_4
REMARK    2  A    between atoms: C2_2  and  C4_6
ROOT
HETATM    1  C4  UNL     1      12.285 -36.749   3.109  1.00  0.00     0.028 C
HETATM    2  C5  UNL     1      12.316 -37.594   4.382  1.00  0.00     0.009 C
HETATM    3  C6  UNL     1      13.204 -38.794   4.018  1.00  0.00     0.007 C
HETATM    4  C7  UNL     1      12.981 -38.793   2.517  1.00  0.00     0.003 C
HETATM    5  C8  UNL     1      13.604 -39.880   1.786  1.00  0.00    -0.036 C
HETATM    6  C9  UNL     1      15.015 -40.200   2.042  1.00  0.00     0.010 C
HETATM    7  C10 UNL     1      15.101 -41.332   3.051  1.00  0.00     0.001 C
HETATM    8  C11 UNL     1      13.743 -41.920   3.119  1.00  0.00     0.001 C
HETATM    9  C12 UNL     1      12.866 -41.168   2.201  1.00  0.00     0.010 C
HETATM   10  C13 UNL     1      13.253 -39.735   0.311  1.00  0.00     0.010 C
HETATM   11  C14 UNL     1      14.122 -38.818  -0.452  1.00  0.00     0.001 C
HETATM   12  C15 UNL     1      13.730 -37.395  -0.347  1.00  0.00     0.001 C
HETATM   13  C16 UNL     1      12.765 -37.057   0.745  1.00  0.00     0.010 C
HETATM   14  C17 UNL     1      13.235 -37.365   2.144  1.00  0.00    -0.033 C
HETATM   15  C18 UNL     1      14.641 -36.909   2.281  1.00  0.00     0.016 C
ENDROOT
BRANCH   1  16
HETATM   16  C2  UNL     1      12.336 -35.354   3.489  1.00  0.00     0.055 C
HETATM   17  C1  UNL     1      12.017 -35.366   5.010  1.00  0.00     0.045 C
HETATM   18  C3  UNL     1      13.639 -34.635   3.385  1.00  0.00     0.045 C
BRANCH  16  19
HETATM   19  O1  UNL     1      11.346 -34.520   2.985  1.00  0.00    -0.390 OA
ATOM     20  H1  UNL     1      11.662 -34.340   2.107  1.00  0.00     0.210 HD
ENDBRANCH  16  19
ENDBRANCH   1  16
TORSDOF 2
ENDMDL