MODEL 1
REMARK VINA RESULT: -6.571108040      0.000      0.000
REMARK  0 active torsions:
REMARK  status: ('A' for Active; 'I' for Inactive)
ROOT
HETATM    1  C1  UNL     1      12.092 -28.593   9.899  1.00  0.00     0.015 C
HETATM    2  C2  UNL     1      10.982 -29.403   9.219  1.00  0.00    -0.047 C
HETATM    3  C3  UNL     1       9.692 -28.624   9.501  1.00  0.00     0.015 C
HETATM    4  C4  UNL     1      11.152 -29.419   7.725  1.00  0.00     0.009 C
HETATM    5  C5  UNL     1      10.893 -30.815   7.142  1.00  0.00     0.011 C
HETATM    6  C6  UNL     1      11.931 -31.703   7.724  1.00  0.00    -0.032 C
HETATM    7  C7  UNL     1      13.284 -31.198   7.202  1.00  0.00     0.016 C
HETATM    8  C8  UNL     1      11.995 -31.643   9.210  1.00  0.00    -0.005 C
HETATM    9  C9  UNL     1      11.906 -33.076   9.677  1.00  0.00     0.006 C
HETATM   10  C10 UNL     1      12.505 -33.803   8.492  1.00  0.00     0.011 C
HETATM   11  C11 UNL     1      11.740 -33.181   7.340  1.00  0.00    -0.028 C
HETATM   12  C12 UNL     1      12.407 -33.353   6.017  1.00  0.00     0.010 C
HETATM   13  C13 UNL     1      11.733 -34.254   5.051  1.00  0.00     0.001 C
HETATM   14  C14 UNL     1      12.330 -35.660   5.197  1.00  0.00     0.002 C
HETATM   15  C15 UNL     1      11.282 -36.674   4.856  1.00  0.00     0.020 C
HETATM   16  C16 UNL     1      10.121 -36.475   5.816  1.00  0.00     0.118 C
HETATM   17  N1  UNL     1      10.655 -35.921   7.034  1.00  0.00    -0.402 N
ATOM     18  H1  UNL     1      11.524 -36.252   7.454  1.00  0.00     0.158 HD
HETATM   19  C17 UNL     1       9.885 -34.885   7.601  1.00  0.00     0.056 C
HETATM   20  C18 UNL     1      10.289 -33.492   7.369  1.00  0.00     0.054 C
HETATM   21  C19 UNL     1      10.963 -30.753   9.848  1.00  0.00     0.014 C
ENDROOT
TORSDOF 0
ENDMDL