MODEL 4
REMARK VINA RESULT: -4.622102730      2.794      6.642
REMARK  3 active torsions:
REMARK  status: ('A' for Active; 'I' for Inactive)
REMARK    1  A    between atoms: C3_7  and  N2_8
REMARK    2  A    between atoms: N2_8  and  N3_9
REMARK    3  A    between atoms: N3_9  and  C4_11
ROOT
HETATM    1  N3  UNL     1     -47.279 -21.290   8.688  1.00  0.00    -0.289 N
ATOM      2  H3  UNL     1     -46.915 -20.337   8.670  1.00  0.00     0.183 HD
ENDROOT
BRANCH   1   3
HETATM    3  N2  UNL     1     -48.358 -21.622   9.483  1.00  0.00    -0.104 NA
BRANCH   3   4
HETATM    4  C3  UNL     1     -48.042 -21.640  10.893  1.00  0.00     0.293 C
HETATM    5  C2  UNL     1     -47.805 -20.315  11.463  1.00  0.00     0.266 C
HETATM    6  N1  UNL     1     -48.445 -20.266  12.726  1.00  0.00    -0.276 N
HETATM    7  O2  UNL     1     -47.152 -19.395  10.926  1.00  0.00    -0.269 OA
HETATM    8  C1  UNL     1     -49.292 -21.404  12.804  1.00  0.00     0.324 C
ATOM      9  H1  UNL     1     -48.322 -19.551  13.443  1.00  0.00     0.173 HD
HETATM   10  O1  UNL     1     -50.041 -21.708  13.800  1.00  0.00    -0.247 OA
HETATM   11  N6  UNL     1     -49.190 -22.161  11.608  1.00  0.00    -0.315 N
ATOM     12  H6  UNL     1     -49.802 -22.921  11.311  1.00  0.00     0.166 HD
ENDBRANCH   3   4
ENDBRANCH   1   3
BRANCH   1  13
HETATM   13  C4  UNL     1     -46.688 -22.308   7.896  1.00  0.00     0.114 C
HETATM   14  N4  UNL     1     -45.630 -22.007   7.228  1.00  0.00    -0.376 N
HETATM   15  C5  UNL     1     -44.999 -23.018   6.408  1.00  0.00     0.148 C
ATOM     16  H4  UNL     1     -45.240 -21.066   7.276  1.00  0.00     0.160 HD
HETATM   17  C6  UNL     1     -45.128 -24.334   7.180  1.00  0.00     0.252 C
HETATM   18  N5  UNL     1     -46.535 -24.645   7.223  1.00  0.00    -0.067 N
HETATM   19  C7  UNL     1     -47.308 -23.633   7.879  1.00  0.00     0.309 C
ATOM     20  H52 UNL     1     -46.897 -24.831   6.287  1.00  0.00     0.277 HD
ATOM     21  H51 UNL     1     -46.694 -25.558   7.647  1.00  0.00     0.277 HD
ENDBRANCH   1  13
TORSDOF 3
ENDMDL