MODEL 5
REMARK VINA RESULT: -4.271059735      2.464      3.682
REMARK  4 active torsions:
REMARK  status: ('A' for Active; 'I' for Inactive)
REMARK    1  A    between atoms: N1_1  and  N2_4
REMARK    2  A    between atoms: N2_4  and  C1_6
REMARK    3  A    between atoms: C4_15  and  S1_16
REMARK    4  A    between atoms: S1_16  and  N5_17
ROOT
HETATM    1  C1  UNL     1     -49.871 -20.518  11.442  1.00  0.00     0.152 A
HETATM    2  N3  UNL     1     -48.723 -19.975  11.959  1.00  0.00    -0.292 N
ATOM      3  H3  UNL     1     -48.792 -19.351  12.762  1.00  0.00     0.172 HD
HETATM    4  C2  UNL     1     -47.533 -20.232  11.453  1.00  0.00     0.328 A
HETATM    5  O1  UNL     1     -46.506 -19.706  11.965  1.00  0.00    -0.247 OA
HETATM    6  N4  UNL     1     -47.453 -21.060  10.390  1.00  0.00    -0.274 N
ATOM      7  H4  UNL     1     -46.538 -21.267   9.988  1.00  0.00     0.173 HD
HETATM    8  C3  UNL     1     -48.546 -21.618   9.847  1.00  0.00     0.276 A
HETATM    9  O2  UNL     1     -48.462 -22.385   8.861  1.00  0.00    -0.266 OA
HETATM   10  C4  UNL     1     -49.824 -21.363  10.363  1.00  0.00     0.192 A
ENDROOT
BRANCH  10  11
HETATM   11  S1  UNL     1     -51.220 -22.132   9.666  1.00  0.00     0.266 S
HETATM   12  O3  UNL     1     -52.517 -21.531  10.075  1.00  0.00    -0.200 OA
HETATM   13  O4  UNL     1     -51.266 -23.567  10.225  1.00  0.00    -0.200 OA
BRANCH  11  14
HETATM   14  N5  UNL     1     -51.142 -22.311   7.970  1.00  0.00    -0.324 N
ATOM     15  H52 UNL     1     -50.478 -21.788   7.400  1.00  0.00     0.169 HD
ATOM     16  H51 UNL     1     -51.813 -22.980   7.590  1.00  0.00     0.169 HD
ENDBRANCH  11  14
ENDBRANCH  10  11
BRANCH   1  17
HETATM   17  N2  UNL     1     -51.099 -20.188  12.031  1.00  0.00    -0.291 N
ATOM     18  H2  UNL     1     -51.642 -19.422  11.631  1.00  0.00     0.188 HD
BRANCH  17  19
HETATM   19  N1  UNL     1     -51.595 -20.844  13.111  1.00  0.00    -0.344 N
ATOM     20  H12 UNL     1     -51.057 -20.804  13.978  1.00  0.00     0.176 HD
ATOM     21  H11 UNL     1     -52.471 -21.366  13.086  1.00  0.00     0.176 HD
ENDBRANCH  17  19
ENDBRANCH   1  17
TORSDOF 4
ENDMDL