MODEL 3
REMARK VINA RESULT: -5.208399628      1.908      5.458
REMARK  3 active torsions:
REMARK  status: ('A' for Active; 'I' for Inactive)
REMARK    1  A    between atoms: N1_1  and  C1_4
REMARK    2  A    between atoms: C2_11  and  C3_12
REMARK    3  A    between atoms: C3_12  and  C4_14
ROOT
HETATM    1  C3  UNL     1     -47.871 -21.280  11.314  1.00  0.00     0.230 C
HETATM    2  O1  UNL     1     -46.843 -21.271  12.031  1.00  0.00    -0.283 OA
ENDROOT
BRANCH   1   3
HETATM    3  C2  UNL     1     -47.709 -21.181   9.879  1.00  0.00     0.147 A
HETATM    4  C1  UNL     1     -48.052 -22.137   8.916  1.00  0.00     0.147 A
HETATM    5  N2  UNL     1     -47.715 -21.641   7.710  1.00  0.00    -0.269 N
HETATM    6  N3  UNL     1     -47.187 -20.444   7.860  1.00  0.00    -0.240 N
ATOM      7  H2  UNL     1     -47.849 -22.119   6.819  1.00  0.00     0.190 HD
HETATM    8  N4  UNL     1     -47.187 -20.180   9.151  1.00  0.00    -0.279 N
ATOM      9  H3  UNL     1     -46.843 -19.836   7.117  1.00  0.00     0.208 HD
ATOM     10  H4  UNL     1     -46.832 -19.313   9.552  1.00  0.00     0.189 HD
BRANCH   4  11
HETATM   11  N1  UNL     1     -48.587 -23.277   9.096  1.00  0.00    -0.382 N
ATOM     12  H12 UNL     1     -48.546 -24.096   8.490  1.00  0.00     0.157 HD
ATOM     13  H11 UNL     1     -49.150 -23.524   9.910  1.00  0.00     0.157 HD
ENDBRANCH   4  11
ENDBRANCH   1   3
BRANCH   1  14
HETATM   14  C4  UNL     1     -49.153 -21.390  11.994  1.00  0.00     0.094 A
HETATM   15  C5  UNL     1     -50.269 -20.709  11.511  1.00  0.00     0.108 A
HETATM   16  C6  UNL     1     -51.481 -20.793  12.143  1.00  0.00     0.251 A
HETATM   17  O2  UNL     1     -52.486 -20.169  11.693  1.00  0.00    -0.268 OA
HETATM   18  N5  UNL     1     -51.576 -21.548  13.244  1.00  0.00    -0.275 N
HETATM   19  C7  UNL     1     -50.500 -22.197  13.700  1.00  0.00     0.327 A
ATOM     20  H5  UNL     1     -52.467 -21.627  13.734  1.00  0.00     0.173 HD
HETATM   21  O3  UNL     1     -50.563 -22.924  14.749  1.00  0.00    -0.247 OA
HETATM   22  N6  UNL     1     -49.289 -22.137  13.102  1.00  0.00    -0.305 N
ATOM     23  H6  UNL     1     -48.493 -22.648  13.484  1.00  0.00     0.171 HD
ENDBRANCH   1  14
TORSDOF 3
ENDMDL