MODEL 3
REMARK VINA RESULT: -4.659943390      2.126      4.590
REMARK  6 active torsions:
REMARK  status: ('A' for Active; 'I' for Inactive)
REMARK    1  A    between atoms: N1_1  and  N2_4
REMARK    2  A    between atoms: N2_4  and  C1_6
REMARK    3  A    between atoms: C2_9  and  N4_10
REMARK    4  A    between atoms: N4_10  and  C3_12
REMARK    5  A    between atoms: C3_12  and  N5_13
REMARK    6  A    between atoms: N5_13  and  O1_15
ROOT
HETATM    1  C1  UNL     1     -48.763 -24.477   9.370  1.00  0.00     0.699 C
HETATM    2  N3  UNL     1     -49.243 -23.407  10.048  1.00  0.00    -0.171 N
ATOM      3  H3  UNL     1     -49.880 -23.620  10.815  1.00  0.00     0.186 HD
HETATM    4  C2  UNL     1     -48.987 -22.079   9.839  1.00  0.00     0.175 C
HETATM    5  C4  UNL     1     -47.848 -21.623   9.223  1.00  0.00     0.246 C
HETATM    6  O2  UNL     1     -47.453 -20.511   9.588  1.00  0.00    -0.282 OA
HETATM    7  C5  UNL     1     -47.060 -22.230   8.233  1.00  0.00     0.133 A
HETATM    8  N6  UNL     1     -46.137 -21.627   7.469  1.00  0.00    -0.346 N
ATOM      9  H6  UNL     1     -45.888 -20.638   7.509  1.00  0.00     0.167 HD
HETATM   10  C6  UNL     1     -45.592 -22.545   6.636  1.00  0.00     0.182 A
HETATM   11  N7  UNL     1     -46.167 -23.737   6.867  1.00  0.00    -0.336 N
ATOM     12  H7  UNL     1     -45.956 -24.612   6.388  1.00  0.00     0.168 HD
HETATM   13  C7  UNL     1     -47.072 -23.562   7.846  1.00  0.00     0.153 A
HETATM   14  N8  UNL     1     -47.865 -24.527   8.368  1.00  0.00    -0.173 N
ATOM     15  H8  UNL     1     -47.766 -25.444   7.931  1.00  0.00     0.186 HD
ENDROOT
BRANCH   4  16
HETATM   16  N4  UNL     1     -49.887 -21.312  10.260  1.00  0.00    -0.333 N
ATOM     17  H4  UNL     1     -50.546 -21.036   9.533  1.00  0.00     0.168 HD
BRANCH  16  18
HETATM   18  C3  UNL     1     -50.187 -20.748  11.513  1.00  0.00     0.205 C
BRANCH  18  19
HETATM   19  N5  UNL     1     -49.072 -20.045  12.137  1.00  0.00    -0.265 N
ATOM     20  H5  UNL     1     -48.590 -20.405  12.961  1.00  0.00     0.194 HD
BRANCH  19  21
HETATM   21  O1  UNL     1     -48.763 -19.012  11.608  1.00  0.00    -0.289 OA
ATOM     22  H1  UNL     1     -48.427 -18.345  12.196  1.00  0.00     0.244 HD
ENDBRANCH  19  21
ENDBRANCH  18  19
ENDBRANCH  16  18
ENDBRANCH   4  16
BRANCH   1  23
HETATM   23  N2  UNL     1     -49.212 -25.637   9.708  1.00  0.00    -0.138 N
ATOM     24  H2  UNL     1     -50.223 -25.774   9.677  1.00  0.00     0.205 HD
BRANCH  23  25
HETATM   25  N1  UNL     1     -48.444 -26.704  10.109  1.00  0.00    -0.331 N
ATOM     26  H12 UNL     1     -47.836 -26.545  10.912  1.00  0.00     0.177 HD
ATOM     27  H11 UNL     1     -48.437 -27.625   9.671  1.00  0.00     0.177 HD
ENDBRANCH  23  25
ENDBRANCH   1  23
TORSDOF 6
ENDMDL