MODEL 5
REMARK VINA RESULT: -4.559788078      3.161      4.555
REMARK  3 active torsions:
REMARK  status: ('A' for Active; 'I' for Inactive)
REMARK    1  A    between atoms: N3_4  and  N4_6
REMARK       I    between atoms: C2_8  and  N5_9
REMARK       I    between atoms: C2_8  and  N8_18
REMARK    2  A    between atoms: N5_9  and  C3_11
REMARK    3  A    between atoms: N8_18  and  N9_20
ROOT
HETATM    1  N4  UNL     1     -49.784 -21.129  13.153  1.00  0.00    -0.128 N
ATOM      2  H4  UNL     1     -49.387 -21.534  14.001  1.00  0.00     0.205 HD
HETATM    3  C2  UNL     1     -51.001 -21.412  12.832  1.00  0.00     0.719 C
HETATM    4  N5  UNL     1     -51.597 -20.875  11.663  1.00  0.00    -0.159 N
ATOM      5  H5  UNL     1     -51.187 -21.066  10.748  1.00  0.00     0.187 HD
HETATM    6  N8  UNL     1     -51.746 -22.279  13.674  1.00  0.00    -0.070 N
ATOM      7  H8  UNL     1     -52.514 -22.820  13.275  1.00  0.00     0.212 HD
ENDROOT
BRANCH   1   8
HETATM    8  N3  UNL     1     -48.996 -20.281  12.369  1.00  0.00    -0.262 N
HETATM    9  C1  UNL     1     -47.728 -20.527  12.171  1.00  0.00     0.216 C
HETATM   10  N1  UNL     1     -46.961 -19.638  11.366  1.00  0.00    -0.065 NA
HETATM   11  N2  UNL     1     -47.173 -21.680  12.776  1.00  0.00    -0.065 NA
ATOM     12  H3  UNL     1     -49.419 -19.456  11.945  1.00  0.00     0.190 HD
ENDBRANCH   1   8
BRANCH   4  13
HETATM   13  C3  UNL     1     -52.782 -20.060  11.766  1.00  0.00     0.190 C
HETATM   14  N6  UNL     1     -52.953 -19.141  12.626  1.00  0.00    -0.360 N
HETATM   15  C4  UNL     1     -54.219 -18.479  12.517  1.00  0.00     0.142 C
ATOM     16  H6  UNL     1     -52.254 -18.897  13.328  1.00  0.00     0.162 HD
HETATM   17  C5  UNL     1     -54.764 -18.964  11.168  1.00  0.00     0.142 C
HETATM   18  N7  UNL     1     -53.928 -20.132  10.961  1.00  0.00    -0.360 N
ATOM     19  H7  UNL     1     -54.144 -20.897  10.321  1.00  0.00     0.162 HD
ENDBRANCH   4  13
BRANCH   6  20
HETATM   20  N9  UNL     1     -51.457 -22.412  15.026  1.00  0.00    -0.024 N
HETATM   21  O1  UNL     1     -51.620 -21.448  15.783  1.00  0.00    -0.516 OA
HETATM   22  O2  UNL     1     -50.996 -23.606  15.507  1.00  0.00    -0.516 OA
ENDBRANCH   6  20
TORSDOF 3
ENDMDL