MODEL 4
REMARK VINA RESULT: -4.701924817      1.686      2.074
REMARK  5 active torsions:
REMARK  status: ('A' for Active; 'I' for Inactive)
REMARK    1  A    between atoms: N1_1  and  C1_4
REMARK    2  A    between atoms: C5_19  and  N7_20
REMARK    3  A    between atoms: N7_20  and  C6_22
REMARK    4  A    between atoms: C6_22  and  C7_23
REMARK    5  A    between atoms: C7_23  and  N8_24
ROOT
HETATM    1  C1  UNL     1     -50.161 -21.245  12.704  1.00  0.00     0.146 C
HETATM    2  N2  UNL     1     -48.982 -20.563  12.840  1.00  0.00    -0.305 N
ATOM      3  H2  UNL     1     -48.810 -20.162  13.762  1.00  0.00     0.171 HD
HETATM    4  C2  UNL     1     -48.010 -20.347  11.917  1.00  0.00     0.279 C
HETATM    5  O1  UNL     1     -46.949 -19.776  12.268  1.00  0.00    -0.265 OA
HETATM    6  C3  UNL     1     -48.052 -20.696  10.570  1.00  0.00     0.163 A
HETATM    7  N3  UNL     1     -47.192 -20.238   9.649  1.00  0.00    -0.278 N
ATOM      8  H3  UNL     1     -46.417 -19.594   9.808  1.00  0.00     0.189 HD
HETATM    9  N4  UNL     1     -47.535 -20.775   8.509  1.00  0.00    -0.240 N
ATOM     10  H4  UNL     1     -47.053 -20.605   7.626  1.00  0.00     0.208 HD
HETATM   11  N5  UNL     1     -48.587 -21.568   8.643  1.00  0.00    -0.269 N
ATOM     12  H5  UNL     1     -49.037 -22.096   7.896  1.00  0.00     0.190 HD
HETATM   13  C4  UNL     1     -48.959 -21.557   9.937  1.00  0.00     0.157 A
HETATM   14  N6  UNL     1     -49.987 -22.238  10.469  1.00  0.00    -0.322 N
ATOM     15  H6  UNL     1     -50.552 -22.787   9.821  1.00  0.00     0.169 HD
HETATM   16  C5  UNL     1     -50.365 -22.279  11.808  1.00  0.00     0.151 C
ENDROOT
BRANCH  16  17
HETATM   17  N7  UNL     1     -50.897 -23.337  12.195  1.00  0.00    -0.351 N
ATOM     18  H7  UNL     1     -50.430 -23.721  13.016  1.00  0.00     0.166 HD
BRANCH  17  19
HETATM   19  C6  UNL     1     -51.964 -24.123  11.793  1.00  0.00     0.089 C
BRANCH  19  20
HETATM   20  C7  UNL     1     -53.296 -23.385  11.695  1.00  0.00     0.274 C
BRANCH  20  21
HETATM   21  N8  UNL     1     -53.780 -23.176  13.034  1.00  0.00    -0.075 N
ATOM     22  H83 UNL     1     -53.339 -23.793  13.716  1.00  0.00     0.274 HD
ATOM     23  H82 UNL     1     -53.471 -22.290  13.433  1.00  0.00     0.274 HD
ATOM     24  H81 UNL     1     -54.796 -23.269  13.014  1.00  0.00     0.274 HD
ENDBRANCH  20  21
ENDBRANCH  19  20
ENDBRANCH  17  19
ENDBRANCH  16  17
BRANCH   1  25
HETATM   25  N1  UNL     1     -51.108 -20.860  13.458  1.00  0.00    -0.382 N
ATOM     26  H12 UNL     1     -51.233 -19.867  13.656  1.00  0.00     0.157 HD
ATOM     27  H11 UNL     1     -51.695 -21.601  13.840  1.00  0.00     0.157 HD
ENDBRANCH   1  25
TORSDOF 5
ENDMDL