MODEL 4
REMARK VINA RESULT: -4.095128583      7.260      7.925
REMARK  4 active torsions:
REMARK  status: ('A' for Active; 'I' for Inactive)
REMARK    1  A    between atoms: C3_5  and  N2_6
REMARK    2  A    between atoms: N2_6  and  N3_8
REMARK    3  A    between atoms: C5_15  and  S1_16
REMARK    4  A    between atoms: S1_16  and  N5_17
ROOT
HETATM    1  C1  UNL     1     -48.732 -18.888   3.890  1.00  0.00     0.070 C
HETATM    2  C2  UNL     1     -48.007 -17.818   4.615  1.00  0.00     0.051 A
HETATM    3  N1  UNL     1     -46.898 -18.086   5.288  1.00  0.00    -0.193 N
ATOM      4  H1  UNL     1     -46.554 -19.046   5.296  1.00  0.00     0.184 HD
HETATM    5  C3  UNL     1     -46.206 -17.149   5.960  1.00  0.00     0.699 A
HETATM    6  N4  UNL     1     -46.670 -15.891   5.941  1.00  0.00    -0.153 N
ATOM      7  H4  UNL     1     -46.166 -15.159   6.442  1.00  0.00     0.187 HD
HETATM    8  C4  UNL     1     -47.789 -15.585   5.270  1.00  0.00     0.285 A
HETATM    9  O1  UNL     1     -48.260 -14.402   5.228  1.00  0.00    -0.266 OA
HETATM   10  C5  UNL     1     -48.510 -16.538   4.575  1.00  0.00     0.170 A
ENDROOT
BRANCH  10  11
HETATM   11  S1  UNL     1     -49.965 -16.173   3.694  1.00  0.00     0.264 S
HETATM   12  O2  UNL     1     -51.103 -16.263   4.681  1.00  0.00    -0.200 OA
HETATM   13  O3  UNL     1     -50.253 -17.189   2.625  1.00  0.00    -0.200 OA
BRANCH  11  14
HETATM   14  N5  UNL     1     -49.981 -14.592   3.048  1.00  0.00    -0.324 N
ATOM     15  H52 UNL     1     -49.734 -14.392   2.079  1.00  0.00     0.169 HD
ATOM     16  H51 UNL     1     -50.258 -13.884   3.728  1.00  0.00     0.169 HD
ENDBRANCH  11  14
ENDBRANCH  10  11
BRANCH   5  17
HETATM   17  N2  UNL     1     -45.128 -17.479   6.599  1.00  0.00    -0.138 N
ATOM     18  H2  UNL     1     -44.247 -17.506   6.085  1.00  0.00     0.205 HD
BRANCH  17  19
HETATM   19  N3  UNL     1     -45.118 -17.796   7.951  1.00  0.00    -0.331 N
ATOM     20  H32 UNL     1     -45.466 -18.715   8.221  1.00  0.00     0.177 HD
ATOM     21  H31 UNL     1     -44.781 -17.154   8.669  1.00  0.00     0.177 HD
ENDBRANCH  17  19
ENDBRANCH   5  17
TORSDOF 4
ENDMDL