MODEL 4
REMARK VINA RESULT: -4.075251666      5.983      7.594
REMARK  4 active torsions:
REMARK  status: ('A' for Active; 'I' for Inactive)
REMARK    1  A    between atoms: N1_1  and  C1_5
REMARK    2  A    between atoms: C1_5  and  C2_6
REMARK    3  A    between atoms: C2_6  and  N2_7
REMARK    4  A    between atoms: N2_7  and  C3_9
ROOT
HETATM    1  C3  UNL     1     -45.370 -18.248   6.209  1.00  0.00     0.144 A
HETATM    2  N3  UNL     1     -45.192 -16.925   6.058  1.00  0.00    -0.262 N
ATOM      3  H3  UNL     1     -44.338 -16.422   6.298  1.00  0.00     0.191 HD
HETATM    4  N4  UNL     1     -46.290 -16.359   5.549  1.00  0.00    -0.184 N
HETATM    5  N5  UNL     1     -46.568 -15.113   5.239  1.00  0.00    -0.229 N
ATOM      6  H5  UNL     1     -45.852 -14.403   5.393  1.00  0.00     0.194 HD
HETATM    7  C4  UNL     1     -47.737 -14.736   4.734  1.00  0.00     0.343 A
HETATM    8  O1  UNL     1     -48.016 -13.542   4.431  1.00  0.00    -0.245 OA
HETATM    9  N6  UNL     1     -48.700 -15.672   4.522  1.00  0.00    -0.272 N
ATOM     10  H6  UNL     1     -49.604 -15.399   4.134  1.00  0.00     0.174 HD
HETATM   11  C5  UNL     1     -48.456 -16.952   4.826  1.00  0.00     0.281 A
HETATM   12  O2  UNL     1     -49.339 -17.804   4.632  1.00  0.00    -0.265 OA
HETATM   13  C6  UNL     1     -47.237 -17.305   5.346  1.00  0.00     0.171 A
HETATM   14  C7  UNL     1     -46.655 -18.495   5.763  1.00  0.00     0.127 A
HETATM   15  N7  UNL     1     -47.342 -19.746   5.708  1.00  0.00    -0.096 NA
ENDROOT
BRANCH   1  16
HETATM   16  N2  UNL     1     -44.584 -19.147   6.655  1.00  0.00    -0.372 N
ATOM     17  H2  UNL     1     -44.626 -19.349   7.654  1.00  0.00     0.161 HD
BRANCH  16  18
HETATM   18  C2  UNL     1     -43.648 -19.894   5.876  1.00  0.00     0.148 C
BRANCH  18  19
HETATM   19  C1  UNL     1     -44.107 -21.333   5.823  1.00  0.00     0.249 C
BRANCH  19  20
HETATM   20  N1  UNL     1     -45.060 -21.657   6.846  1.00  0.00    -0.078 N
ATOM     21  H13 UNL     1     -45.636 -22.452   6.569  1.00  0.00     0.274 HD
ATOM     22  H12 UNL     1     -44.596 -22.062   7.659  1.00  0.00     0.274 HD
ATOM     23  H11 UNL     1     -45.641 -20.863   7.116  1.00  0.00     0.274 HD
ENDBRANCH  19  20
ENDBRANCH  18  19
ENDBRANCH  16  18
ENDBRANCH   1  16
TORSDOF 4
ENDMDL