MODEL 5
REMARK VINA RESULT: -4.945755085      2.618      6.217
REMARK  2 active torsions:
REMARK  status: ('A' for Active; 'I' for Inactive)
REMARK    1  A    between atoms: N3_4  and  N4_6
REMARK    2  A    between atoms: C2_8  and  C3_9
ROOT
HETATM    1  C3  UNL     1     -49.307 -21.036  10.566  1.00  0.00     0.090 A
HETATM    2  C4  UNL     1     -48.113 -20.346  10.512  1.00  0.00     0.137 A
HETATM    3  N5  UNL     1     -47.789 -19.482  11.587  1.00  0.00    -0.081 NA
HETATM    4  N6  UNL     1     -47.329 -20.533   9.447  1.00  0.00    -0.296 N
ATOM      5  H6  UNL     1     -46.440 -20.035   9.381  1.00  0.00     0.171 HD
HETATM    6  C5  UNL     1     -47.699 -21.370   8.462  1.00  0.00     0.328 A
HETATM    7  O1  UNL     1     -46.925 -21.526   7.457  1.00  0.00    -0.247 OA
HETATM    8  N7  UNL     1     -48.855 -22.060   8.477  1.00  0.00    -0.275 N
ATOM      9  H7  UNL     1     -49.110 -22.687   7.715  1.00  0.00     0.173 HD
HETATM   10  C6  UNL     1     -49.659 -21.885   9.543  1.00  0.00     0.264 A
HETATM   11  O2  UNL     1     -50.747 -22.517   9.585  1.00  0.00    -0.267 OA
ENDROOT
BRANCH   1  12
HETATM   12  C2  UNL     1     -50.194 -20.864  11.708  1.00  0.00     0.127 C
HETATM   13  N4  UNL     1     -49.825 -21.094  12.905  1.00  0.00    -0.309 N
ATOM     14  H4  UNL     1     -48.871 -21.412  13.075  1.00  0.00     0.186 HD
BRANCH  13  15
HETATM   15  N3  UNL     1     -50.683 -20.925  13.993  1.00  0.00    -0.276 N
HETATM   16  C1  UNL     1     -51.086 -21.891  14.735  1.00  0.00     0.215 C
HETATM   17  N1  UNL     1     -50.693 -23.240  14.520  1.00  0.00    -0.065 NA
HETATM   18  N2  UNL     1     -51.964 -21.565  15.815  1.00  0.00    -0.065 NA
ATOM     19  H3  UNL     1     -51.007 -19.983  14.210  1.00  0.00     0.189 HD
ENDBRANCH  13  15
ENDBRANCH   1  12
TORSDOF 2
ENDMDL