MODEL 4
REMARK VINA RESULT: -4.327217275      2.651      4.864
REMARK  5 active torsions:
REMARK  status: ('A' for Active; 'I' for Inactive)
REMARK    1  A    between atoms: N1_1  and  C1_4
REMARK    2  A    between atoms: C2_7  and  O1_8
REMARK    3  A    between atoms: O1_8  and  S1_9
REMARK    4  A    between atoms: S1_9  and  N3_10
REMARK    5  A    between atoms: C3_15  and  O4_16
ROOT
HETATM    1  C1  UNL     1     -52.420 -19.860  12.728  1.00  0.00     0.680 A
HETATM    2  N2  UNL     1     -51.390 -20.248  11.945  1.00  0.00    -0.167 N
ATOM      3  H2  UNL     1     -51.252 -19.782  11.048  1.00  0.00     0.186 HD
HETATM    4  C2  UNL     1     -50.541 -21.225  12.303  1.00  0.00     0.215 A
HETATM    5  C3  UNL     1     -50.691 -21.880  13.504  1.00  0.00     0.188 A
HETATM    6  C4  UNL     1     -51.746 -21.478  14.302  1.00  0.00     0.297 A
HETATM    7  O5  UNL     1     -51.934 -22.037  15.410  1.00  0.00    -0.264 OA
HETATM    8  N4  UNL     1     -52.586 -20.484  13.907  1.00  0.00    -0.154 N
ATOM      9  H4  UNL     1     -53.356 -20.207  14.516  1.00  0.00     0.187 HD
ENDROOT
BRANCH   4  10
HETATM   10  O1  UNL     1     -49.493 -21.607  11.483  1.00  0.00    -0.195 OA
BRANCH  10  11
HETATM   11  S1  UNL     1     -48.093 -20.669  11.279  1.00  0.00     0.362 S
HETATM   12  O2  UNL     1     -47.061 -20.937  12.326  1.00  0.00    -0.176 OA
HETATM   13  O3  UNL     1     -48.399 -19.191  11.302  1.00  0.00    -0.176 OA
BRANCH  11  14
HETATM   14  N3  UNL     1     -47.399 -21.019   9.736  1.00  0.00    -0.305 N
ATOM     15  H32 UNL     1     -47.054 -21.934   9.450  1.00  0.00     0.171 HD
ATOM     16  H31 UNL     1     -47.394 -20.168   9.173  1.00  0.00     0.171 HD
ENDBRANCH  11  14
ENDBRANCH  10  11
ENDBRANCH   4  10
BRANCH   5  17
HETATM   17  O4  UNL     1     -49.851 -22.898  13.938  1.00  0.00    -0.352 OA
ATOM     18  H4  UNL     1     -50.092 -23.817  13.935  1.00  0.00     0.218 HD
ENDBRANCH   5  17
BRANCH   1  19
HETATM   19  N1  UNL     1     -53.228 -18.911  12.357  1.00  0.00    -0.234 N
ATOM     20  H12 UNL     1     -53.583 -18.870  11.402  1.00  0.00     0.174 HD
ATOM     21  H11 UNL     1     -53.527 -18.186  13.010  1.00  0.00     0.174 HD
ENDBRANCH   1  19
TORSDOF 5
ENDMDL