MODEL 3
REMARK VINA RESULT: -6.470625001      1.517      1.582
REMARK  2 active torsions:
REMARK  status: ('A' for Active; 'I' for Inactive)
REMARK    1  A    between atoms: N4_10  and  C5_11
REMARK    2  A    between atoms: C9_15  and  O1_16
ROOT
HETATM    1  N1  UNL     1      16.763 -36.022 -42.805  1.00  0.00    -0.063 NA
HETATM    2  C1  UNL     1      16.110 -37.214 -42.382  1.00  0.00     0.192 C
HETATM    3  N2  UNL     1      16.150 -38.202 -43.236  1.00  0.00    -0.315 N
ATOM      4  H2  UNL     1      16.634 -38.056 -44.123  1.00  0.00     0.170 HD
HETATM    5  C2  UNL     1      15.545 -39.490 -42.988  1.00  0.00     0.134 A
HETATM    6  C3  UNL     1      15.117 -40.060 -41.821  1.00  0.00     0.057 A
HETATM    7  N3  UNL     1      14.633 -41.259 -42.101  1.00  0.00    -0.352 N
ATOM      8  H3  UNL     1      14.242 -41.914 -41.423  1.00  0.00     0.166 HD
HETATM    9  C4  UNL     1      14.739 -41.479 -43.433  1.00  0.00     0.185 A
HETATM   10  N4  UNL     1      15.303 -40.381 -43.965  1.00  0.00    -0.323 N
HETATM   11  C11 UNL     1      15.185 -39.433 -40.452  1.00  0.00     0.086 C
HETATM   12  C12 UNL     1      14.522 -38.079 -40.581  1.00  0.00     0.092 C
HETATM   13  C13 UNL     1      14.132 -37.572 -39.232  1.00  0.00     0.027 C
HETATM   14  C14 UNL     1      14.513 -36.102 -39.297  1.00  0.00     0.022 C
HETATM   15  C15 UNL     1      15.796 -36.148 -40.075  1.00  0.00     0.126 C
HETATM   16  N5  UNL     1      15.511 -37.155 -41.093  1.00  0.00    -0.350 N
ENDROOT
BRANCH  10  17
HETATM   17  C5  UNL     1      15.584 -40.234 -45.395  1.00  0.00     0.094 C
HETATM   18  C6  UNL     1      14.284 -40.064 -46.144  1.00  0.00     0.026 C
HETATM   19  C7  UNL     1      13.894 -41.438 -46.668  1.00  0.00     0.004 C
HETATM   20  C8  UNL     1      14.841 -41.688 -47.850  1.00  0.00     0.032 C
HETATM   21  C9  UNL     1      16.262 -41.617 -47.379  1.00  0.00     0.120 C
HETATM   22  C10 UNL     1      16.406 -41.392 -45.907  1.00  0.00     0.057 C
BRANCH  21  23
HETATM   23  O1  UNL     1      16.861 -42.845 -47.673  1.00  0.00    -0.396 OA
ATOM     24  H1  UNL     1      17.067 -43.265 -46.846  1.00  0.00     0.210 HD
ENDBRANCH  21  23
ENDBRANCH  10  17
TORSDOF 2
ENDMDL