MODEL 2
REMARK VINA RESULT: -5.985633326      1.606      1.712
REMARK  2 active torsions:
REMARK  status: ('A' for Active; 'I' for Inactive)
REMARK    1  A    between atoms: N2_5  and  C3_6
REMARK    2  A    between atoms: C6_16  and  C7_17
ROOT
HETATM    1  C7  UNL     1      12.599 -38.403 -41.540  1.00  0.00     0.074 C
HETATM    2  C8  UNL     1      11.700 -39.590 -41.302  1.00  0.00     0.036 C
HETATM    3  C9  UNL     1      11.716 -37.176 -41.465  1.00  0.00     0.036 C
HETATM    4  C10 UNL     1      13.452 -38.327 -40.320  1.00  0.00     0.073 C
HETATM    5  N5  UNL     1      14.107 -38.250 -39.358  1.00  0.00    -0.196 NA
ENDROOT
BRANCH   1   6
HETATM    6  C6  UNL     1      13.384 -38.475 -42.750  1.00  0.00     0.027 A
HETATM    7  C2  UNL     1      14.151 -37.470 -43.297  1.00  0.00     0.034 A
HETATM    8  C1  UNL     1      14.305 -36.123 -42.723  1.00  0.00     0.070 C
HETATM    9  N1  UNL     1      14.734 -37.920 -44.431  1.00  0.00    -0.295 N
HETATM   10  N2  UNL     1      14.363 -39.160 -44.614  1.00  0.00    -0.221 N
ATOM     11  H1  UNL     1      15.355 -37.384 -45.038  1.00  0.00     0.187 HD
HETATM   12  C5  UNL     1      13.530 -39.540 -43.600  1.00  0.00     0.135 A
HETATM   13  S2  UNL     1      12.902 -41.042 -43.554  1.00  0.00    -0.058 SA
BRANCH  10  14
HETATM   14  C3  UNL     1      14.765 -40.002 -45.714  1.00  0.00     0.191 A
HETATM   15  N3  UNL     1      14.239 -40.138 -46.913  1.00  0.00    -0.275 N
HETATM   16  N4  UNL     1      14.739 -40.939 -47.759  1.00  0.00    -0.258 N
ATOM     17  H3  UNL     1      13.417 -39.589 -47.165  1.00  0.00     0.189 HD
HETATM   18  C4  UNL     1      15.814 -41.652 -47.412  1.00  0.00     0.305 A
ATOM     19  H4  UNL     1      14.327 -41.037 -48.687  1.00  0.00     0.191 HD
HETATM   20  O1  UNL     1      16.457 -42.506 -48.120  1.00  0.00    -0.258 OA
HETATM   21  S1  UNL     1      16.078 -41.112 -45.805  1.00  0.00     0.012 SA
ENDBRANCH  10  14
ENDBRANCH   1   6
TORSDOF 2
ENDMDL