MODEL 2
REMARK VINA RESULT: -6.453193889      2.127      4.880
REMARK  2 active torsions:
REMARK  status: ('A' for Active; 'I' for Inactive)
REMARK    1  A    between atoms: C4_6  and  C5_7
REMARK    2  A    between atoms: C11_18  and  N5_19
ROOT
HETATM    1  C5  UNL     1      14.180 -41.334 -42.726  1.00  0.00     0.087 C
HETATM    2  C6  UNL     1      14.192 -41.535 -44.174  1.00  0.00     0.022 A
HETATM    3  C7  UNL     1      15.166 -41.382 -45.133  1.00  0.00     0.033 A
HETATM    4  C8  UNL     1      16.540 -40.944 -44.911  1.00  0.00     0.070 C
HETATM    5  N2  UNL     1      14.613 -41.711 -46.299  1.00  0.00    -0.301 N
ATOM      6  H2  UNL     1      15.102 -41.692 -47.195  1.00  0.00     0.187 HD
HETATM    7  N3  UNL     1      13.353 -42.063 -46.146  1.00  0.00    -0.281 N
HETATM    8  C9  UNL     1      12.409 -42.483 -47.153  1.00  0.00     0.179 C
HETATM    9  C10 UNL     1      13.055 -41.964 -44.822  1.00  0.00     0.128 A
HETATM   10  N4  UNL     1      11.893 -42.200 -44.057  1.00  0.00    -0.347 N
ATOM     11  H4  UNL     1      10.976 -42.094 -44.491  1.00  0.00     0.163 HD
HETATM   12  C11 UNL     1      11.984 -42.591 -42.668  1.00  0.00     0.291 C
HETATM   13  C12 UNL     1      13.310 -42.336 -42.048  1.00  0.00     0.011 C
HETATM   14  C13 UNL     1      14.101 -43.658 -42.063  1.00  0.00     0.020 C
HETATM   15  C14 UNL     1      13.127 -42.008 -40.567  1.00  0.00     0.020 C
ENDROOT
BRANCH   1  16
HETATM   16  C4  UNL     1      13.918 -39.921 -42.327  1.00  0.00     0.035 A
HETATM   17  C3  UNL     1      14.825 -39.093 -41.705  1.00  0.00     0.115 A
HETATM   18  N1  UNL     1      14.227 -37.912 -41.513  1.00  0.00    -0.354 N
HETATM   19  C2  UNL     1      12.982 -37.998 -42.001  1.00  0.00     0.077 A
ATOM     20  H1  UNL     1      14.644 -37.092 -41.073  1.00  0.00     0.166 HD
HETATM   21  C1  UNL     1      11.963 -36.904 -41.993  1.00  0.00     0.089 C
HETATM   22  N6  UNL     1      12.790 -39.226 -42.500  1.00  0.00    -0.348 N
ATOM     23  H6  UNL     1      11.934 -39.570 -42.935  1.00  0.00     0.167 HD
ENDBRANCH   1  16
BRANCH  12  24
HETATM   24  N5  UNL     1      11.690 -44.036 -42.660  1.00  0.00    -0.058 N
ATOM     25  H53 UNL     1      10.775 -44.270 -42.274  1.00  0.00     0.276 HD
ATOM     26  H52 UNL     1      11.528 -44.431 -43.588  1.00  0.00     0.276 HD
ATOM     27  H51 UNL     1      12.471 -44.459 -42.160  1.00  0.00     0.276 HD
ENDBRANCH  12  24
TORSDOF 2
ENDMDL