MODEL 5
REMARK VINA RESULT: -6.154565542      1.568      3.276
REMARK  4 active torsions:
REMARK  status: ('A' for Active; 'I' for Inactive)
REMARK    1  A    between atoms: C2_2  and  S1_4
REMARK    2  A    between atoms: S1_4  and  C3_5
REMARK    3  A    between atoms: C6_10  and  N2_11
REMARK    4  A    between atoms: N4_19  and  O2_20
ROOT
HETATM    1  C3  UNL     1      13.514 -43.038 -43.269  1.00  0.00     0.153 A
HETATM    2  N1  UNL     1      13.443 -42.469 -42.039  1.00  0.00    -0.337 N
ATOM      3  H1  UNL     1      12.890 -42.895 -41.295  1.00  0.00     0.168 HD
HETATM    4  C4  UNL     1      14.122 -41.326 -41.828  1.00  0.00     0.048 A
HETATM    5  C5  UNL     1      14.879 -40.718 -42.802  1.00  0.00     0.035 A
HETATM    6  C6  UNL     1      14.937 -41.314 -44.045  1.00  0.00     0.111 A
HETATM    7  N3  UNL     1      14.246 -42.453 -44.217  1.00  0.00    -0.322 N
ATOM      8  H3  UNL     1      14.283 -42.900 -45.134  1.00  0.00     0.169 HD
HETATM    9  C7  UNL     1      15.455 -39.502 -42.188  1.00  0.00     0.065 C
HETATM   10  C8  UNL     1      16.897 -39.288 -42.598  1.00  0.00     0.040 C
HETATM   11  C9  UNL     1      14.583 -38.336 -42.594  1.00  0.00     0.040 C
HETATM   12  N4  UNL     1      15.419 -39.788 -40.793  1.00  0.00    -0.171 NA
HETATM   13  C10 UNL     1      14.194 -40.529 -40.560  1.00  0.00     0.075 C
HETATM   14  C11 UNL     1      14.422 -41.428 -39.364  1.00  0.00     0.041 C
HETATM   15  C12 UNL     1      12.994 -39.657 -40.357  1.00  0.00     0.041 C
ENDROOT
BRANCH   1  16
HETATM   16  S1  UNL     1      12.609 -44.554 -43.539  1.00  0.00    -0.017 SA
BRANCH  16  17
HETATM   17  C2  UNL     1      13.101 -45.801 -42.349  1.00  0.00     0.189 C
HETATM   18  C1  UNL     1      14.505 -45.816 -41.877  1.00  0.00     0.105 C
HETATM   19  O1  UNL     1      12.272 -46.605 -41.959  1.00  0.00    -0.285 OA
ENDBRANCH  16  17
ENDBRANCH   1  16
BRANCH   6  20
HETATM   20  N2  UNL     1      15.638 -40.772 -44.988  1.00  0.00    -0.385 N
ATOM     21  H22 UNL     1      15.515 -41.007 -45.973  1.00  0.00     0.157 HD
ATOM     22  H21 UNL     1      16.350 -40.079 -44.757  1.00  0.00     0.157 HD
ENDBRANCH   6  20
BRANCH  12  23
HETATM   23  O2  UNL     1      15.563 -38.738 -39.989  1.00  0.00    -0.311 OA
ATOM     24  H2  UNL     1      14.991 -38.722 -39.231  1.00  0.00     0.237 HD
ENDBRANCH  12  23
TORSDOF 4
ENDMDL