MODEL 2
REMARK VINA RESULT: -6.084871053      2.648      3.868
REMARK  5 active torsions:
REMARK  status: ('A' for Active; 'I' for Inactive)
REMARK    1  A    between atoms: C4_4  and  C5_5
REMARK    2  A    between atoms: C7_7  and  O1_9
REMARK    3  A    between atoms: C10_12  and  O2_13
REMARK    4  A    between atoms: C15_20  and  O4_21
REMARK    5  A    between atoms: O4_21  and  O5_22
ROOT
HETATM    1  C5  UNL     1      14.360 -40.508 -42.007  1.00  0.00     0.009 C
HETATM    2  C6  UNL     1      13.540 -41.335 -42.629  1.00  0.00    -0.006 C
HETATM    3  C7  UNL     1      12.980 -42.453 -41.825  1.00  0.00     0.083 C
HETATM    4  C8  UNL     1      12.035 -41.876 -40.803  1.00  0.00     0.051 C
HETATM    5  C9  UNL     1      12.132 -43.291 -42.756  1.00  0.00     0.076 C
HETATM    6  C10 UNL     1      12.959 -43.606 -43.967  1.00  0.00     0.153 C
HETATM    7  C11 UNL     1      13.065 -42.366 -44.871  1.00  0.00     0.192 C
HETATM    8  O3  UNL     1      14.015 -42.680 -45.780  1.00  0.00    -0.380 OA
HETATM    9  C12 UNL     1      14.474 -41.732 -46.626  1.00  0.00     0.168 C
HETATM   10  C13 UNL     1      14.361 -40.319 -46.151  1.00  0.00     0.030 C
HETATM   11  C14 UNL     1      14.280 -40.229 -44.632  1.00  0.00     0.051 C
HETATM   12  C15 UNL     1      13.222 -41.113 -44.072  1.00  0.00     0.151 C
ENDROOT
BRANCH   1  13
HETATM   13  C4  UNL     1      14.759 -40.602 -40.618  1.00  0.00     0.002 C
HETATM   14  C2  UNL     1      14.579 -39.521 -39.842  1.00  0.00    -0.088 C
HETATM   15  C1  UNL     1      14.964 -39.545 -38.411  1.00  0.00     0.043 C
HETATM   16  C3  UNL     1      13.992 -38.303 -40.434  1.00  0.00     0.043 C
ENDBRANCH   1  13
BRANCH   3  17
HETATM   17  O1  UNL     1      13.992 -43.238 -41.278  1.00  0.00    -0.385 OA
ATOM     18  H1  UNL     1      14.072 -44.066 -41.738  1.00  0.00     0.211 HD
ENDBRANCH   3  17
BRANCH  12  19
HETATM   19  O4  UNL     1      11.968 -40.448 -44.003  1.00  0.00    -0.224 OA
BRANCH  19  20
HETATM   20  O5  UNL     1      11.976 -39.386 -43.285  1.00  0.00    -0.249 OA
ATOM     21  H5  UNL     1      11.599 -38.625 -43.712  1.00  0.00     0.253 HD
ENDBRANCH  19  20
ENDBRANCH  12  19
BRANCH   6  22
HETATM   22  O2  UNL     1      12.289 -44.566 -44.721  1.00  0.00    -0.393 OA
ATOM     23  H2  UNL     1      12.911 -45.239 -44.972  1.00  0.00     0.210 HD
ENDBRANCH   6  22
TORSDOF 5
ENDMDL