MODEL 3
REMARK VINA RESULT: -6.398680862      1.608      1.928
REMARK  1 active torsions:
REMARK  status: ('A' for Active; 'I' for Inactive)
REMARK    1  A    between atoms: C8_20  and  C9_21
ROOT
HETATM    1  C1  UNL     1      14.037 -41.770 -41.276  1.00  0.00     0.069 C
HETATM    2  C2  UNL     1      13.686 -41.234 -42.665  1.00  0.00     0.017 C
HETATM    3  N1  UNL     1      12.865 -41.877 -43.409  1.00  0.00    -0.388 N
ATOM      4  H1  UNL     1      12.488 -42.741 -43.019  1.00  0.00     0.159 HD
HETATM    5  C3  UNL     1      12.413 -41.528 -44.724  1.00  0.00     0.164 C
HETATM    6  C4  UNL     1      12.877 -42.609 -45.637  1.00  0.00     0.083 C
HETATM    7  N2  UNL     1      14.041 -42.214 -46.248  1.00  0.00    -0.343 N
ATOM      8  H2  UNL     1      14.079 -42.669 -47.161  1.00  0.00     0.167 HD
HETATM    9  C5  UNL     1      15.059 -41.527 -46.133  1.00  0.00     0.193 C
HETATM   10  N3  UNL     1      15.865 -41.699 -47.403  1.00  0.00    -0.063 NA
HETATM   11  N4  UNL     1      15.588 -40.698 -45.138  1.00  0.00    -0.316 N
ATOM     12  H4  UNL     1      16.605 -40.780 -45.152  1.00  0.00     0.170 HD
HETATM   13  C6  UNL     1      15.228 -39.802 -44.136  1.00  0.00     0.124 A
HETATM   14  N5  UNL     1      15.840 -38.550 -44.125  1.00  0.00    -0.318 N
ATOM     15  H5  UNL     1      16.476 -38.339 -44.895  1.00  0.00     0.170 HD
HETATM   16  C7  UNL     1      15.677 -37.623 -43.223  1.00  0.00     0.177 A
HETATM   17  S1  UNL     1      16.430 -36.174 -43.272  1.00  0.00    -0.040 SA
HETATM   18  N6  UNL     1      14.855 -37.851 -42.201  1.00  0.00    -0.335 N
ATOM     19  H6  UNL     1      14.731 -37.123 -41.497  1.00  0.00     0.168 HD
HETATM   20  C8  UNL     1      14.166 -39.037 -42.061  1.00  0.00     0.035 A
HETATM   21  C13 UNL     1      14.373 -39.990 -43.036  1.00  0.00     0.053 A
ENDROOT
BRANCH  20  22
HETATM   22  C9  UNL     1      13.159 -39.088 -40.964  1.00  0.00    -0.000 A
HETATM   23  C10 UNL     1      13.766 -38.400 -39.635  1.00  0.00     0.022 C
HETATM   24  C11 UNL     1      12.196 -37.877 -41.423  1.00  0.00     0.016 A
HETATM   25  C12 UNL     1      11.690 -39.119 -40.975  1.00  0.00     0.016 A
ENDBRANCH  20  22
TORSDOF 1
ENDMDL