MODEL 3
REMARK VINA RESULT: -5.312354364      3.850      6.037
REMARK  3 active torsions:
REMARK  status: ('A' for Active; 'I' for Inactive)
REMARK    1  A    between atoms: C2_2  and  O1_5
REMARK    2  A    between atoms: O1_5  and  C5_6
REMARK    3  A    between atoms: C5_6  and  C6_8
ROOT
HETATM    1  C6  UNL     1      14.176 -39.252 -42.946  1.00  0.00     0.215 C
HETATM    2  S1  UNL     1      13.340 -37.701 -42.482  1.00  0.00    -0.070 SA
HETATM    3  S2  UNL     1      14.236 -36.186 -43.728  1.00  0.00    -0.021 SA
HETATM    4  C7  UNL     1      15.942 -36.691 -43.784  1.00  0.00     0.146 C
HETATM    5  N1  UNL     1      16.843 -35.795 -43.873  1.00  0.00    -0.379 N
ATOM      6  H11 UNL     1      17.821 -36.085 -43.905  1.00  0.00     0.158 HD
ATOM      7  H12 UNL     1      16.659 -34.793 -43.914  1.00  0.00     0.158 HD
HETATM    8  N2  UNL     1      16.195 -38.076 -43.726  1.00  0.00    -0.336 N
ATOM      9  H2  UNL     1      17.121 -38.401 -43.446  1.00  0.00     0.164 HD
HETATM   10  C8  UNL     1      15.176 -39.047 -44.054  1.00  0.00     0.221 C
HETATM   11  C9  UNL     1      15.838 -40.336 -44.379  1.00  0.00     0.065 C
HETATM   12  C10 UNL     1      16.154 -40.185 -45.858  1.00  0.00     0.032 C
HETATM   13  C11 UNL     1      14.968 -39.397 -46.345  1.00  0.00     0.235 C
HETATM   14  N3  UNL     1      14.504 -38.586 -45.255  1.00  0.00    -0.047 N
ATOM     15  H31 UNL     1      14.626 -37.587 -45.421  1.00  0.00     0.280 HD
ATOM     16  H32 UNL     1      13.488 -38.582 -45.166  1.00  0.00     0.280 HD
ENDROOT
BRANCH   1  17
HETATM   17  C5  UNL     1      14.719 -39.966 -41.790  1.00  0.00     0.278 C
HETATM   18  O2  UNL     1      15.362 -39.372 -40.857  1.00  0.00    -0.264 OA
BRANCH  17  19
HETATM   19  O1  UNL     1      14.595 -41.340 -41.584  1.00  0.00    -0.310 OA
BRANCH  19  20
HETATM   20  C2  UNL     1      13.521 -41.920 -40.881  1.00  0.00     0.060 C
HETATM   21  C1  UNL     1      13.076 -43.149 -41.648  1.00  0.00     0.045 C
HETATM   22  C3  UNL     1      12.337 -41.001 -40.745  1.00  0.00     0.045 C
HETATM   23  C4  UNL     1      13.956 -42.338 -39.485  1.00  0.00     0.045 C
ENDBRANCH  19  20
ENDBRANCH  17  19
ENDBRANCH   1  17
TORSDOF 3
ENDMDL