MODEL 5
REMARK VINA RESULT: -5.560673757      2.730      4.316
REMARK  3 active torsions:
REMARK  status: ('A' for Active; 'I' for Inactive)
REMARK    1  A    between atoms: C3_6  and  C4_7
REMARK    2  A    between atoms: C4_7  and  O1_8
REMARK    3  A    between atoms: C11_19  and  N4_20
ROOT
HETATM    1  C1  UNL     1      12.283 -44.038 -42.611  1.00  0.00     0.197 C
HETATM    2  N1  UNL     1      12.761 -43.226 -43.721  1.00  0.00    -0.126 N
HETATM    3  N2  UNL     1      13.557 -42.180 -43.669  1.00  0.00    -0.267 N
ATOM      4  H2  UNL     1      13.957 -41.790 -42.817  1.00  0.00     0.189 HD
HETATM    5  C2  UNL     1      13.769 -41.694 -44.934  1.00  0.00     0.162 A
HETATM    6  C3  UNL     1      14.498 -40.647 -45.440  1.00  0.00     0.066 A
HETATM    7  S1  UNL     1      14.190 -40.784 -47.116  1.00  0.00    -0.057 SA
HETATM    8  C10 UNL     1      13.163 -42.151 -47.069  1.00  0.00     0.168 A
HETATM    9  S2  UNL     1      12.465 -42.864 -48.369  1.00  0.00    -0.051 SA
HETATM   10  N3  UNL     1      13.106 -42.438 -45.764  1.00  0.00    -0.112 N
HETATM   11  C11 UNL     1      12.471 -43.400 -45.022  1.00  0.00     0.702 A
ENDROOT
BRANCH   6  12
HETATM   12  C4  UNL     1      15.349 -39.630 -44.767  1.00  0.00     0.095 C
HETATM   13  C5  UNL     1      15.183 -38.289 -45.444  1.00  0.00     0.043 C
HETATM   14  C6  UNL     1      15.416 -37.152 -44.455  1.00  0.00     0.003 C
HETATM   15  C7  UNL     1      14.367 -37.181 -43.363  1.00  0.00     0.000 C
HETATM   16  C8  UNL     1      13.801 -38.574 -43.162  1.00  0.00     0.003 C
HETATM   17  C9  UNL     1      14.983 -39.537 -43.327  1.00  0.00     0.043 C
BRANCH  12  18
HETATM   18  O1  UNL     1      16.707 -39.980 -44.845  1.00  0.00    -0.384 OA
ATOM     19  H1  UNL     1      17.242 -39.375 -44.345  1.00  0.00     0.211 HD
ENDBRANCH  12  18
ENDBRANCH   6  12
BRANCH  11  20
HETATM   20  N4  UNL     1      11.700 -44.359 -45.405  1.00  0.00    -0.233 N
ATOM     21  H42 UNL     1      10.793 -44.649 -45.041  1.00  0.00     0.174 HD
ATOM     22  H41 UNL     1      11.964 -44.964 -46.182  1.00  0.00     0.174 HD
ENDBRANCH  11  20
TORSDOF 3
ENDMDL