MODEL 3
REMARK VINA RESULT: -6.293606998      2.239      5.352
REMARK  3 active torsions:
REMARK  status: ('A' for Active; 'I' for Inactive)
REMARK    1  A    between atoms: C2_2  and  C4_4
REMARK    2  A    between atoms: C14_15  and  N1_16
REMARK    3  A    between atoms: C15_20  and  O2_21
ROOT
HETATM    1  C4  UNL     1      15.550 -40.394 -44.761  1.00  0.00     0.164 C
HETATM    2  C5  UNL     1      15.334 -40.191 -46.236  1.00  0.00     0.043 C
HETATM    3  C6  UNL     1      15.008 -41.533 -46.863  1.00  0.00     0.085 C
HETATM    4  C7  UNL     1      13.674 -41.610 -47.466  1.00  0.00     0.149 C
HETATM    5  O1  UNL     1      13.470 -40.801 -48.445  1.00  0.00    -0.293 OA
HETATM    6  C8  UNL     1      12.572 -42.475 -47.103  1.00  0.00     0.046 C
HETATM    7  C9  UNL     1      11.896 -42.480 -45.975  1.00  0.00    -0.020 C
HETATM    8  C10 UNL     1      12.094 -41.603 -44.805  1.00  0.00     0.071 C
HETATM    9  C11 UNL     1      12.887 -42.330 -43.769  1.00  0.00     0.127 C
HETATM   10  C12 UNL     1      12.606 -41.827 -42.373  1.00  0.00     0.046 C
HETATM   11  C13 UNL     1      12.191 -43.010 -41.563  1.00  0.00     0.038 C
HETATM   12  C14 UNL     1      12.727 -44.214 -42.324  1.00  0.00     0.215 C
HETATM   13  C15 UNL     1      12.618 -43.815 -43.789  1.00  0.00     0.186 C
HETATM   14  O3  UNL     1      14.247 -42.059 -44.008  1.00  0.00    -0.226 OA
HETATM   15  O4  UNL     1      14.323 -40.763 -44.206  1.00  0.00    -0.234 OA
ENDROOT
BRANCH  13  16
HETATM   16  O2  UNL     1      13.437 -44.530 -44.621  1.00  0.00    -0.390 OA
ATOM     17  H2  UNL     1      13.401 -45.471 -44.497  1.00  0.00     0.210 HD
ENDBRANCH  13  16
BRANCH  12  18
HETATM   18  N1  UNL     1      14.104 -44.467 -42.037  1.00  0.00    -0.072 N
ATOM     19  H13 UNL     1      14.649 -43.605 -42.052  1.00  0.00     0.274 HD
ATOM     20  H12 UNL     1      14.235 -44.726 -41.059  1.00  0.00     0.274 HD
ATOM     21  H11 UNL     1      14.507 -45.168 -42.660  1.00  0.00     0.274 HD
ENDBRANCH  12  18
BRANCH   1  22
HETATM   22  C2  UNL     1      15.994 -39.141 -44.054  1.00  0.00     0.009 C
HETATM   23  C1  UNL     1      14.770 -38.276 -43.854  1.00  0.00     0.012 C
HETATM   24  C3  UNL     1      16.671 -39.419 -42.739  1.00  0.00     0.012 C
ENDBRANCH   1  22
TORSDOF 3
ENDMDL