MODEL 1
REMARK VINA RESULT: -6.078033893      0.000      0.000
REMARK  3 active torsions:
REMARK  status: ('A' for Active; 'I' for Inactive)
REMARK       I    between atoms: C1_2  and  N2_4
REMARK    1  A    between atoms: N2_4  and  C2_6
REMARK    2  A    between atoms: C2_6  and  O2_7
REMARK    3  A    between atoms: C3_11  and  C4_12
ROOT
HETATM    1  C2  UNL     1      25.878  18.839  46.576  1.00  0.00     0.347 C
HETATM    2  N3  UNL     1      26.262  19.194  45.269  1.00  0.00    -0.308 N
ATOM      3  H3  UNL     1      25.925  20.063  44.857  1.00  0.00     0.167 HD
HETATM    4  C3  UNL     1      27.015  18.445  44.618  1.00  0.00     0.181 C
HETATM    5  N5  UNL     1      27.445  17.252  45.255  1.00  0.00    -0.260 N
ATOM      6  H5  UNL     1      27.881  16.433  44.832  1.00  0.00     0.180 HD
HETATM    7  S1  UNL     1      27.053  17.517  46.924  1.00  0.00     0.307 S
HETATM    8  O4  UNL     1      28.174  18.112  47.679  1.00  0.00    -0.198 OA
HETATM    9  O5  UNL     1      26.416  16.355  47.559  1.00  0.00    -0.198 OA
ENDROOT
BRANCH   1  10
HETATM   10  N2  UNL     1      24.528  18.318  46.604  1.00  0.00    -0.281 N
HETATM   11  C1  UNL     1      23.416  19.044  46.116  1.00  0.00     0.333 C
HETATM   12  N1  UNL     1      22.107  18.513  46.155  1.00  0.00    -0.040 NA
HETATM   13  O1  UNL     1      23.576  20.186  45.635  1.00  0.00    -0.251 OA
ATOM     14  H2  UNL     1      24.372  17.387  46.992  1.00  0.00     0.169 HD
ENDBRANCH   1  10
BRANCH   1  15
HETATM   15  O2  UNL     1      25.973  19.839  47.521  1.00  0.00    -0.340 OA
ATOM     16  H2  UNL     1      25.460  20.580  47.222  1.00  0.00     0.215 HD
ENDBRANCH   1  15
BRANCH   4  17
HETATM   17  C4  UNL     1      27.455  18.764  43.238  1.00  0.00     0.299 C
HETATM   18  N4  UNL     1      27.756  17.763  42.298  1.00  0.00    -0.054 NA
HETATM   19  O3  UNL     1      27.574  19.962  42.858  1.00  0.00    -0.268 OA
ENDBRANCH   4  17
TORSDOF 3
ENDMDL