MODEL 4
REMARK VINA RESULT: -6.043437785      1.862      2.098
REMARK  9 active torsions:
REMARK  status: ('A' for Active; 'I' for Inactive)
REMARK    1  A    between atoms: N1_1  and  N2_4
REMARK       I    between atoms: N2_4  and  C1_6
REMARK    2  A    between atoms: C1_6  and  C2_8
REMARK       I    between atoms: C2_8  and  N3_10
REMARK    3  A    between atoms: N3_10  and  N4_12
REMARK    4  A    between atoms: N4_12  and  C3_14
REMARK    5  A    between atoms: C3_14  and  O3_15
REMARK    6  A    between atoms: C3_14  and  N5_17
REMARK    7  A    between atoms: N5_17  and  C4_19
REMARK    8  A    between atoms: C4_19  and  O4_20
REMARK    9  A    between atoms: C4_19  and  C5_22
ROOT
HETATM    1  N4  UNL     1      25.993  19.706  47.684  1.00  0.00    -0.262 N
ATOM      2  H4  UNL     1      26.270  20.619  47.323  1.00  0.00     0.190 HD
ENDROOT
BRANCH   1   3
HETATM    3  N3  UNL     1      26.969  18.677  47.842  1.00  0.00    -0.259 N
HETATM    4  C2  UNL     1      27.128  17.741  46.816  1.00  0.00     0.329 C
HETATM    5  O2  UNL     1      26.444  17.765  45.755  1.00  0.00    -0.261 OA
ATOM      6  H3  UNL     1      27.539  18.626  48.686  1.00  0.00     0.190 HD
BRANCH   4   7
HETATM    7  C1  UNL     1      28.136  16.678  46.974  1.00  0.00     0.329 C
HETATM    8  N2  UNL     1      29.269  16.877  47.801  1.00  0.00    -0.268 N
ATOM      9  H2  UNL     1      29.401  17.759  48.297  1.00  0.00     0.190 HD
HETATM   10  O1  UNL     1      28.012  15.578  46.380  1.00  0.00    -0.261 OA
BRANCH   8  11
HETATM   11  N1  UNL     1      30.199  15.850  47.926  1.00  0.00    -0.342 N
ATOM     12  H12 UNL     1      30.250  15.127  47.209  1.00  0.00     0.176 HD
ATOM     13  H11 UNL     1      30.816  15.840  48.737  1.00  0.00     0.176 HD
ENDBRANCH   8  11
ENDBRANCH   4   7
ENDBRANCH   1   3
BRANCH   1  14
HETATM   14  C3  UNL     1      24.671  19.468  48.019  1.00  0.00     0.238 C
BRANCH  14  15
HETATM   15  O3  UNL     1      24.302  20.039  49.142  1.00  0.00    -0.331 OA
ATOM     16  H3  UNL     1      23.549  20.611  49.050  1.00  0.00     0.221 HD
ENDBRANCH  14  15
BRANCH  14  17
HETATM   17  N5  UNL     1      23.705  18.736  47.362  1.00  0.00    -0.303 N
ATOM     18  H5  UNL     1      23.329  17.994  47.953  1.00  0.00     0.171 HD
BRANCH  17  19
HETATM   19  C4  UNL     1      23.111  18.740  46.111  1.00  0.00     0.150 C
BRANCH  19  20
HETATM   20  O4  UNL     1      21.975  18.087  45.994  1.00  0.00    -0.347 OA
ATOM     21  H4  UNL     1      21.757  17.761  45.128  1.00  0.00     0.219 HD
ENDBRANCH  19  20
BRANCH  19  22
HETATM   22  C5  UNL     1      23.575  19.378  44.887  1.00  0.00     0.219 A
HETATM   23  C6  UNL     1      23.470  20.902  44.786  1.00  0.00     0.209 A
HETATM   24  O5  UNL     1      22.602  20.051  44.124  1.00  0.00    -0.373 OA
ENDBRANCH  19  22
ENDBRANCH  17  19
ENDBRANCH  14  17
ENDBRANCH   1  14
TORSDOF 9
ENDMDL