MODEL 5
REMARK VINA RESULT: -5.521732414      2.077      2.156
REMARK  5 active torsions:
REMARK  status: ('A' for Active; 'I' for Inactive)
REMARK    1  A    between atoms: N1_1  and  N2_4
REMARK    2  A    between atoms: C3_11  and  N5_12
REMARK    3  A    between atoms: N6_16  and  O1_17
REMARK    4  A    between atoms: C4_19  and  N7_20
REMARK    5  A    between atoms: N7_20  and  C5_22
ROOT
HETATM    1  N2  UNL     1      27.424  18.636  42.819  1.00  0.00    -0.289 N
ATOM      2  H2  UNL     1      27.218  19.484  42.292  1.00  0.00     0.188 HD
HETATM    3  C1  UNL     1      27.165  18.556  44.075  1.00  0.00     0.167 A
HETATM    4  N3  UNL     1      27.416  17.425  44.877  1.00  0.00    -0.327 N
ATOM      5  H3  UNL     1      27.834  16.607  44.433  1.00  0.00     0.168 HD
HETATM    6  C2  UNL     1      27.153  17.360  46.120  1.00  0.00     0.147 A
HETATM    7  N4  UNL     1      27.447  16.146  46.876  1.00  0.00    -0.083 NA
HETATM    8  C3  UNL     1      26.553  18.499  46.822  1.00  0.00     0.376 A
HETATM    9  N6  UNL     1      26.314  19.627  45.972  1.00  0.00    -0.202 N
HETATM   10  C4  UNL     1      26.569  19.719  44.713  1.00  0.00     0.178 A
ENDROOT
BRANCH   1  11
HETATM   11  N1  UNL     1      27.997  17.521  42.199  1.00  0.00    -0.344 N
ATOM     12  H12 UNL     1      27.652  17.204  41.293  1.00  0.00     0.176 HD
ATOM     13  H11 UNL     1      28.759  17.046  42.683  1.00  0.00     0.176 HD
ENDBRANCH   1  11
BRANCH  10  14
HETATM   14  N7  UNL     1      26.276  20.917  43.978  1.00  0.00    -0.317 N
ATOM     15  H7  UNL     1      27.024  21.601  43.862  1.00  0.00     0.169 HD
BRANCH  14  16
HETATM   16  C5  UNL     1      25.020  21.206  43.408  1.00  0.00     0.186 C
HETATM   17  N8  UNL     1      23.998  21.762  44.222  1.00  0.00    -0.070 NA
HETATM   18  S1  UNL     1      24.665  20.933  41.843  1.00  0.00    -0.044 SA
ENDBRANCH  14  16
ENDBRANCH  10  14
BRANCH   9  19
HETATM   19  O1  UNL     1      25.740  20.776  46.538  1.00  0.00    -0.283 OA
ATOM     20  H1  UNL     1      26.266  21.566  46.581  1.00  0.00     0.245 HD
ENDBRANCH   9  19
BRANCH   8  21
HETATM   21  N5  UNL     1      27.450  18.874  47.939  1.00  0.00    -0.049 N
ATOM     22  H53 UNL     1      27.112  18.545  48.843  1.00  0.00     0.277 HD
ATOM     23  H52 UNL     1      28.331  18.360  47.926  1.00  0.00     0.277 HD
ATOM     24  H51 UNL     1      27.583  19.885  47.912  1.00  0.00     0.277 HD
ENDBRANCH   8  21
TORSDOF 5
ENDMDL