MODEL 2
REMARK VINA RESULT: -6.835318297      1.529      1.881
REMARK  3 active torsions:
REMARK  status: ('A' for Active; 'I' for Inactive)
REMARK       I    between atoms: C1_4  and  N3_6
REMARK       I    between atoms: N3_6  and  C2_8
REMARK    1  A    between atoms: C2_8  and  C3_10
REMARK    2  A    between atoms: C4_18  and  N6_19
REMARK    3  A    between atoms: N6_19  and  N7_21
ROOT
HETATM    1  C3  UNL     1      25.882  18.588  46.618  1.00  0.00     0.158 A
HETATM    2  N4  UNL     1      25.183  17.885  45.778  1.00  0.00    -0.259 N
ATOM      3  H4  UNL     1      25.432  16.955  45.442  1.00  0.00     0.180 HD
HETATM    4  S1  UNL     1      23.785  18.752  45.320  1.00  0.00     0.325 S
HETATM    5  O2  UNL     1      22.517  18.061  45.704  1.00  0.00    -0.182 OA
HETATM    6  O3  UNL     1      23.804  19.155  43.876  1.00  0.00    -0.182 OA
HETATM    7  N5  UNL     1      24.082  20.154  46.270  1.00  0.00    -0.249 N
ATOM      8  H5  UNL     1      23.508  20.994  46.343  1.00  0.00     0.182 HD
HETATM    9  C4  UNL     1      25.310  19.875  46.931  1.00  0.00     0.164 A
ENDROOT
BRANCH   1  10
HETATM   10  C2  UNL     1      27.155  18.042  47.166  1.00  0.00     0.279 C
HETATM   11  N3  UNL     1      28.267  18.788  47.508  1.00  0.00    -0.296 N
HETATM   12  C1  UNL     1      29.439  18.132  48.030  1.00  0.00     0.188 C
ATOM     13  H3  UNL     1      28.258  19.801  47.391  1.00  0.00     0.171 HD
HETATM   14  N1  UNL     1      30.491  18.784  48.361  1.00  0.00    -0.373 N
HETATM   15  N2  UNL     1      29.476  16.722  48.201  1.00  0.00    -0.064 NA
ATOM     16  H12 UNL     1      31.321  18.321  48.730  1.00  0.00     0.158 HD
ATOM     17  H11 UNL     1      30.464  19.796  48.237  1.00  0.00     0.158 HD
HETATM   18  O1  UNL     1      27.210  16.770  47.328  1.00  0.00    -0.265 OA
ENDBRANCH   1  10
BRANCH   9  19
HETATM   19  N6  UNL     1      25.834  20.774  47.760  1.00  0.00    -0.289 N
ATOM     20  H6  UNL     1      26.816  21.028  47.656  1.00  0.00     0.188 HD
BRANCH  19  21
HETATM   21  N7  UNL     1      25.088  21.378  48.762  1.00  0.00    -0.344 N
ATOM     22  H72 UNL     1      24.074  21.398  48.655  1.00  0.00     0.176 HD
ATOM     23  H71 UNL     1      25.522  21.792  49.586  1.00  0.00     0.176 HD
ENDBRANCH  19  21
ENDBRANCH   9  19
TORSDOF 3
ENDMDL