MODEL 4
REMARK VINA RESULT: -6.151498947      1.575      2.538
REMARK  3 active torsions:
REMARK  status: ('A' for Active; 'I' for Inactive)
REMARK    1  A    between atoms: C1_2  and  N2_4
REMARK    2  A    between atoms: N2_4  and  N3_6
REMARK    3  A    between atoms: N3_6  and  C2_8
ROOT
HETATM    1  C2  UNL     1      26.792  17.417  45.052  1.00  0.00     0.063 A
HETATM    2  C3  UNL     1      25.592  17.911  45.310  1.00  0.00     0.101 A
HETATM    3  C4  UNL     1      25.234  17.575  46.618  1.00  0.00     0.120 A
HETATM    4  N4  UNL     1      24.039  17.994  47.061  1.00  0.00    -0.338 N
ATOM      5  H4  UNL     1      23.761  17.758  48.014  1.00  0.00     0.168 HD
HETATM    6  C5  UNL     1      23.192  18.711  46.304  1.00  0.00     0.184 A
HETATM    7  N5  UNL     1      23.500  19.054  45.040  1.00  0.00    -0.319 N
ATOM      8  H5  UNL     1      22.854  19.598  44.467  1.00  0.00     0.169 HD
HETATM    9  C6  UNL     1      24.690  18.654  44.557  1.00  0.00     0.262 A
HETATM   10  O1  UNL     1      25.013  18.948  43.396  1.00  0.00    -0.267 OA
HETATM   11  N6  UNL     1      26.162  16.898  47.172  1.00  0.00    -0.370 N
ATOM     12  H6  UNL     1      26.133  16.538  48.126  1.00  0.00     0.161 HD
HETATM   13  C7  UNL     1      27.264  16.713  46.249  1.00  0.00     0.181 A
ENDROOT
BRANCH   1  14
HETATM   14  N3  UNL     1      27.523  17.529  43.841  1.00  0.00    -0.300 N
ATOM     15  H3  UNL     1      27.680  16.719  43.241  1.00  0.00     0.186 HD
BRANCH  14  16
HETATM   16  N2  UNL     1      28.020  18.789  43.499  1.00  0.00    -0.278 N
ATOM     17  H2  UNL     1      28.019  19.547  44.183  1.00  0.00     0.189 HD
BRANCH  16  18
HETATM   18  C1  UNL     1      28.525  19.002  42.198  1.00  0.00     0.199 C
HETATM   19  N1  UNL     1      29.885  19.333  42.006  1.00  0.00    -0.068 NA
HETATM   20  S1  UNL     1      27.550  18.872  40.896  1.00  0.00    -0.043 SA
ENDBRANCH  16  18
ENDBRANCH  14  16
ENDBRANCH   1  14
TORSDOF 3
ENDMDL