MODEL 3
REMARK VINA RESULT: -6.383040745      1.489      2.879
REMARK  6 active torsions:
REMARK  status: ('A' for Active; 'I' for Inactive)
REMARK    1  A    between atoms: N1_1  and  N2_4
REMARK    2  A    between atoms: N2_4  and  C1_6
REMARK    3  A    between atoms: C2_14  and  N5_15
REMARK    4  A    between atoms: N5_15  and  N6_17
REMARK    5  A    between atoms: N7_19  and  O3_21
REMARK    6  A    between atoms: O3_21  and  C3_22
ROOT
HETATM    1  C1  UNL     1      26.528  18.285  45.846  1.00  0.00     0.177 A
HETATM    2  N3  UNL     1      25.443  18.564  45.257  1.00  0.00    -0.248 N
ATOM      3  H3  UNL     1      25.168  18.245  44.327  1.00  0.00     0.182 HD
HETATM    4  S1  UNL     1      24.504  19.582  46.304  1.00  0.00     0.326 S
HETATM    5  O1  UNL     1      24.381  20.971  45.760  1.00  0.00    -0.182 OA
HETATM    6  O2  UNL     1      23.217  18.969  46.686  1.00  0.00    -0.182 OA
HETATM    7  N4  UNL     1      25.642  19.627  47.600  1.00  0.00    -0.248 N
ATOM      8  H4  UNL     1      25.556  20.117  48.490  1.00  0.00     0.182 HD
HETATM    9  C2  UNL     1      26.717  18.835  47.150  1.00  0.00     0.179 A
ENDROOT
BRANCH   9  10
HETATM   10  N5  UNL     1      27.775  18.648  47.895  1.00  0.00    -0.266 N
ATOM     11  H5  UNL     1      27.681  18.081  48.737  1.00  0.00     0.190 HD
BRANCH  10  12
HETATM   12  N6  UNL     1      29.018  19.182  47.597  1.00  0.00    -0.221 N
HETATM   13  N7  UNL     1      30.053  18.935  48.274  1.00  0.00    -0.183 N
ATOM     14  H7  UNL     1      30.947  19.353  48.015  1.00  0.00     0.218 HD
ATOM     15  H6  UNL     1      29.101  19.804  46.792  1.00  0.00     0.210 HD
BRANCH  13  16
HETATM   16  O3  UNL     1      29.969  18.088  49.377  1.00  0.00    -0.166 OA
BRANCH  16  17
HETATM   17  C3  UNL     1      29.949  16.718  49.170  1.00  0.00     0.395 C
HETATM   18  N8  UNL     1      29.852  16.160  47.875  1.00  0.00    -0.031 NA
HETATM   19  O4  UNL     1      30.022  15.972  50.190  1.00  0.00    -0.240 OA
ENDBRANCH  16  17
ENDBRANCH  13  16
ENDBRANCH  10  12
ENDBRANCH   9  10
BRANCH   1  20
HETATM   20  N2  UNL     1      27.510  17.443  45.196  1.00  0.00    -0.288 N
ATOM     21  H2  UNL     1      28.075  17.800  44.425  1.00  0.00     0.188 HD
BRANCH  20  22
HETATM   22  N1  UNL     1      27.666  16.125  45.651  1.00  0.00    -0.344 N
ATOM     23  H12 UNL     1      28.598  15.717  45.712  1.00  0.00     0.176 HD
ATOM     24  H11 UNL     1      26.831  15.600  45.913  1.00  0.00     0.176 HD
ENDBRANCH  20  22
ENDBRANCH   1  20
TORSDOF 6
ENDMDL