MODEL 1
REMARK VINA RESULT: -6.658686130      0.000      0.000
REMARK  5 active torsions:
REMARK  status: ('A' for Active; 'I' for Inactive)
REMARK    1  A    between atoms: N1_2  and  C2_4
REMARK    2  A    between atoms: N3_8  and  O1_9
REMARK    3  A    between atoms: C4_13  and  N5_14
REMARK    4  A    between atoms: N7_20  and  O2_21
REMARK    5  A    between atoms: C6_23  and  N8_24
ROOT
HETATM    1  C2  UNL     1      27.092  18.213  43.254  1.00  0.00     0.149 A
HETATM    2  N2  UNL     1      27.534  17.459  44.261  1.00  0.00    -0.319 N
ATOM      3  H2  UNL     1      28.424  16.967  44.179  1.00  0.00     0.169 HD
HETATM    4  C3  UNL     1      26.807  17.348  45.381  1.00  0.00     0.201 A
HETATM    5  N3  UNL     1      27.241  16.583  46.420  1.00  0.00    -0.128 N
HETATM    6  N4  UNL     1      26.483  16.511  47.498  1.00  0.00    -0.104 N
ATOM      7  H4  UNL     1      26.800  15.940  48.281  1.00  0.00     0.208 HD
HETATM    8  C4  UNL     1      25.308  17.160  47.607  1.00  0.00     0.694 A
HETATM    9  N6  UNL     1      24.818  17.932  46.626  1.00  0.00    -0.169 N
ATOM     10  H6  UNL     1      23.926  18.416  46.728  1.00  0.00     0.186 HD
HETATM   11  C5  UNL     1      25.552  18.044  45.493  1.00  0.00     0.198 A
HETATM   12  N7  UNL     1      25.138  18.797  44.458  1.00  0.00    -0.183 N
HETATM   13  C6  UNL     1      25.886  18.888  43.350  1.00  0.00     0.173 A
ENDROOT
BRANCH   1  14
HETATM   14  N1  UNL     1      27.787  18.323  42.175  1.00  0.00    -0.378 N
HETATM   15  C1  UNL     1      28.933  19.205  42.152  1.00  0.00     0.148 C
ATOM     16  H1  UNL     1      27.531  17.792  41.343  1.00  0.00     0.160 HD
ENDBRANCH   1  14
BRANCH  13  17
HETATM   17  N8  UNL     1      25.496  19.617  42.332  1.00  0.00    -0.381 N
ATOM     18  H82 UNL     1      25.745  20.604  42.269  1.00  0.00     0.157 HD
ATOM     19  H81 UNL     1      24.938  19.174  41.603  1.00  0.00     0.157 HD
ENDBRANCH  13  17
BRANCH  12  20
HETATM   20  O2  UNL     1      23.952  19.463  44.545  1.00  0.00    -0.279 OA
ATOM     21  H2  UNL     1      23.862  20.313  44.131  1.00  0.00     0.245 HD
ENDBRANCH  12  20
BRANCH   5  22
HETATM   22  O1  UNL     1      28.434  15.928  46.298  1.00  0.00    -0.266 OA
ATOM     23  H1  UNL     1      29.002  15.872  47.057  1.00  0.00     0.247 HD
ENDBRANCH   5  22
BRANCH   8  24
HETATM   24  N5  UNL     1      24.637  17.029  48.703  1.00  0.00    -0.233 N
ATOM     25  H52 UNL     1      24.892  16.292  49.359  1.00  0.00     0.174 HD
ATOM     26  H51 UNL     1      23.865  17.673  48.877  1.00  0.00     0.174 HD
ENDBRANCH   8  24
TORSDOF 5
ENDMDL