MODEL 1
REMARK VINA RESULT: -6.981571096      0.000      0.000
REMARK  5 active torsions:
REMARK  status: ('A' for Active; 'I' for Inactive)
REMARK    1  A    between atoms: N2_6  and  O1_7
REMARK    2  A    between atoms: C5_9  and  N3_10
REMARK    3  A    between atoms: N3_10  and  N4_12
REMARK       I    between atoms: C6_14  and  N6_16
REMARK    4  A    between atoms: N6_16  and  N7_18
REMARK    5  A    between atoms: N9_23  and  N10_24
ROOT
HETATM    1  C1  UNL     1      25.310  16.801  47.447  1.00  0.00     0.075 C
HETATM    2  C2  UNL     1      25.818  17.339  46.149  1.00  0.00     0.089 A
HETATM    3  C3  UNL     1      25.009  18.095  45.328  1.00  0.00     0.186 A
HETATM    4  C4  UNL     1      23.644  18.384  45.708  1.00  0.00     0.123 C
HETATM    5  N1  UNL     1      22.544  18.603  46.022  1.00  0.00    -0.190 NA
HETATM    6  N2  UNL     1      25.498  18.571  44.152  1.00  0.00    -0.037 N
HETATM    7  C5  UNL     1      26.763  18.289  43.826  1.00  0.00     0.740 A
HETATM    8  N8  UNL     1      27.528  17.555  44.638  1.00  0.00    -0.107 N
ATOM      9  H8  UNL     1      28.489  17.359  44.358  1.00  0.00     0.208 HD
HETATM   10  N9  UNL     1      27.089  17.067  45.799  1.00  0.00    -0.191 N
ENDROOT
BRANCH   6  11
HETATM   11  O1  UNL     1      24.655  19.324  43.360  1.00  0.00    -0.268 OA
ATOM     12  H1  UNL     1      24.132  19.997  43.780  1.00  0.00     0.246 HD
ENDBRANCH   6  11
BRANCH  10  13
HETATM   13  N10 UNL     1      27.948  16.298  46.613  1.00  0.00    -0.323 N
ATOM     14 2H10 UNL     1      27.585  15.490  47.119  1.00  0.00     0.178 HD
ATOM     15 1H10 UNL     1      28.938  16.517  46.721  1.00  0.00     0.178 HD
ENDBRANCH  10  13
BRANCH   7  16
HETATM   16  N3  UNL     1      27.237  18.733  42.721  1.00  0.00    -0.126 N
ATOM     17  H3  UNL     1      27.643  19.669  42.716  1.00  0.00     0.206 HD
BRANCH  16  18
HETATM   18  N4  UNL     1      27.232  18.017  41.527  1.00  0.00    -0.258 N
HETATM   19  C6  UNL     1      26.597  18.508  40.533  1.00  0.00     0.222 C
HETATM   20  N5  UNL     1      25.915  19.738  40.627  1.00  0.00    -0.061 NA
HETATM   21  N6  UNL     1      26.563  17.817  39.299  1.00  0.00    -0.279 N
ATOM     22  H6  UNL     1      25.655  17.558  38.913  1.00  0.00     0.189 HD
ATOM     23  H4  UNL     1      27.721  17.126  41.448  1.00  0.00     0.190 HD
BRANCH  21  24
HETATM   24  N7  UNL     1      27.709  17.471  38.583  1.00  0.00    -0.343 N
ATOM     25  H72 UNL     1      28.257  18.232  38.182  1.00  0.00     0.176 HD
ATOM     26  H71 UNL     1      28.016  16.507  38.447  1.00  0.00     0.176 HD
ENDBRANCH  21  24
ENDBRANCH  16  18
ENDBRANCH   7  16
TORSDOF 5
ENDMDL