MODEL 1
REMARK VINA RESULT: -6.270895077      0.000      0.000
REMARK  5 active torsions:
REMARK  status: ('A' for Active; 'I' for Inactive)
REMARK    1  A    between atoms: O1_2  and  C2_3
REMARK    2  A    between atoms: C2_3  and  C3_5
REMARK    3  A    between atoms: C4_6  and  N1_7
REMARK       I    between atoms: N1_7  and  C5_9
REMARK    4  A    between atoms: C6_16  and  N5_17
REMARK    5  A    between atoms: N6_20  and  O4_21
ROOT
HETATM    1  C3  UNL     1      26.500  17.842  46.603  1.00  0.00     0.201 A
HETATM    2  C4  UNL     1      27.318  18.244  47.636  1.00  0.00     0.160 A
HETATM    3  N3  UNL     1      26.818  18.807  48.754  1.00  0.00    -0.269 N
ATOM      4  H3  UNL     1      27.442  19.097  49.508  1.00  0.00     0.189 HD
HETATM    5  N4  UNL     1      25.509  18.981  48.865  1.00  0.00    -0.129 N
ATOM      6  H4  UNL     1      25.127  19.408  49.708  1.00  0.00     0.205 HD
HETATM    7  C6  UNL     1      24.672  18.598  47.869  1.00  0.00     0.717 A
HETATM    8  N6  UNL     1      25.180  18.036  46.758  1.00  0.00    -0.042 N
ENDROOT
BRANCH   2   9
HETATM    9  N1  UNL     1      28.574  18.066  47.502  1.00  0.00    -0.294 N
HETATM   10  C5  UNL     1      29.433  17.486  48.454  1.00  0.00     0.334 C
HETATM   11  N2  UNL     1      30.161  16.290  48.226  1.00  0.00    -0.040 NA
HETATM   12  O3  UNL     1      29.574  18.048  49.568  1.00  0.00    -0.251 OA
ATOM     13  H1  UNL     1      28.994  18.371  46.624  1.00  0.00     0.172 HD
ENDBRANCH   2   9
BRANCH   1  14
HETATM   14  C2  UNL     1      27.013  17.232  45.388  1.00  0.00     0.316 C
HETATM   15  O2  UNL     1      27.529  16.085  45.373  1.00  0.00    -0.257 OA
BRANCH  14  16
HETATM   16  O1  UNL     1      26.941  17.924  44.187  1.00  0.00    -0.321 OA
HETATM   17  C1  UNL     1      27.182  19.326  44.183  1.00  0.00     0.213 C
ENDBRANCH  14  16
ENDBRANCH   1  14
BRANCH   8  18
HETATM   18  O4  UNL     1      24.326  17.651  45.754  1.00  0.00    -0.269 OA
ATOM     19  H4  UNL     1      24.215  18.218  44.999  1.00  0.00     0.245 HD
ENDBRANCH   8  18
BRANCH   7  20
HETATM   20  N5  UNL     1      23.394  18.764  47.974  1.00  0.00    -0.231 N
ATOM     21  H52 UNL     1      22.762  18.038  47.636  1.00  0.00     0.174 HD
ATOM     22  H51 UNL     1      23.008  19.611  48.389  1.00  0.00     0.174 HD
ENDBRANCH   7  20
TORSDOF 5
ENDMDL