MODEL 1
REMARK VINA RESULT: -6.120449252      0.000      0.000
REMARK  3 active torsions:
REMARK  status: ('A' for Active; 'I' for Inactive)
REMARK    1  A    between atoms: N1_1  and  N2_4
REMARK       I    between atoms: N2_4  and  C1_6
REMARK    2  A    between atoms: C1_6  and  C2_8
REMARK    3  A    between atoms: N3_10  and  N4_11
REMARK       I    between atoms: N5_15  and  C5_16
REMARK       I    between atoms: C5_16  and  N6_18
ROOT
HETATM    1  C2  UNL     1      25.958  18.532  45.345  1.00  0.00     0.131 A
HETATM    2  C3  UNL     1      26.303  17.818  46.516  1.00  0.00     0.152 A
HETATM    3  N3  UNL     1      25.203  17.603  47.231  1.00  0.00    -0.267 N
HETATM    4  C4  UNL     1      24.201  18.149  46.554  1.00  0.00     0.218 A
HETATM    5  N5  UNL     1      24.638  18.728  45.383  1.00  0.00    -0.251 N
HETATM    6  C5  UNL     1      23.775  19.345  44.451  1.00  0.00     0.334 C
HETATM    7  O2  UNL     1      22.528  19.388  44.718  1.00  0.00    -0.246 OA
HETATM    8  N6  UNL     1      24.157  19.915  43.244  1.00  0.00    -0.284 N
ATOM      9  H6  UNL     1      24.979  19.521  42.786  1.00  0.00     0.172 HD
HETATM   10  C6  UNL     1      23.575  20.889  42.653  1.00  0.00     0.204 C
HETATM   11  N7  UNL     1      24.057  21.382  41.431  1.00  0.00    -0.066 NA
HETATM   12  N8  UNL     1      22.432  21.470  43.251  1.00  0.00    -0.066 NA
ENDROOT
BRANCH   1  13
HETATM   13  C1  UNL     1      26.935  18.897  44.329  1.00  0.00     0.288 C
HETATM   14  N2  UNL     1      27.608  17.936  43.566  1.00  0.00    -0.271 N
ATOM     15  H2  UNL     1      27.413  16.946  43.715  1.00  0.00     0.189 HD
HETATM   16  O1  UNL     1      27.163  20.111  44.138  1.00  0.00    -0.264 OA
BRANCH  14  17
HETATM   17  N1  UNL     1      28.553  18.323  42.594  1.00  0.00    -0.342 N
ATOM     18  H12 UNL     1      28.981  19.246  42.668  1.00  0.00     0.176 HD
ATOM     19  H11 UNL     1      28.803  17.693  41.832  1.00  0.00     0.176 HD
ENDBRANCH  14  17
ENDBRANCH   1  13
BRANCH   3  20
HETATM   20  N4  UNL     1      25.139  16.921  48.470  1.00  0.00    -0.338 N
ATOM     21  H42 UNL     1      25.909  16.502  48.990  1.00  0.00     0.177 HD
ATOM     22  H41 UNL     1      24.295  16.756  49.019  1.00  0.00     0.177 HD
ENDBRANCH   3  20
TORSDOF 3
ENDMDL