MODEL 1
REMARK VINA RESULT: -6.314543951      0.000      0.000
REMARK  5 active torsions:
REMARK  status: ('A' for Active; 'I' for Inactive)
REMARK    1  A    between atoms: C4_5  and  N2_6
REMARK    2  A    between atoms: N2_6  and  C5_8
REMARK    3  A    between atoms: C5_8  and  O2_13
REMARK    4  A    between atoms: N3_9  and  C6_11
REMARK    5  A    between atoms: O2_13  and  C7_14
ROOT
HETATM    1  C5  UNL     1      -4.285   1.424  15.772  1.00  0.00     0.222 C
HETATM    2  N3  UNL     1      -4.651   0.407  15.073  1.00  0.00    -0.300 N
ATOM      3  H3  UNL     1      -5.349  -0.215  15.482  1.00  0.00     0.171 HD
ENDROOT
BRANCH   1   4
HETATM    4  N2  UNL     1      -3.314   2.304  15.220  1.00  0.00    -0.351 N
ATOM      5  H2  UNL     1      -2.398   1.923  14.980  1.00  0.00     0.163 HD
BRANCH   4   6
HETATM    6  C4  UNL     1      -3.555   3.702  14.981  1.00  0.00     0.088 C
HETATM    7  C3  UNL     1      -4.425   3.830  13.761  1.00  0.00     0.055 C
HETATM    8  C2  UNL     1      -4.682   5.271  13.386  1.00  0.00     0.274 C
HETATM    9  N1  UNL     1      -3.419   5.969  13.362  1.00  0.00     0.084 N
HETATM   10  C1  UNL     1      -3.371   7.006  12.351  1.00  0.00     0.309 C
HETATM   11  C12 UNL     1      -2.286   5.091  13.316  1.00  0.00     0.274 C
HETATM   12  C11 UNL     1      -2.212   4.361  14.649  1.00  0.00     0.055 C
ENDBRANCH   4   6
ENDBRANCH   1   4
BRANCH   1  13
HETATM   13  O2  UNL     1      -4.862   1.588  17.011  1.00  0.00    -0.312 OA
BRANCH  13  14
HETATM   14  C7  UNL     1      -6.189   1.922  17.261  1.00  0.00     0.060 C
HETATM   15  C8  UNL     1      -6.289   2.309  18.742  1.00  0.00     0.046 C
HETATM   16  C9  UNL     1      -7.144   0.759  17.067  1.00  0.00     0.046 C
HETATM   17  C10 UNL     1      -6.708   3.081  16.473  1.00  0.00     0.046 C
ENDBRANCH  13  14
ENDBRANCH   1  13
BRANCH   2  18
HETATM   18  C6  UNL     1      -4.173   0.086  13.804  1.00  0.00     0.355 C
HETATM   19  O1  UNL     1      -4.734   0.548  12.783  1.00  0.00    -0.283 OA
ENDBRANCH   2  18
TORSDOF 5
ENDMDL