MODEL 2
REMARK VINA RESULT: -6.707673199      1.714      2.260
REMARK  3 active torsions:
REMARK  status: ('A' for Active; 'I' for Inactive)
REMARK    1  A    between atoms: C1_2  and  O2_3
REMARK    2  A    between atoms: C1_2  and  C8_10
REMARK    3  A    between atoms: O2_3  and  C2_4
ROOT
HETATM    1  O1  UNL     1      -5.812   3.074  13.170  1.00  0.00    -0.263 OA
HETATM    2  C1  UNL     1      -4.769   2.468  13.538  1.00  0.00     0.291 C
ENDROOT
BRANCH   2   3
HETATM    3  O2  UNL     1      -4.311   2.723  14.800  1.00  0.00    -0.314 OA
BRANCH   3   4
HETATM    4  C2  UNL     1      -4.867   2.241  16.009  1.00  0.00     0.135 C
HETATM    5  C3  UNL     1      -6.092   3.023  16.315  1.00  0.00     0.059 C
HETATM    6  C4  UNL     1      -7.310   2.248  16.614  1.00  0.00    -0.028 C
HETATM    7  C5  UNL     1      -7.289   1.005  17.083  1.00  0.00    -0.030 C
HETATM    8  C6  UNL     1      -5.912   0.432  17.289  1.00  0.00     0.029 C
HETATM    9  C7  UNL     1      -5.058   0.790  16.064  1.00  0.00     0.036 C
ENDBRANCH   3   4
ENDBRANCH   2   3
BRANCH   2  10
HETATM   10  C8  UNL     1      -4.142   1.537  12.576  1.00  0.00     0.293 C
HETATM   11  C9  UNL     1      -2.811   2.129  12.062  1.00  0.00     0.117 C
HETATM   12  S1  UNL     1      -2.295   0.991  10.747  1.00  0.00    -0.165 SA
HETATM   13  C10 UNL     1      -3.433  -0.424  10.873  1.00  0.00     0.101 C
HETATM   14  C11 UNL     1      -4.838   0.150  10.741  1.00  0.00     0.243 C
HETATM   15  N1  UNL     1      -5.045   1.368  11.454  1.00  0.00    -0.060 N
ATOM     16  H12 UNL     1      -6.016   1.453  11.755  1.00  0.00     0.278 HD
ATOM     17  H11 UNL     1      -4.993   2.169  10.825  1.00  0.00     0.278 HD
ENDBRANCH   2  10
TORSDOF 3
ENDMDL