MODEL 3
REMARK VINA RESULT: -7.010483378      1.314      1.665
REMARK  4 active torsions:
REMARK  status: ('A' for Active; 'I' for Inactive)
REMARK    1  A    between atoms: C4_5  and  C5_6
REMARK    2  A    between atoms: C5_6  and  O2_8
REMARK    3  A    between atoms: O2_8  and  C6_9
REMARK    4  A    between atoms: C13_16  and  O3_17
ROOT
HETATM    1  C1  UNL     1      -1.680   1.510  11.038  1.00  0.00     0.311 C
HETATM    2  N1  UNL     1      -2.884   1.301  11.780  1.00  0.00     0.097 N
HETATM    3  C2  UNL     1      -4.082   1.670  11.003  1.00  0.00     0.252 C
HETATM    4  C3  UNL     1      -5.141   1.486  12.073  1.00  0.00     0.055 C
HETATM    5  C4  UNL     1      -4.436   1.944  13.334  1.00  0.00     0.121 C
HETATM    6  C11 UNL     1      -3.056   2.308  12.842  1.00  0.00     0.239 C
HETATM    7  C12 UNL     1      -3.179   3.599  12.078  1.00  0.00     0.070 C
HETATM    8  C13 UNL     1      -3.832   3.123  10.776  1.00  0.00     0.153 C
ENDROOT
BRANCH   5   9
HETATM    9  C5  UNL     1      -4.406   0.883  14.363  1.00  0.00     0.265 C
HETATM   10  O1  UNL     1      -4.792  -0.267  14.084  1.00  0.00    -0.265 OA
BRANCH   9  11
HETATM   11  O2  UNL     1      -3.954   1.135  15.641  1.00  0.00    -0.316 OA
BRANCH  11  12
HETATM   12  C6  UNL     1      -4.830   1.774  16.549  1.00  0.00     0.132 C
HETATM   13  C7  UNL     1      -5.653   0.671  17.203  1.00  0.00     0.032 C
HETATM   14  C8  UNL     1      -7.101   1.025  16.954  1.00  0.00     0.002 C
HETATM   15  C9  UNL     1      -7.069   2.492  16.609  1.00  0.00     0.002 C
HETATM   16  C10 UNL     1      -5.810   2.605  15.784  1.00  0.00     0.032 C
ENDBRANCH  11  12
ENDBRANCH   9  11
ENDBRANCH   5   9
BRANCH   8  17
HETATM   17  O3  UNL     1      -4.997   3.848  10.539  1.00  0.00    -0.393 OA
ATOM     18  H3  UNL     1      -5.421   3.616   9.722  1.00  0.00     0.210 HD
ENDBRANCH   8  17
TORSDOF 4
ENDMDL