MODEL 3
REMARK VINA RESULT: -6.317167458      1.996      4.381
REMARK  5 active torsions:
REMARK  status: ('A' for Active; 'I' for Inactive)
REMARK    1  A    between atoms: C2_2  and  C3_3
REMARK    2  A    between atoms: C4_4  and  C5_5
REMARK    3  A    between atoms: C5_5  and  O1_6
REMARK    4  A    between atoms: O1_6  and  C6_7
REMARK    5  A    between atoms: C13_16  and  O4_17
ROOT
HETATM    1  C6  UNL     1      -4.427   3.667  11.991  1.00  0.00     0.296 C
HETATM    2  O2  UNL     1      -5.092   3.316  13.157  1.00  0.00    -0.323 OA
HETATM    3  C7  UNL     1      -4.249   2.497  13.889  1.00  0.00     0.161 C
HETATM    4  C8  UNL     1      -3.417   3.447  14.762  1.00  0.00     0.078 C
HETATM    5  C9  UNL     1      -5.057   1.657  14.859  1.00  0.00     0.078 C
HETATM    6  O3  UNL     1      -3.378   1.750  13.176  1.00  0.00    -0.343 OA
HETATM    7  C10 UNL     1      -3.699   1.379  11.916  1.00  0.00     0.087 C
HETATM    8  C11 UNL     1      -4.405   0.033  11.835  1.00  0.00     0.048 C
HETATM    9  C12 UNL     1      -2.376   1.190  11.155  1.00  0.00     0.048 C
HETATM   10  C13 UNL     1      -4.464   2.422  11.129  1.00  0.00     0.207 C
ENDROOT
BRANCH   1  11
HETATM   11  O1  UNL     1      -4.929   4.777  11.368  1.00  0.00    -0.347 OA
BRANCH  11  12
HETATM   12  C5  UNL     1      -4.008   5.734  11.035  1.00  0.00     0.265 C
BRANCH  12  13
HETATM   13  C4  UNL     1      -3.497   6.308  12.301  1.00  0.00    -0.076 C
HETATM   14  C3  UNL     1      -3.090   6.760  13.343  1.00  0.00    -0.077 C
BRANCH  14  15
HETATM   15  C2  UNL     1      -2.599   7.274  14.589  1.00  0.00     0.054 C
HETATM   16  C1  UNL     1      -1.844   8.369  14.605  1.00  0.00     0.020 C
ENDBRANCH  14  15
ENDBRANCH  12  13
ENDBRANCH  11  12
ENDBRANCH   1  11
BRANCH  10  17
HETATM   17  O4  UNL     1      -5.792   1.940  11.046  1.00  0.00    -0.388 OA
ATOM     18  H4  UNL     1      -5.782   0.998  10.917  1.00  0.00     0.210 HD
ENDBRANCH  10  17
TORSDOF 5
ENDMDL