MODEL 5
REMARK VINA RESULT: -6.062204518      1.092      1.143
REMARK  4 active torsions:
REMARK  status: ('A' for Active; 'I' for Inactive)
REMARK    1  A    between atoms: C5_5  and  O1_6
REMARK    2  A    between atoms: O1_6  and  C6_7
REMARK    3  A    between atoms: C9_12  and  C10_13
REMARK    4  A    between atoms: C10_13  and  O3_14
ROOT
HETATM    1  C1  UNL     1      -6.212   5.108  15.085  1.00  0.00     0.038 C
HETATM    2  C2  UNL     1      -5.418   4.283  14.513  1.00  0.00     0.003 C
HETATM    3  C3  UNL     1      -3.853   4.516  14.489  1.00  0.00     0.047 C
HETATM    4  C4  UNL     1      -3.207   3.360  15.106  1.00  0.00     0.046 C
HETATM    5  C5  UNL     1      -3.916   2.090  15.450  1.00  0.00     0.150 C
HETATM    6  C8  UNL     1      -5.087   1.809  14.431  1.00  0.00     0.155 C
HETATM    7  N1  UNL     1      -5.198   3.085  13.790  1.00  0.00    -0.374 N
HETATM    8  C9  UNL     1      -4.821   3.510  12.484  1.00  0.00     0.116 C
HETATM    9  C11 UNL     1      -3.812   4.580  12.944  1.00  0.00    -0.016 C
HETATM   10  C12 UNL     1      -2.481   4.516  12.354  1.00  0.00     0.018 C
HETATM   11  C13 UNL     1      -4.437   5.918  12.606  1.00  0.00     0.018 C
ENDROOT
BRANCH   5  12
HETATM   12  O1  UNL     1      -4.362   1.973  16.769  1.00  0.00    -0.315 OA
BRANCH  12  13
HETATM   13  C6  UNL     1      -5.627   1.577  17.154  1.00  0.00     0.255 C
HETATM   14  C7  UNL     1      -6.090   0.199  17.335  1.00  0.00     0.126 C
HETATM   15  O2  UNL     1      -6.426   2.524  17.358  1.00  0.00    -0.266 OA
ENDBRANCH  12  13
ENDBRANCH   5  12
BRANCH   8  16
HETATM   16  C10 UNL     1      -4.233   2.477  11.606  1.00  0.00     0.190 C
BRANCH  16  17
HETATM   17  O3  UNL     1      -4.844   2.226  10.427  1.00  0.00    -0.399 OA
ATOM     18  H3  UNL     1      -5.296   1.396  10.327  1.00  0.00     0.209 HD
ENDBRANCH  16  17
ENDBRANCH   8  16
TORSDOF 4
ENDMDL