MODEL 2
REMARK VINA RESULT: -6.391841878      1.761      2.313
REMARK  3 active torsions:
REMARK  status: ('A' for Active; 'I' for Inactive)
REMARK    1  A    between atoms: O1_1  and  C1_3
REMARK    2  A    between atoms: C8_10  and  C9_11
REMARK    3  A    between atoms: C9_11  and  N1_12
ROOT
HETATM    1  C1  UNL     1      -2.660   4.185  14.380  1.00  0.00     0.059 C
HETATM    2  C2  UNL     1      -3.102   5.652  14.420  1.00  0.00     0.042 C
HETATM    3  C3  UNL     1      -4.535   5.749  14.035  1.00  0.00    -0.011 C
HETATM    4  C4  UNL     1      -5.466   4.916  14.850  1.00  0.00     0.009 C
HETATM    5  C5  UNL     1      -5.002   3.461  14.772  1.00  0.00    -0.011 C
HETATM    6  C6  UNL     1      -3.585   3.436  15.295  1.00  0.00     0.042 C
HETATM    7  C7  UNL     1      -4.992   2.977  13.339  1.00  0.00     0.016 C
HETATM    8  C8  UNL     1      -4.135   3.879  12.457  1.00  0.00    -0.019 C
HETATM    9  C12 UNL     1      -4.653   5.269  12.583  1.00  0.00     0.016 C
HETATM   10  C13 UNL     1      -2.723   3.712  12.951  1.00  0.00     0.049 C
ENDROOT
BRANCH   8  11
HETATM   11  C9  UNL     1      -4.301   3.431  11.028  1.00  0.00     0.159 C
BRANCH  11  12
HETATM   12  N1  UNL     1      -4.275   2.006  10.871  1.00  0.00    -0.286 N
HETATM   13  C10 UNL     1      -3.156   1.271  10.839  1.00  0.00     0.201 A
HETATM   14  N2  UNL     1      -3.527  -0.007  10.682  1.00  0.00    -0.346 N
HETATM   15  C11 UNL     1      -4.863  -0.078  10.615  1.00  0.00     0.198 A
ATOM     16  H2  UNL     1      -2.891  -0.802  10.622  1.00  0.00     0.167 HD
HETATM   17  N3  UNL     1      -5.286   1.176  10.735  1.00  0.00    -0.293 N
ATOM     18  H3  UNL     1      -6.266   1.458  10.722  1.00  0.00     0.188 HD
ENDBRANCH  11  12
ENDBRANCH   8  11
BRANCH   1  19
HETATM   19  O1  UNL     1      -1.369   4.064  14.863  1.00  0.00    -0.390 OA
ATOM     20  H1  UNL     1      -1.339   4.307  15.781  1.00  0.00     0.210 HD
ENDBRANCH   1  19
TORSDOF 3
ENDMDL