MODEL 4
REMARK VINA RESULT: -6.282001272      1.768      2.937
REMARK  4 active torsions:
REMARK  status: ('A' for Active; 'I' for Inactive)
REMARK    1  A    between atoms: O1_2  and  C2_3
REMARK    2  A    between atoms: C2_3  and  C3_5
REMARK    3  A    between atoms: C7_9  and  N1_10
REMARK    4  A    between atoms: C13_16  and  O3_17
ROOT
HETATM    1  C3  UNL     1      -3.643   2.986  11.410  1.00  0.00     0.120 C
HETATM    2  C4  UNL     1      -3.515   1.520  11.480  1.00  0.00    -0.000 C
HETATM    3  C5  UNL     1      -2.127   0.956  11.328  1.00  0.00     0.011 C
HETATM    4  C6  UNL     1      -4.099   1.104  12.855  1.00  0.00     0.033 C
HETATM    5  C7  UNL     1      -4.813   2.341  13.285  1.00  0.00     0.113 C
HETATM    6  C13 UNL     1      -3.834   3.429  12.871  1.00  0.00     0.154 C
ENDROOT
BRANCH   5   7
HETATM    7  N1  UNL     1      -5.198   2.434  14.646  1.00  0.00    -0.386 N
HETATM    8  C8  UNL     1      -6.411   3.154  14.883  1.00  0.00     0.122 C
HETATM    9  C9  UNL     1      -6.514   3.504  16.355  1.00  0.00     0.020 C
HETATM   10  C10 UNL     1      -6.621   2.240  17.159  1.00  0.00     0.007 C
HETATM   11  C11 UNL     1      -6.067   1.036  16.476  1.00  0.00     0.044 C
HETATM   12  C12 UNL     1      -4.977   1.321  15.475  1.00  0.00     0.058 C
ENDBRANCH   5   7
BRANCH   6  13
HETATM   13  O3  UNL     1      -2.623   3.278  13.473  1.00  0.00    -0.393 OA
ATOM     14  H3  UNL     1      -2.733   3.582  14.367  1.00  0.00     0.210 HD
ENDBRANCH   6  13
BRANCH   1  15
HETATM   15  C2  UNL     1      -2.605   3.770  10.763  1.00  0.00     0.265 C
HETATM   16  O2  UNL     1      -1.969   4.670  11.349  1.00  0.00    -0.265 OA
BRANCH  15  17
HETATM   17  O1  UNL     1      -2.243   3.572   9.426  1.00  0.00    -0.326 OA
HETATM   18  C1  UNL     1      -0.872   3.730   9.023  1.00  0.00     0.213 C
ENDBRANCH  15  17
ENDBRANCH   1  15
TORSDOF 4
ENDMDL