MODEL 2
REMARK VINA RESULT: -6.469375154      1.732      3.082
REMARK  2 active torsions:
REMARK  status: ('A' for Active; 'I' for Inactive)
REMARK    1  A    between atoms: C6_6  and  C7_7
REMARK    2  A    between atoms: C7_7  and  N1_8
ROOT
HETATM    1  C1  UNL     1      -0.639   4.731  11.099  1.00  0.00     0.049 C
HETATM    2  C2  UNL     1      -1.653   3.607  11.205  1.00  0.00     0.093 C
HETATM    3  C3  UNL     1      -1.344   2.507  10.209  1.00  0.00     0.041 C
HETATM    4  C4  UNL     1      -1.419   1.193  10.952  1.00  0.00     0.006 C
HETATM    5  C5  UNL     1      -2.778   0.915  11.505  1.00  0.00     0.047 C
HETATM    6  C6  UNL     1      -3.543   2.057  12.050  1.00  0.00     0.128 C
HETATM    7  C12 UNL     1      -4.046   3.063  11.084  1.00  0.00     0.050 C
HETATM    8  C13 UNL     1      -3.014   4.144  10.862  1.00  0.00     0.044 C
HETATM    9  O1  UNL     1      -2.739   2.779  12.978  1.00  0.00    -0.223 OA
HETATM   10  O2  UNL     1      -1.597   3.127  12.491  1.00  0.00    -0.229 OA
ENDROOT
BRANCH   6  11
HETATM   11  C7  UNL     1      -4.654   1.456  12.923  1.00  0.00     0.099 C
BRANCH  11  12
HETATM   12  N1  UNL     1      -4.757   1.862  14.226  1.00  0.00    -0.387 N
HETATM   13  C8  UNL     1      -5.271   3.075  14.683  1.00  0.00     0.149 C
HETATM   14  C9  UNL     1      -6.319   2.807  15.777  1.00  0.00     0.252 C
HETATM   15  N2  UNL     1      -5.701   2.114  16.867  1.00  0.00    -0.072 N
HETATM   16  C10 UNL     1      -5.218   0.841  16.383  1.00  0.00     0.252 C
ATOM     17  H22 UNL     1      -4.969   2.664  17.317  1.00  0.00     0.277 HD
ATOM     18  H21 UNL     1      -6.319   2.018  17.672  1.00  0.00     0.277 HD
HETATM   19  C11 UNL     1      -4.213   1.060  15.278  1.00  0.00     0.149 C
ENDBRANCH  11  12
ENDBRANCH   6  11
TORSDOF 2
ENDMDL