MODEL 1
REMARK VINA RESULT: -5.975056501      0.000      0.000
REMARK  4 active torsions:
REMARK  status: ('A' for Active; 'I' for Inactive)
REMARK    1  A    between atoms: O1_1  and  C1_3
REMARK    2  A    between atoms: C1_3  and  C2_4
REMARK    3  A    between atoms: C2_4  and  O2_5
REMARK    4  A    between atoms: O2_5  and  C3_6
ROOT
HETATM    1  C3  UNL     1      -4.260   1.414  14.752  1.00  0.00     0.156 C
HETATM    2  C4  UNL     1      -3.892   2.730  15.440  1.00  0.00     0.305 C
HETATM    3  N1  UNL     1      -3.506   3.645  14.424  1.00  0.00     0.097 N
HETATM    4  C5  UNL     1      -3.842   5.013  14.670  1.00  0.00     0.273 C
HETATM    5  C6  UNL     1      -3.033   5.979  13.876  1.00  0.00     0.040 C
HETATM    6  C7  UNL     1      -3.565   6.231  12.490  1.00  0.00     0.076 C
HETATM    7  S1  UNL     1      -3.190   4.902  11.333  1.00  0.00    -0.162 SA
HETATM    8  C8  UNL     1      -3.050   3.305  12.121  1.00  0.00     0.081 C
HETATM    9  C9  UNL     1      -3.444   2.147  11.270  1.00  0.00     0.018 C
HETATM   10  C10 UNL     1      -3.636   1.062  12.343  1.00  0.00     0.010 C
HETATM   11  C11 UNL     1      -4.513   1.792  13.329  1.00  0.00     0.051 C
HETATM   12  C12 UNL     1      -4.133   3.230  13.208  1.00  0.00     0.243 C
ENDROOT
BRANCH   1  13
HETATM   13  O2  UNL     1      -5.312   0.798  15.382  1.00  0.00    -0.382 OA
BRANCH  13  14
HETATM   14  C2  UNL     1      -6.070   1.610  16.184  1.00  0.00     0.194 C
BRANCH  14  15
HETATM   15  C1  UNL     1      -6.779   0.700  17.196  1.00  0.00     0.190 C
BRANCH  15  16
HETATM   16  O1  UNL     1      -6.024  -0.442  17.355  1.00  0.00    -0.399 OA
ATOM     17  H1  UNL     1      -6.498  -1.038  17.924  1.00  0.00     0.209 HD
ENDBRANCH  15  16
ENDBRANCH  14  15
ENDBRANCH  13  14
ENDBRANCH   1  13
TORSDOF 4
ENDMDL