MODEL 1
REMARK VINA RESULT: -6.605338442      0.000      0.000
REMARK  2 active torsions:
REMARK  status: ('A' for Active; 'I' for Inactive)
REMARK    1  A    between atoms: C1_1  and  C12_14
REMARK    2  A    between atoms: N1_2  and  C2_4
ROOT
HETATM    1  C2  UNL     1      -4.225   1.290  12.948  1.00  0.00     0.030 C
HETATM    2  C3  UNL     1      -5.259   1.841  11.961  1.00  0.00     0.035 C
HETATM    3  C4  UNL     1      -4.647   1.838  10.594  1.00  0.00    -0.012 C
HETATM    4  C5  UNL     1      -3.400   2.690  10.549  1.00  0.00     0.009 C
HETATM    5  C6  UNL     1      -2.390   2.162  11.526  1.00  0.00    -0.012 C
HETATM    6  C7  UNL     1      -1.993   0.735  11.261  1.00  0.00     0.009 C
HETATM    7  C8  UNL     1      -3.238  -0.102  11.162  1.00  0.00    -0.012 C
HETATM    8  C9  UNL     1      -4.229   0.430  10.174  1.00  0.00     0.009 C
HETATM    9  C10 UNL     1      -3.914  -0.111  12.528  1.00  0.00     0.035 C
HETATM   10  C11 UNL     1      -3.027   2.204  12.910  1.00  0.00     0.035 C
ENDROOT
BRANCH   1  11
HETATM   11  N1  UNL     1      -4.788   1.327  14.251  1.00  0.00    -0.389 N
HETATM   12  C1  UNL     1      -4.556   0.468  15.169  1.00  0.00     0.117 C
ATOM     13  H1  UNL     1      -5.423   2.094  14.469  1.00  0.00     0.159 HD
BRANCH  12  14
HETATM   14  C12 UNL     1      -5.237   0.671  16.472  1.00  0.00     0.360 C
HETATM   15  N2  UNL     1      -5.334   2.077  16.819  1.00  0.00    -0.042 N
HETATM   16  C13 UNL     1      -6.230   1.991  17.984  1.00  0.00     0.262 C
ATOM     17  H22 UNL     1      -4.449   2.560  16.973  1.00  0.00     0.280 HD
ATOM     18  H21 UNL     1      -5.637   2.700  16.070  1.00  0.00     0.280 HD
HETATM   19  C14 UNL     1      -7.211   0.941  17.470  1.00  0.00     0.198 C
HETATM   20  O1  UNL     1      -6.570   0.291  16.434  1.00  0.00    -0.354 OA
ENDBRANCH  12  14
ENDBRANCH   1  11
TORSDOF 2
ENDMDL