MODEL 2
REMARK VINA RESULT: -6.813568872      2.156      2.539
REMARK  6 active torsions:
REMARK  status: ('A' for Active; 'I' for Inactive)
REMARK    1  A    between atoms: C3_7  and  N3_8
REMARK    2  A    between atoms: N3_8  and  C4_10
REMARK    3  A    between atoms: C4_10  and  C5_11
REMARK    4  A    between atoms: C5_11  and  S1_12
REMARK    5  A    between atoms: S1_12  and  N4_13
REMARK    6  A    between atoms: N5_18  and  O3_19
ROOT
HETATM    1  C1  UNL     1      -3.838 -23.837 -32.274  1.00  0.00     0.093 C
HETATM    2  C2  UNL     1      -5.210 -23.317 -32.421  1.00  0.00     0.139 A
HETATM    3  N1  UNL     1      -5.660 -22.192 -31.848  1.00  0.00    -0.273 N
ATOM      4  H1  UNL     1      -5.113 -21.570 -31.252  1.00  0.00     0.189 HD
HETATM    5  N2  UNL     1      -6.938 -22.018 -32.185  1.00  0.00    -0.129 N
ATOM      6  H2  UNL     1      -7.548 -21.251 -31.903  1.00  0.00     0.205 HD
HETATM    7  C3  UNL     1      -7.260 -23.059 -32.974  1.00  0.00     0.720 A
HETATM    8  N5  UNL     1      -6.203 -23.878 -33.133  1.00  0.00    -0.038 N
ENDROOT
BRANCH   7   9
HETATM    9  N3  UNL     1      -8.415 -23.257 -33.509  1.00  0.00    -0.222 N
ATOM     10  H3  UNL     1      -8.637 -22.741 -34.360  1.00  0.00     0.177 HD
BRANCH   9  11
HETATM   11  C4  UNL     1      -9.405 -24.147 -32.997  1.00  0.00     0.155 C
BRANCH  11  12
HETATM   12  C5  UNL     1      -9.257 -24.249 -31.475  1.00  0.00     0.183 C
BRANCH  12  13
HETATM   13  S1  UNL     1      -9.180 -25.985 -31.091  1.00  0.00     0.226 S
HETATM   14  O1  UNL     1      -9.036 -26.154 -29.606  1.00  0.00    -0.206 OA
HETATM   15  O2  UNL     1     -10.395 -26.712 -31.535  1.00  0.00    -0.206 OA
BRANCH  13  16
HETATM   16  N4  UNL     1      -7.802 -26.709 -31.827  1.00  0.00    -0.328 N
ATOM     17  H42 UNL     1      -6.869 -26.704 -31.413  1.00  0.00     0.168 HD
ATOM     18  H41 UNL     1      -8.052 -27.134 -32.720  1.00  0.00     0.168 HD
ENDBRANCH  13  16
ENDBRANCH  12  13
ENDBRANCH  11  12
ENDBRANCH   9  11
ENDBRANCH   7   9
BRANCH   8  19
HETATM   19  O3  UNL     1      -6.143 -25.049 -33.872  1.00  0.00    -0.268 OA
ATOM     20  H3  UNL     1      -6.127 -25.129 -34.818  1.00  0.00     0.246 HD
ENDBRANCH   8  19
TORSDOF 6
ENDMDL