MODEL 3
REMARK VINA RESULT: -6.483461510      2.770      4.200
REMARK  5 active torsions:
REMARK  status: ('A' for Active; 'I' for Inactive)
REMARK    1  A    between atoms: N4_12  and  N5_13
REMARK    2  A    between atoms: N5_13  and  N6_14
REMARK    3  A    between atoms: N5_13  and  C6_17
REMARK    4  A    between atoms: C6_17  and  C8_19
REMARK    5  A    between atoms: C8_19  and  O1_20
ROOT
HETATM    1  C1  UNL     1      -6.494 -27.127 -29.853  1.00  0.00     0.092 C
HETATM    2  C2  UNL     1      -6.320 -25.969 -30.722  1.00  0.00     0.118 A
HETATM    3  N1  UNL     1      -5.031 -25.650 -31.053  1.00  0.00    -0.179 N
ATOM      4  H1  UNL     1      -4.259 -26.206 -30.687  1.00  0.00     0.185 HD
HETATM    5  C3  UNL     1      -4.784 -24.612 -31.852  1.00  0.00     0.679 A
HETATM    6  N2  UNL     1      -3.586 -24.281 -32.189  1.00  0.00    -0.234 N
ATOM      7  H21 UNL     1      -3.397 -23.487 -32.800  1.00  0.00     0.174 HD
ATOM      8  H22 UNL     1      -2.806 -24.831 -31.830  1.00  0.00     0.174 HD
HETATM    9  N3  UNL     1      -5.817 -23.883 -32.327  1.00  0.00    -0.182 N
HETATM   10  C4  UNL     1      -5.542 -22.755 -33.194  1.00  0.00     0.176 C
HETATM   11  C5  UNL     1      -7.072 -24.216 -31.989  1.00  0.00     0.229 A
HETATM   12  N4  UNL     1      -7.353 -25.261 -31.182  1.00  0.00    -0.222 N
ENDROOT
BRANCH  12  13
HETATM   13  N5  UNL     1      -8.642 -25.622 -30.816  1.00  0.00    -0.225 N
BRANCH  13  14
HETATM   14  N6  UNL     1      -9.025 -25.476 -29.475  1.00  0.00    -0.328 N
ATOM     15  H62 UNL     1      -9.567 -24.652 -29.213  1.00  0.00     0.178 HD
ATOM     16  H61 UNL     1      -8.765 -26.205 -28.810  1.00  0.00     0.178 HD
ENDBRANCH  13  14
BRANCH  13  17
HETATM   17  C6  UNL     1      -9.602 -26.164 -31.749  1.00  0.00     0.146 C
HETATM   18  C7  UNL     1     -10.616 -25.093 -32.179  1.00  0.00     0.038 C
BRANCH  17  19
HETATM   19  C8  UNL     1     -10.407 -27.303 -31.110  1.00  0.00     0.192 C
BRANCH  19  20
HETATM   20  O1  UNL     1     -11.704 -27.176 -31.546  1.00  0.00    -0.399 OA
ATOM     21  H1  UNL     1     -11.668 -26.971 -32.473  1.00  0.00     0.209 HD
ENDBRANCH  19  20
ENDBRANCH  17  19
ENDBRANCH  13  17
ENDBRANCH  12  13
TORSDOF 5
ENDMDL