MODEL 1
REMARK VINA RESULT: -8.368018959      0.000      0.000
REMARK  3 active torsions:
REMARK  status: ('A' for Active; 'I' for Inactive)
REMARK    1  A    between atoms: C4_4  and  S1_5
REMARK    2  A    between atoms: S1_5  and  N1_6
REMARK    3  A    between atoms: C5_11  and  C6_12
ROOT
HETATM    1  C6  UNL     1      -8.343 -25.034 -32.012  1.00  0.00     0.112 C
HETATM    2  C7  UNL     1      -9.371 -24.097 -31.673  1.00  0.00     0.089 C
HETATM    3  N2  UNL     1     -10.226 -23.322 -31.420  1.00  0.00    -0.192 NA
ENDROOT
BRANCH   1   4
HETATM    4  C5  UNL     1      -7.506 -25.556 -31.151  1.00  0.00     0.065 A
HETATM    5  C4  UNL     1      -6.163 -25.257 -31.223  1.00  0.00     0.097 A
HETATM    6  C3  UNL     1      -5.288 -25.813 -30.322  1.00  0.00     0.055 A
HETATM    7  C2  UNL     1      -5.746 -26.667 -29.350  1.00  0.00     0.027 A
HETATM    8  C1  UNL     1      -4.940 -27.227 -28.459  1.00  0.00     0.043 C
HETATM    9  N3  UNL     1      -7.051 -26.949 -29.291  1.00  0.00    -0.324 N
HETATM   10  C8  UNL     1      -7.926 -26.419 -30.158  1.00  0.00     0.258 A
ATOM     11  H3  UNL     1      -7.391 -27.583 -28.567  1.00  0.00     0.169 HD
HETATM   12  O3  UNL     1      -9.128 -26.706 -30.071  1.00  0.00    -0.267 OA
BRANCH   5  13
HETATM   13  S1  UNL     1      -5.595 -24.177 -32.436  1.00  0.00     0.257 S
HETATM   14  O1  UNL     1      -6.153 -24.578 -33.794  1.00  0.00    -0.201 OA
HETATM   15  O2  UNL     1      -4.092 -24.385 -32.588  1.00  0.00    -0.201 OA
BRANCH  13  16
HETATM   16  N1  UNL     1      -5.894 -22.528 -32.162  1.00  0.00    -0.324 N
ATOM     17  H12 UNL     1      -6.034 -22.167 -31.218  1.00  0.00     0.169 HD
ATOM     18  H11 UNL     1      -5.922 -21.935 -32.992  1.00  0.00     0.169 HD
ENDBRANCH  13  16
ENDBRANCH   5  13
ENDBRANCH   1   4
TORSDOF 3
ENDMDL