MODEL 2
REMARK VINA RESULT: -7.083654206      1.931      2.202
REMARK  4 active torsions:
REMARK  status: ('A' for Active; 'I' for Inactive)
REMARK    1  A    between atoms: N1_1  and  S1_4
REMARK    2  A    between atoms: S1_4  and  C1_7
REMARK    3  A    between atoms: C3_11  and  N3_12
REMARK    4  A    between atoms: N3_12  and  C4_14
ROOT
HETATM    1  C1  UNL     1      -7.440 -24.053 -31.918  1.00  0.00     0.163 A
HETATM    2  C2  UNL     1      -6.207 -24.627 -31.667  1.00  0.00     0.137 A
HETATM    3  N2  UNL     1      -6.080 -25.563 -30.735  1.00  0.00    -0.200 N
ATOM      4  H2  UNL     1      -5.159 -25.969 -30.570  1.00  0.00     0.183 HD
HETATM    5  C3  UNL     1      -7.120 -26.000 -30.000  1.00  0.00     0.687 A
HETATM    6  N4  UNL     1      -8.346 -25.458 -30.219  1.00  0.00    -0.154 N
ATOM      7  H4  UNL     1      -9.148 -25.774 -29.673  1.00  0.00     0.187 HD
HETATM    8  C5  UNL     1      -8.507 -24.507 -31.156  1.00  0.00     0.284 A
HETATM    9  O4  UNL     1      -9.625 -23.973 -31.400  1.00  0.00    -0.266 OA
ENDROOT
BRANCH   1  10
HETATM   10  S1  UNL     1      -7.657 -22.809 -33.143  1.00  0.00     0.263 S
HETATM   11  O1  UNL     1      -6.413 -22.805 -34.000  1.00  0.00    -0.200 OA
HETATM   12  O2  UNL     1      -7.862 -21.484 -32.464  1.00  0.00    -0.200 OA
BRANCH  10  13
HETATM   13  N1  UNL     1      -8.977 -23.193 -34.193  1.00  0.00    -0.324 N
ATOM     14  H12 UNL     1      -9.456 -24.092 -34.249  1.00  0.00     0.169 HD
ATOM     15  H11 UNL     1      -9.174 -22.350 -34.732  1.00  0.00     0.169 HD
ENDBRANCH  10  13
ENDBRANCH   1  10
BRANCH   5  16
HETATM   16  N3  UNL     1      -6.991 -26.916 -29.090  1.00  0.00    -0.167 N
ATOM     17  H3  UNL     1      -7.805 -27.225 -28.559  1.00  0.00     0.186 HD
BRANCH  16  18
HETATM   18  C4  UNL     1      -5.726 -27.485 -28.835  1.00  0.00     0.368 C
HETATM   19  O3  UNL     1      -4.950 -27.020 -27.966  1.00  0.00    -0.283 OA
ENDBRANCH  16  18
ENDBRANCH   5  16
TORSDOF 4
ENDMDL