MODEL 4
REMARK VINA RESULT: -6.953280804      1.358      2.063
REMARK  3 active torsions:
REMARK  status: ('A' for Active; 'I' for Inactive)
REMARK    1  A    between atoms: C3_5  and  C4_6
REMARK    2  A    between atoms: C4_6  and  C5_7
REMARK    3  A    between atoms: C9_18  and  C10_19
ROOT
HETATM    1  C1  UNL     1      -8.658 -26.547 -29.987  1.00  0.00     0.044 C
HETATM    2  C2  UNL     1      -7.703 -25.819 -30.508  1.00  0.00     0.040 A
HETATM    3  N1  UNL     1      -8.105 -24.766 -31.299  1.00  0.00    -0.345 N
ATOM      4  H1  UNL     1      -9.104 -24.609 -31.439  1.00  0.00     0.167 HD
HETATM    5  C3  UNL     1      -7.236 -23.945 -31.891  1.00  0.00     0.090 A
HETATM    6  N4  UNL     1      -5.921 -24.169 -31.694  1.00  0.00    -0.312 N
ATOM      7  H4  UNL     1      -5.251 -23.545 -32.143  1.00  0.00     0.170 HD
HETATM    8  C8  UNL     1      -5.456 -25.157 -30.949  1.00  0.00     0.260 A
HETATM    9  O1  UNL     1      -4.243 -25.396 -30.744  1.00  0.00    -0.267 OA
HETATM   10  C9  UNL     1      -6.363 -26.022 -30.326  1.00  0.00     0.071 A
ENDROOT
BRANCH   5  11
HETATM   11  C4  UNL     1      -7.671 -22.808 -32.745  1.00  0.00     0.135 C
BRANCH  11  12
HETATM   12  C5  UNL     1      -8.957 -23.148 -33.394  1.00  0.00     0.032 A
HETATM   13  C6  UNL     1     -10.099 -23.608 -32.781  1.00  0.00     0.114 A
HETATM   14  N2  UNL     1     -11.069 -23.806 -33.714  1.00  0.00    -0.360 N
HETATM   15  C7  UNL     1     -10.503 -23.463 -34.881  1.00  0.00     0.180 A
ATOM     16  H2  UNL     1     -12.020 -24.141 -33.559  1.00  0.00     0.166 HD
HETATM   17  N3  UNL     1      -9.224 -23.063 -34.697  1.00  0.00    -0.354 N
ATOM     18  H3  UNL     1      -8.580 -22.753 -35.423  1.00  0.00     0.166 HD
ENDBRANCH  11  12
ENDBRANCH   5  11
BRANCH  10  19
HETATM   19  C10 UNL     1      -5.930 -27.011 -29.581  1.00  0.00     0.119 C
HETATM   20  N5  UNL     1      -5.681 -26.821 -28.196  1.00  0.00    -0.114 NA
ENDBRANCH  10  19
TORSDOF 3
ENDMDL