MODEL 4
REMARK VINA RESULT: -7.731516963      1.453      1.559
REMARK  3 active torsions:
REMARK  status: ('A' for Active; 'I' for Inactive)
REMARK    1  A    between atoms: N3_8  and  C3_10
REMARK    2  A    between atoms: C3_10  and  C4_11
REMARK    3  A    between atoms: N5_16  and  O2_17
ROOT
HETATM    1  O1  UNL     1      -5.119 -27.387 -27.677  1.00  0.00    -0.245 OA
HETATM    2  C1  UNL     1      -5.425 -26.785 -28.754  1.00  0.00     0.341 A
HETATM    3  N1  UNL     1      -5.018 -25.520 -29.002  1.00  0.00    -0.250 N
ATOM      4  H1  UNL     1      -4.450 -25.030 -28.310  1.00  0.00     0.192 HD
HETATM    5  N2  UNL     1      -5.345 -24.909 -30.127  1.00  0.00    -0.277 N
ATOM      6  H2  UNL     1      -5.029 -23.954 -30.299  1.00  0.00     0.189 HD
HETATM    7  C2  UNL     1      -6.107 -25.555 -31.061  1.00  0.00     0.186 A
HETATM    8  N3  UNL     1      -6.398 -24.933 -32.127  1.00  0.00    -0.364 N
ATOM      9  H3  UNL     1      -6.031 -23.984 -32.197  1.00  0.00     0.161 HD
HETATM   10  C7  UNL     1      -6.534 -26.833 -30.840  1.00  0.00     0.294 A
HETATM   11  O3  UNL     1      -7.243 -27.489 -31.665  1.00  0.00    -0.264 OA
HETATM   12  N6  UNL     1      -6.168 -27.415 -29.665  1.00  0.00    -0.271 N
ATOM     13  H6  UNL     1      -6.474 -28.369 -29.474  1.00  0.00     0.174 HD
ENDROOT
BRANCH   8  14
HETATM   14  C3  UNL     1      -7.173 -25.383 -33.247  1.00  0.00     0.200 C
BRANCH  14  15
HETATM   15  C4  UNL     1      -8.501 -24.664 -33.273  1.00  0.00     0.126 A
HETATM   16  N4  UNL     1      -8.862 -23.650 -34.076  1.00  0.00    -0.351 N
HETATM   17  C5  UNL     1     -10.130 -23.272 -33.801  1.00  0.00     0.109 A
ATOM     18  H4  UNL     1      -8.268 -23.228 -34.789  1.00  0.00     0.166 HD
HETATM   19  C6  UNL     1     -10.571 -24.087 -32.785  1.00  0.00     0.141 A
HETATM   20  N5  UNL     1      -9.536 -24.928 -32.491  1.00  0.00    -0.221 N
BRANCH  20  21
HETATM   21  O2  UNL     1      -9.578 -25.903 -31.522  1.00  0.00    -0.282 OA
ATOM     22  H2  UNL     1      -9.218 -26.779 -31.604  1.00  0.00     0.245 HD
ENDBRANCH  20  21
ENDBRANCH  14  15
ENDBRANCH   8  14
TORSDOF 3
ENDMDL