MODEL 2
REMARK VINA RESULT: -8.001226239      1.629      1.854
REMARK  2 active torsions:
REMARK  status: ('A' for Active; 'I' for Inactive)
REMARK    1  A    between atoms: C6_11  and  C7_12
REMARK    2  A    between atoms: C7_12  and  C8_13
ROOT
HETATM    1  C1  UNL     1      -4.066 -24.462 -30.944  1.00  0.00     0.045 C
HETATM    2  C2  UNL     1      -4.926 -25.384 -30.589  1.00  0.00     0.052 A
HETATM    3  N1  UNL     1      -4.833 -25.962 -29.355  1.00  0.00    -0.321 N
ATOM      4  H1  UNL     1      -4.089 -25.666 -28.723  1.00  0.00     0.169 HD
HETATM    5  C3  UNL     1      -5.685 -26.900 -28.956  1.00  0.00     0.261 A
HETATM    6  O1  UNL     1      -5.520 -27.378 -27.792  1.00  0.00    -0.267 OA
HETATM    7  C4  UNL     1      -6.705 -27.337 -29.765  1.00  0.00     0.163 A
HETATM    8  N2  UNL     1      -6.824 -26.795 -30.973  1.00  0.00    -0.359 N
ATOM      9  H2  UNL     1      -7.572 -27.101 -31.595  1.00  0.00     0.165 HD
HETATM   10  C5  UNL     1      -5.951 -25.832 -31.387  1.00  0.00     0.054 A
HETATM   11  C6  UNL     1      -6.106 -25.318 -32.600  1.00  0.00     0.012 C
ENDROOT
BRANCH  11  12
HETATM   12  C7  UNL     1      -7.238 -25.830 -33.448  1.00  0.00     0.107 C
BRANCH  12  13
HETATM   13  C8  UNL     1      -8.336 -24.819 -33.288  1.00  0.00     0.103 A
HETATM   14  N3  UNL     1      -9.121 -24.770 -32.171  1.00  0.00    -0.296 N
HETATM   15  C9  UNL     1      -9.998 -23.765 -32.340  1.00  0.00     0.340 A
ATOM     16  H3  UNL     1      -9.055 -25.383 -31.360  1.00  0.00     0.172 HD
HETATM   17  O2  UNL     1     -10.883 -23.418 -31.514  1.00  0.00    -0.245 OA
HETATM   18  N4  UNL     1      -9.740 -23.228 -33.530  1.00  0.00    -0.250 N
HETATM   19  N5  UNL     1      -8.730 -23.859 -34.121  1.00  0.00    -0.285 N
ATOM     20  H4  UNL     1     -10.248 -22.440 -33.933  1.00  0.00     0.192 HD
ATOM     21  H5  UNL     1      -8.333 -23.647 -35.037  1.00  0.00     0.188 HD
ENDBRANCH  12  13
ENDBRANCH  11  12
TORSDOF 2
ENDMDL