MODEL 1
REMARK VINA RESULT: -7.831666109      0.000      0.000
REMARK  2 active torsions:
REMARK  status: ('A' for Active; 'I' for Inactive)
REMARK    1  A    between atoms: C7_16  and  O2_17
REMARK    2  A    between atoms: O2_17  and  C8_18
ROOT
HETATM    1  C1  UNL     1      -5.867 -27.322 -28.725  1.00  0.00     0.046 C
HETATM    2  C2  UNL     1      -5.710 -26.385 -29.648  1.00  0.00     0.060 A
HETATM    3  N1  UNL     1      -4.519 -25.919 -30.132  1.00  0.00    -0.278 N
ATOM      4  H1  UNL     1      -3.595 -26.238 -29.839  1.00  0.00     0.189 HD
HETATM    5  N2  UNL     1      -4.756 -24.993 -31.036  1.00  0.00    -0.185 N
HETATM    6  N3  UNL     1      -3.904 -24.339 -31.697  1.00  0.00    -0.322 N
ATOM      7  H31 UNL     1      -4.088 -23.621 -32.398  1.00  0.00     0.179 HD
ATOM      8  H32 UNL     1      -2.899 -24.473 -31.587  1.00  0.00     0.179 HD
HETATM    9  C3  UNL     1      -6.096 -24.814 -31.182  1.00  0.00     0.164 A
HETATM   10  C4  UNL     1      -6.705 -25.689 -30.309  1.00  0.00     0.107 A
HETATM   11  C5  UNL     1      -8.158 -25.753 -30.216  1.00  0.00     0.263 A
HETATM   12  O1  UNL     1      -8.683 -26.557 -29.414  1.00  0.00    -0.267 OA
HETATM   13  N4  UNL     1      -8.922 -24.891 -31.045  1.00  0.00    -0.307 N
ATOM     14  H4  UNL     1      -9.941 -24.915 -30.999  1.00  0.00     0.170 HD
HETATM   15  C6  UNL     1      -8.270 -23.989 -31.945  1.00  0.00     0.132 A
HETATM   16  C7  UNL     1      -8.981 -23.186 -32.719  1.00  0.00     0.193 C
HETATM   17  N5  UNL     1      -6.862 -23.954 -32.010  1.00  0.00    -0.323 N
ATOM     18  H5  UNL     1      -6.395 -23.313 -32.651  1.00  0.00     0.169 HD
ENDROOT
BRANCH  16  19
HETATM   19  O2  UNL     1     -10.364 -23.236 -32.639  1.00  0.00    -0.294 OA
BRANCH  19  20
HETATM   20  C8  UNL     1     -11.093 -24.224 -33.285  1.00  0.00     0.403 C
HETATM   21  O3  UNL     1     -11.477 -25.201 -32.590  1.00  0.00    -0.276 OA
ENDBRANCH  19  20
ENDBRANCH  16  19
TORSDOF 2
ENDMDL