MODEL 5
REMARK VINA RESULT: -7.293219063      2.970      4.883
REMARK  4 active torsions:
REMARK  status: ('A' for Active; 'I' for Inactive)
REMARK    1  A    between atoms: C5_8  and  N2_9
REMARK    2  A    between atoms: N2_9  and  S1_11
REMARK    3  A    between atoms: S1_11  and  N3_14
REMARK    4  A    between atoms: N3_14  and  N4_16
ROOT
HETATM    1  C1  UNL     1      -4.224 -24.698 -31.403  1.00  0.00     0.069 C
HETATM    2  C2  UNL     1      -5.434 -25.324 -30.788  1.00  0.00     0.028 A
HETATM    3  C3  UNL     1      -5.250 -26.321 -29.839  1.00  0.00     0.100 A
HETATM    4  C4  UNL     1      -6.374 -26.891 -29.279  1.00  0.00     0.261 A
HETATM    5  O1  UNL     1      -6.274 -27.813 -28.400  1.00  0.00    -0.268 OA
HETATM    6  N1  UNL     1      -7.570 -26.441 -29.690  1.00  0.00    -0.155 N
ATOM      7  H1  UNL     1      -8.405 -26.857 -29.279  1.00  0.00     0.187 HD
HETATM    8  C5  UNL     1      -7.734 -25.472 -30.613  1.00  0.00     0.696 A
HETATM    9  N5  UNL     1      -6.652 -24.908 -31.166  1.00  0.00    -0.195 N
ATOM     10  H5  UNL     1      -6.753 -24.173 -31.866  1.00  0.00     0.184 HD
ENDROOT
BRANCH   8  11
HETATM   11  N2  UNL     1      -8.907 -25.095 -30.955  1.00  0.00    -0.098 N
ATOM     12  H2  UNL     1      -9.700 -25.581 -30.536  1.00  0.00     0.199 HD
BRANCH  11  13
HETATM   13  S1  UNL     1      -9.243 -23.840 -32.057  1.00  0.00     0.350 S
HETATM   14  O2  UNL     1      -8.283 -22.689 -31.795  1.00  0.00    -0.180 OA
HETATM   15  O3  UNL     1     -10.642 -23.330 -31.797  1.00  0.00    -0.180 OA
BRANCH  13  16
HETATM   16  N3  UNL     1      -9.091 -24.306 -33.682  1.00  0.00    -0.216 N
ATOM     17  H3  UNL     1      -8.791 -25.239 -33.967  1.00  0.00     0.201 HD
BRANCH  16  18
HETATM   18  N4  UNL     1      -9.415 -23.301 -34.591  1.00  0.00    -0.335 N
ATOM     19  H42 UNL     1      -9.931 -22.466 -34.316  1.00  0.00     0.177 HD
ATOM     20  H41 UNL     1      -9.090 -23.482 -35.541  1.00  0.00     0.177 HD
ENDBRANCH  16  18
ENDBRANCH  13  16
ENDBRANCH  11  13
ENDBRANCH   8  11
TORSDOF 4
ENDMDL