MODEL 1
REMARK VINA RESULT: -7.201285215      0.000      0.000
REMARK  2 active torsions:
REMARK  status: ('A' for Active; 'I' for Inactive)
REMARK    1  A    between atoms: N1_5  and  S1_7
REMARK    2  A    between atoms: S1_7  and  N2_10
ROOT
HETATM    1  C1  UNL     1      -3.568 -22.233 -32.656  1.00  0.00     0.070 C
HETATM    2  C2  UNL     1      -4.734 -23.177 -32.547  1.00  0.00     0.024 A
HETATM    3  C3  UNL     1      -4.809 -24.131 -31.576  1.00  0.00     0.062 A
HETATM    4  C4  UNL     1      -5.926 -25.004 -31.504  1.00  0.00     0.115 A
HETATM    5  N1  UNL     1      -5.957 -25.871 -30.595  1.00  0.00    -0.261 N
ATOM      6  H1  UNL     1      -5.141 -25.848 -29.984  1.00  0.00     0.180 HD
HETATM    7  C5  UNL     1      -6.930 -24.873 -32.427  1.00  0.00     0.287 A
HETATM    8  O3  UNL     1      -7.976 -25.589 -32.470  1.00  0.00    -0.264 OA
HETATM    9  N4  UNL     1      -6.794 -23.901 -33.368  1.00  0.00    -0.264 N
ATOM     10  H4  UNL     1      -7.533 -23.789 -34.062  1.00  0.00     0.190 HD
HETATM   11  N5  UNL     1      -5.751 -23.098 -33.422  1.00  0.00    -0.302 N
ATOM     12  H5  UNL     1      -5.715 -22.390 -34.156  1.00  0.00     0.186 HD
ENDROOT
BRANCH   5  13
HETATM   13  S1  UNL     1      -7.063 -27.056 -30.180  1.00  0.00     0.336 S
HETATM   14  O1  UNL     1      -6.614 -27.810 -28.926  1.00  0.00    -0.181 OA
HETATM   15  O2  UNL     1      -7.124 -28.122 -31.260  1.00  0.00    -0.181 OA
BRANCH  13  16
HETATM   16  N2  UNL     1      -8.666 -26.512 -29.922  1.00  0.00    -0.216 N
HETATM   17  N3  UNL     1      -8.927 -25.359 -29.540  1.00  0.00    -0.335 N
ATOM     18  H32 UNL     1      -8.144 -24.724 -29.378  1.00  0.00     0.177 HD
ATOM     19  H31 UNL     1      -9.881 -25.035 -29.386  1.00  0.00     0.177 HD
ATOM     20  H2  UNL     1      -9.436 -27.160 -30.088  1.00  0.00     0.201 HD
ENDBRANCH  13  16
ENDBRANCH   5  13
TORSDOF 2
ENDMDL