MODEL 2
REMARK VINA RESULT: -6.741138042      3.152      6.077
REMARK  7 active torsions:
REMARK  status: ('A' for Active; 'I' for Inactive)
REMARK    1  A    between atoms: C3_3  and  C4_4
REMARK    2  A    between atoms: C4_4  and  C5_5
REMARK    3  A    between atoms: C5_5  and  C6_6
REMARK    4  A    between atoms: C9_12  and  N3_13
REMARK    5  A    between atoms: N3_13  and  C10_15
REMARK    6  A    between atoms: N6_23  and  C13_24
REMARK    7  A    between atoms: C13_24  and  C14_25
ROOT
HETATM    1  C1  UNL     1       1.153   3.965   5.060  1.00  0.00     0.113 C
HETATM    2  C2  UNL     1       0.527   3.866   6.387  1.00  0.00    -0.097 C
HETATM    3  C3  UNL     1       0.016   3.804   7.481  1.00  0.00    -0.015 C
ENDROOT
BRANCH   3   4
HETATM    4  C4  UNL     1      -0.574   3.751   8.771  1.00  0.00    -0.009 C
BRANCH   4   5
HETATM    5  C5  UNL     1      -1.075   3.727   9.878  1.00  0.00    -0.044 C
BRANCH   5   6
HETATM    6  C6  UNL     1      -1.661   3.713  11.190  1.00  0.00     0.125 A
HETATM    7  C7  UNL     1      -2.492   2.696  11.614  1.00  0.00     0.154 A
HETATM    8  C8  UNL     1      -2.783   1.619  10.732  1.00  0.00     0.120 C
HETATM    9  N2  UNL     1      -3.043   2.691  12.858  1.00  0.00    -0.180 N
HETATM   10  N1  UNL     1      -3.005   0.731   9.999  1.00  0.00    -0.190 NA
HETATM   11  C9  UNL     1      -2.767   3.707  13.685  1.00  0.00     0.690 A
ATOM     12  H2  UNL     1      -3.654   1.930  13.155  1.00  0.00     0.185 HD
HETATM   13  N6  UNL     1      -1.956   4.739  13.326  1.00  0.00    -0.145 N
HETATM   14  C17 UNL     1      -1.422   4.734  12.109  1.00  0.00     0.283 A
HETATM   15  O2  UNL     1      -0.671   5.673  11.750  1.00  0.00    -0.266 OA
BRANCH  11  16
HETATM   16  N3  UNL     1      -3.348   3.688  14.976  1.00  0.00    -0.172 N
ATOM     17  H3  UNL     1      -3.413   4.554  15.513  1.00  0.00     0.186 HD
BRANCH  16  18
HETATM   18  C10 UNL     1      -3.794   2.599  15.477  1.00  0.00     0.167 A
HETATM   19  N4  UNL     1      -3.072   1.553  15.910  1.00  0.00    -0.223 N
HETATM   20  O1  UNL     1      -3.897   0.650  16.346  1.00  0.00    -0.155 OA
ATOM     21  H4  UNL     1      -2.054   1.479  15.899  1.00  0.00     0.198 HD
HETATM   22  N5  UNL     1      -5.126   1.033  16.226  1.00  0.00    -0.242 N
HETATM   23  C11 UNL     1      -5.110   2.248  15.686  1.00  0.00     0.076 A
ATOM     24  H5  UNL     1      -5.954   0.502  16.497  1.00  0.00     0.196 HD
HETATM   25  C12 UNL     1      -6.276   3.092  15.361  1.00  0.00     0.074 C
ENDBRANCH  16  18
ENDBRANCH  11  16
BRANCH  13  26
HETATM   26  C13 UNL     1      -1.699   5.794  14.254  1.00  0.00     0.155 C
BRANCH  26  27
HETATM   27  C14 UNL     1      -2.571   7.018  14.002  1.00  0.00     0.005 A
HETATM   28  C15 UNL     1      -2.316   8.160  14.946  1.00  0.00     0.007 A
HETATM   29  C16 UNL     1      -1.969   8.273  13.494  1.00  0.00     0.007 A
ENDBRANCH  26  27
ENDBRANCH  13  26
ENDBRANCH   5   6
ENDBRANCH   4   5
ENDBRANCH   3   4
TORSDOF 7
ENDMDL