MODEL 3
REMARK VINA RESULT: -7.227897520      2.107      4.756
REMARK  6 active torsions:
REMARK  status: ('A' for Active; 'I' for Inactive)
REMARK    1  A    between atoms: O1_2  and  C2_3
REMARK    2  A    between atoms: C2_3  and  C3_5
REMARK    3  A    between atoms: C12_15  and  O4_16
REMARK    4  A    between atoms: C15_20  and  C16_21
REMARK    5  A    between atoms: C16_21  and  O5_22
REMARK    6  A    between atoms: O5_22  and  C17_23
ROOT
HETATM    1  C3  UNL     1      -3.036   2.557  12.384  1.00  0.00     0.024 C
HETATM    2  C4  UNL     1      -3.866   2.181  13.327  1.00  0.00    -0.065 C
HETATM    3  C5  UNL     1      -4.336   0.787  13.342  1.00  0.00     0.044 C
HETATM    4  C6  UNL     1      -4.359   3.093  14.392  1.00  0.00     0.037 C
HETATM    5  C7  UNL     1      -5.773   2.901  14.853  1.00  0.00     0.060 C
HETATM    6  C8  UNL     1      -5.831   2.353  16.240  1.00  0.00     0.018 C
HETATM    7  C9  UNL     1      -5.871   4.409  14.775  1.00  0.00     0.136 C
HETATM    8  O3  UNL     1      -6.473   5.245  15.394  1.00  0.00    -0.297 OA
HETATM    9  C10 UNL     1      -4.934   4.294  13.656  1.00  0.00     0.071 C
HETATM   10  C11 UNL     1      -3.918   5.356  13.423  1.00  0.00     0.033 C
HETATM   11  C12 UNL     1      -4.030   5.753  11.957  1.00  0.00     0.124 C
HETATM   12  C13 UNL     1      -3.246   4.709  11.191  1.00  0.00     0.042 C
HETATM   13  C14 UNL     1      -2.430   3.946  12.180  1.00  0.00     0.034 C
HETATM   14  C15 UNL     1      -2.495   4.783  13.412  1.00  0.00     0.026 C
ENDROOT
BRANCH  14  15
HETATM   15  C16 UNL     1      -1.564   5.974  13.180  1.00  0.00     0.184 C
BRANCH  15  16
HETATM   16  O5  UNL     1      -1.683   6.840  14.321  1.00  0.00    -0.321 OA
BRANCH  16  17
HETATM   17  C17 UNL     1      -1.655   8.205  14.209  1.00  0.00     0.254 C
HETATM   18  C18 UNL     1      -1.249   9.064  15.353  1.00  0.00     0.126 C
HETATM   19  O6  UNL     1      -1.979   8.741  13.122  1.00  0.00    -0.266 OA
ENDBRANCH  16  17
ENDBRANCH  15  16
ENDBRANCH  14  15
BRANCH  11  20
HETATM   20  O4  UNL     1      -5.365   5.623  11.523  1.00  0.00    -0.395 OA
ATOM     21  H4  UNL     1      -5.930   5.422  12.260  1.00  0.00     0.210 HD
ENDBRANCH  11  20
BRANCH   1  22
HETATM   22  C2  UNL     1      -2.621   1.584  11.401  1.00  0.00     0.289 C
HETATM   23  O2  UNL     1      -1.425   1.110  11.546  1.00  0.00    -0.260 OA
BRANCH  22  24
HETATM   24  O1  UNL     1      -3.359   1.119  10.342  1.00  0.00    -0.323 OA
HETATM   25  C1  UNL     1      -3.522  -0.274  10.149  1.00  0.00     0.213 C
ENDBRANCH  22  24
ENDBRANCH   1  22
TORSDOF 6
ENDMDL