MODEL 1
REMARK VINA RESULT: -7.230961930      0.000      0.000
REMARK  6 active torsions:
REMARK  status: ('A' for Active; 'I' for Inactive)
REMARK    1  A    between atoms: C2_2  and  C3_3
REMARK    2  A    between atoms: C4_4  and  C5_5
REMARK    3  A    between atoms: C6_6  and  N1_7
REMARK    4  A    between atoms: N1_7  and  C7_9
REMARK    5  A    between atoms: C7_9  and  C8_10
REMARK    6  A    between atoms: C8_10  and  O1_11
ROOT
HETATM    1  C5  UNL     1      -3.642   3.031  13.143  1.00  0.00     0.079 A
HETATM    2  C6  UNL     1      -4.572   3.557  14.016  1.00  0.00     0.121 A
HETATM    3  N2  UNL     1      -4.417   4.800  14.461  1.00  0.00    -0.349 N
ATOM      4  H2  UNL     1      -5.108   5.184  15.106  1.00  0.00     0.167 HD
HETATM    5  C10 UNL     1      -3.370   5.574  14.086  1.00  0.00     0.121 A
HETATM    6  C11 UNL     1      -2.430   5.092  13.226  1.00  0.00     0.091 A
HETATM    7  C12 UNL     1      -2.559   3.780  12.732  1.00  0.00     0.084 A
HETATM    8  C13 UNL     1      -1.624   3.287  11.870  1.00  0.00     0.275 A
HETATM    9  O2  UNL     1      -1.715   2.136  11.422  1.00  0.00    -0.266 OA
HETATM   10  N3  UNL     1      -0.610   4.078  11.525  1.00  0.00    -0.149 N
HETATM   11  C14 UNL     1       0.394   3.562  10.607  1.00  0.00     0.179 C
HETATM   12  C15 UNL     1      -0.464   5.320  11.977  1.00  0.00     0.710 A
HETATM   13  N4  UNL     1       0.475   6.268  11.752  1.00  0.00    -0.130 N
ATOM     14  H4  UNL     1       1.290   6.172  11.147  1.00  0.00     0.205 HD
HETATM   15  N5  UNL     1       0.157   7.322  12.439  1.00  0.00    -0.274 N
ATOM     16  H5  UNL     1       0.693   8.189  12.458  1.00  0.00     0.189 HD
HETATM   17  C16 UNL     1      -1.009   7.100  13.141  1.00  0.00     0.116 A
HETATM   18  C17 UNL     1      -1.644   8.095  14.020  1.00  0.00     0.092 C
HETATM   19  N6  UNL     1      -1.366   5.853  12.833  1.00  0.00    -0.132 N
ENDROOT
BRANCH   2  20
HETATM   20  N1  UNL     1      -5.557   2.805  14.359  1.00  0.00    -0.373 N
ATOM     21  H1  UNL     1      -6.253   2.500  13.679  1.00  0.00     0.161 HD
BRANCH  20  22
HETATM   22  C7  UNL     1      -5.639   2.407  15.751  1.00  0.00     0.147 C
BRANCH  22  23
HETATM   23  C8  UNL     1      -5.320   0.936  15.919  1.00  0.00     0.186 C
BRANCH  23  24
HETATM   24  O1  UNL     1      -6.374   0.220  16.456  1.00  0.00    -0.394 OA
HETATM   25  C9  UNL     1      -7.369   1.008  16.970  1.00  0.00     0.201 C
ENDBRANCH  23  24
ENDBRANCH  22  23
ENDBRANCH  20  22
ENDBRANCH   2  20
BRANCH   1  26
HETATM   26  C4  UNL     1      -3.811   1.675  12.657  1.00  0.00    -0.062 C
HETATM   27  C3  UNL     1      -3.998   0.526  12.253  1.00  0.00    -0.101 C
BRANCH  27  28
HETATM   28  C2  UNL     1      -4.237  -0.829  11.760  1.00  0.00     0.090 C
HETATM   29  C1  UNL     1      -2.924  -1.369  11.257  1.00  0.00     0.018 C
ENDBRANCH  27  28
ENDBRANCH   1  26
TORSDOF 6
ENDMDL