MODEL 2
REMARK VINA RESULT: -6.492187384      3.627      6.425
REMARK  4 active torsions:
REMARK  status: ('A' for Active; 'I' for Inactive)
REMARK    1  A    between atoms: C2_2  and  O1_3
REMARK    2  A    between atoms: C2_2  and  C3_5
REMARK    3  A    between atoms: C9_13  and  O2_14
REMARK    4  A    between atoms: O2_14  and  S1_15
ROOT
HETATM    1  C3  UNL     1      -5.223   6.027  10.698  1.00  0.00     0.287 C
HETATM    2  C4  UNL     1      -4.302   5.184   9.855  1.00  0.00     0.227 C
HETATM    3  C5  UNL     1      -3.774   5.926   8.710  1.00  0.00     0.087 C
HETATM    4  N1  UNL     1      -3.352   6.495   7.802  1.00  0.00    -0.195 NA
HETATM    5  N2  UNL     1      -3.245   4.615  10.643  1.00  0.00    -0.368 N
HETATM    6  C6  UNL     1      -2.089   3.992  10.038  1.00  0.00     0.151 C
HETATM    7  C7  UNL     1      -3.324   4.651  12.039  1.00  0.00     0.040 C
HETATM    8  C8  UNL     1      -2.749   3.754  12.834  1.00  0.00     0.033 C
HETATM    9  C9  UNL     1      -2.922   3.924  14.295  1.00  0.00     0.165 C
HETATM   10  C11 UNL     1      -2.728   5.325  14.743  1.00  0.00     0.040 C
HETATM   11  C12 UNL     1      -3.097   6.341  13.695  1.00  0.00     0.045 C
HETATM   12  C13 UNL     1      -4.063   5.732  12.730  1.00  0.00     0.272 C
HETATM   13  N3  UNL     1      -4.524   6.700  11.763  1.00  0.00     0.104 N
HETATM   14  C14 UNL     1      -3.463   7.556  11.394  1.00  0.00     0.311 C
ENDROOT
BRANCH   1  15
HETATM   15  C2  UNL     1      -6.158   6.886   9.931  1.00  0.00     0.150 C
HETATM   16  C1  UNL     1      -6.884   7.833  10.886  1.00  0.00     0.041 C
BRANCH  15  17
HETATM   17  O1  UNL     1      -7.049   6.279   9.101  1.00  0.00    -0.394 OA
ATOM     18  H1  UNL     1      -7.791   5.954   9.596  1.00  0.00     0.210 HD
ENDBRANCH  15  17
ENDBRANCH   1  15
BRANCH   9  19
HETATM   19  O2  UNL     1      -4.168   3.398  14.609  1.00  0.00    -0.289 OA
BRANCH  19  20
HETATM   20  S1  UNL     1      -4.106   1.896  15.307  1.00  0.00     0.120 S
HETATM   21  C10 UNL     1      -5.403   1.792  16.518  1.00  0.00     0.157 C
HETATM   22  O3  UNL     1      -2.804   1.781  16.057  1.00  0.00    -0.232 OA
HETATM   23  S2  UNL     1      -4.318   0.625  14.210  1.00  0.00     0.036 SA
ENDBRANCH  19  20
ENDBRANCH   9  19
TORSDOF 4
ENDMDL