MODEL 5
REMARK VINA RESULT: -7.523162036      1.643      4.024
REMARK  5 active torsions:
REMARK  status: ('A' for Active; 'I' for Inactive)
REMARK    1  A    between atoms: C2_2  and  C3_4
REMARK    2  A    between atoms: C5_6  and  C6_7
REMARK    3  A    between atoms: C6_7  and  C7_9
REMARK    4  A    between atoms: C14_18  and  O5_19
REMARK    5  A    between atoms: C14_18  and  C15_21
ROOT
HETATM    1  C7  UNL     1      -3.685   3.355  12.093  1.00  0.00     0.202 C
HETATM    2  C8  UNL     1      -2.942   2.782  10.948  1.00  0.00     0.146 C
HETATM    3  O3  UNL     1      -3.554   1.895  10.389  1.00  0.00    -0.297 OA
HETATM    4  C9  UNL     1      -1.615   3.006  10.286  1.00  0.00     0.084 C
HETATM    5  C10 UNL     1      -1.745   3.887   9.080  1.00  0.00    -0.005 C
HETATM    6  C11 UNL     1      -0.511   3.626   8.206  1.00  0.00     0.011 C
HETATM    7  C12 UNL     1      -1.773   5.346   9.377  1.00  0.00     0.087 C
HETATM    8  C13 UNL     1      -2.619   5.740  10.505  1.00  0.00     0.176 C
HETATM    9  O4  UNL     1      -1.992   6.213  11.451  1.00  0.00    -0.294 OA
HETATM   10  C14 UNL     1      -4.077   5.716  10.812  1.00  0.00     0.240 C
HETATM   11  C17 UNL     1      -4.270   4.661  11.832  1.00  0.00     0.195 C
HETATM   12  O7  UNL     1      -5.118   4.973  12.634  1.00  0.00    -0.292 OA
ENDROOT
BRANCH   1  13
HETATM   13  C6  UNL     1      -4.723   2.333  12.505  1.00  0.00     0.168 C
HETATM   14  O2  UNL     1      -5.714   2.118  11.761  1.00  0.00    -0.292 OA
BRANCH  13  15
HETATM   15  C5  UNL     1      -4.480   1.664  13.766  1.00  0.00     0.061 C
HETATM   16  C3  UNL     1      -5.046   1.946  14.920  1.00  0.00    -0.013 C
HETATM   17  C4  UNL     1      -6.038   3.051  14.988  1.00  0.00     0.052 C
BRANCH  16  18
HETATM   18  C2  UNL     1      -4.721   1.195  16.143  1.00  0.00     0.151 C
HETATM   19  C1  UNL     1      -5.747   1.005  17.189  1.00  0.00     0.096 C
HETATM   20  O1  UNL     1      -3.556   0.731  16.258  1.00  0.00    -0.293 OA
ENDBRANCH  16  18
ENDBRANCH  13  15
ENDBRANCH   1  13
BRANCH  10  21
HETATM   21  O5  UNL     1      -4.768   5.269   9.672  1.00  0.00    -0.369 OA
ATOM     22  H5  UNL     1      -4.678   4.326   9.614  1.00  0.00     0.212 HD
ENDBRANCH  10  21
BRANCH  10  23
HETATM   23  C15 UNL     1      -4.601   7.022  11.201  1.00  0.00     0.172 C
HETATM   24  C16 UNL     1      -5.959   7.504  10.795  1.00  0.00     0.095 C
HETATM   25  O6  UNL     1      -3.912   7.754  11.882  1.00  0.00    -0.294 OA
ENDBRANCH  10  23
TORSDOF 5
ENDMDL