MODEL 4
REMARK VINA RESULT: -7.148146379      1.290      2.032
REMARK  6 active torsions:
REMARK  status: ('A' for Active; 'I' for Inactive)
REMARK    1  A    between atoms: O1_2  and  C2_3
REMARK    2  A    between atoms: C2_3  and  C3_5
REMARK    3  A    between atoms: C3_5  and  C5_7
REMARK    4  A    between atoms: C7_10  and  O4_11
REMARK    5  A    between atoms: C10_15  and  O5_16
REMARK    6  A    between atoms: O5_16  and  C11_17
ROOT
HETATM    1  C5  UNL     1      -3.182   2.776  11.747  1.00  0.00     0.141 C
HETATM    2  C6  UNL     1      -4.399   3.312  11.101  1.00  0.00     0.168 C
HETATM    3  O3  UNL     1      -5.411   2.648  11.108  1.00  0.00    -0.294 OA
HETATM    4  C7  UNL     1      -4.454   4.635  10.437  1.00  0.00     0.200 C
HETATM    5  C8  UNL     1      -3.553   5.659  11.025  1.00  0.00     0.028 C
HETATM    6  C9  UNL     1      -2.807   6.408   9.936  1.00  0.00     0.022 C
HETATM    7  C10 UNL     1      -4.308   6.669  11.901  1.00  0.00     0.152 C
HETATM    8  C13 UNL     1      -3.661   6.044  13.125  1.00  0.00    -0.009 C
HETATM    9  C14 UNL     1      -4.613   5.233  13.933  1.00  0.00     0.018 C
HETATM   10  C15 UNL     1      -2.909   7.032  13.987  1.00  0.00     0.018 C
HETATM   11  C16 UNL     1      -2.744   5.309  12.196  1.00  0.00     0.080 C
HETATM   12  C17 UNL     1      -2.582   3.899  12.532  1.00  0.00     0.145 C
HETATM   13  O7  UNL     1      -1.923   3.604  13.506  1.00  0.00    -0.297 OA
ENDROOT
BRANCH   1  14
HETATM   14  C3  UNL     1      -2.184   2.171  10.810  1.00  0.00     0.100 C
HETATM   15  C4  UNL     1      -0.757   2.566  11.199  1.00  0.00     0.022 C
BRANCH  14  16
HETATM   16  C2  UNL     1      -2.205   0.697  10.757  1.00  0.00     0.263 C
HETATM   17  O2  UNL     1      -1.315  -0.015  11.260  1.00  0.00    -0.265 OA
BRANCH  16  18
HETATM   18  O1  UNL     1      -3.246  -0.002  10.124  1.00  0.00    -0.326 OA
HETATM   19  C1  UNL     1      -4.258  -0.634  10.878  1.00  0.00     0.213 C
ENDBRANCH  16  18
ENDBRANCH  14  16
ENDBRANCH   1  14
BRANCH   4  20
HETATM   20  O4  UNL     1      -4.181   4.424   9.084  1.00  0.00    -0.387 OA
ATOM     21  H4  UNL     1      -4.927   3.962   8.718  1.00  0.00     0.210 HD
ENDBRANCH   4  20
BRANCH   7  22
HETATM   22  O5  UNL     1      -5.699   6.547  11.841  1.00  0.00    -0.315 OA
BRANCH  22  23
HETATM   23  C11 UNL     1      -6.548   7.559  11.393  1.00  0.00     0.255 C
HETATM   24  C12 UNL     1      -6.035   8.680  10.540  1.00  0.00     0.126 C
HETATM   25  O6  UNL     1      -7.755   7.491  11.736  1.00  0.00    -0.266 OA
ENDBRANCH  22  23
ENDBRANCH   7  22
TORSDOF 6
ENDMDL