MODEL 2
REMARK VINA RESULT: -6.915372263      2.386      6.230
REMARK  4 active torsions:
REMARK  status: ('A' for Active; 'I' for Inactive)
REMARK    1  A    between atoms: C3_3  and  C4_4
REMARK    2  A    between atoms: C9_10  and  C10_11
REMARK    3  A    between atoms: C10_11  and  O1_12
REMARK    4  A    between atoms: N3_20  and  C15_21
ROOT
HETATM    1  C4  UNL     1      -4.220   4.462  10.302  1.00  0.00     0.133 C
HETATM    2  C5  UNL     1      -5.163   5.484  10.004  1.00  0.00     0.059 C
HETATM    3  N1  UNL     1      -5.941   6.288   9.752  1.00  0.00    -0.197 NA
ENDROOT
BRANCH   1   4
HETATM    4  C3  UNL     1      -3.696   4.335  11.667  1.00  0.00     0.051 C
HETATM    5  C2  UNL     1      -4.421   3.420  12.585  1.00  0.00     0.116 C
HETATM    6  C1  UNL     1      -4.852   2.094  12.009  1.00  0.00     0.034 C
HETATM    7  N3  UNL     1      -3.786   3.132  13.838  1.00  0.00    -0.125 N
HETATM    8  C14 UNL     1      -2.554   3.719  14.167  1.00  0.00     0.339 C
HETATM    9  N2  UNL     1      -1.951   4.611  13.229  1.00  0.00    -0.328 N
HETATM   10  O2  UNL     1      -1.933   3.512  15.249  1.00  0.00    -0.246 OA
HETATM   11  C6  UNL     1      -2.186   4.297  11.823  1.00  0.00     0.043 C
HETATM   12  C13 UNL     1      -1.175   5.756  13.685  1.00  0.00     0.155 C
HETATM   13  C7  UNL     1      -1.561   3.006  11.498  1.00  0.00     0.032 C
HETATM   14  C12 UNL     1      -1.529   5.366  10.986  1.00  0.00     0.032 C
HETATM   15  C8  UNL     1      -0.060   3.163  11.493  1.00  0.00     0.009 C
HETATM   16  C9  UNL     1       0.357   3.936  10.275  1.00  0.00     0.009 C
HETATM   17  C11 UNL     1      -0.767   4.788   9.792  1.00  0.00     0.009 C
BRANCH   7  18
HETATM   18  C15 UNL     1      -4.407   2.256  14.753  1.00  0.00     0.720 A
HETATM   19  N4  UNL     1      -3.833   1.141  15.224  1.00  0.00    -0.115 N
HETATM   20  N5  UNL     1      -4.702   0.587  16.044  1.00  0.00    -0.211 N
ATOM     21  H4  UNL     1      -2.905   0.788  14.992  1.00  0.00     0.207 HD
HETATM   22  N6  UNL     1      -5.809   1.300  16.121  1.00  0.00    -0.209 N
ATOM     23  H5  UNL     1      -4.539  -0.281  16.555  1.00  0.00     0.210 HD
HETATM   24  C16 UNL     1      -7.000   1.042  16.903  1.00  0.00     0.202 C
HETATM   25  N7  UNL     1      -5.618   2.330  15.320  1.00  0.00    -0.113 N
ATOM     26  H7  UNL     1      -6.294   3.075  15.155  1.00  0.00     0.207 HD
ENDBRANCH   7  18
BRANCH  16  27
HETATM   27  C10 UNL     1       1.541   4.820  10.603  1.00  0.00     0.168 C
BRANCH  27  28
HETATM   28  O1  UNL     1       2.350   4.178  11.552  1.00  0.00    -0.400 OA
ATOM     29  H1  UNL     1       2.844   4.830  12.036  1.00  0.00     0.209 HD
ENDBRANCH  27  28
ENDBRANCH  16  27
ENDBRANCH   1   4
TORSDOF 4
ENDMDL