MODEL 4
REMARK VINA RESULT: -6.849081678      2.998      7.386
REMARK  3 active torsions:
REMARK  status: ('A' for Active; 'I' for Inactive)
REMARK    1  A    between atoms: C2_2  and  C3_3
REMARK    2  A    between atoms: C3_3  and  C4_4
REMARK    3  A    between atoms: C4_4  and  N1_5
ROOT
HETATM    1  N1  UNL     1      -2.465   5.392   9.554  1.00  0.00    -0.264 N
HETATM    2  C5  UNL     1      -2.334   4.066   9.659  1.00  0.00     0.281 A
HETATM    3  O1  UNL     1      -1.708   3.431   8.755  1.00  0.00    -0.265 OA
HETATM    4  C6  UNL     1      -2.861   3.399  10.711  1.00  0.00     0.133 A
HETATM    5  C7  UNL     1      -3.548   4.112  11.699  1.00  0.00     0.087 A
HETATM    6  C8  UNL     1      -3.974   3.181  12.602  1.00  0.00     0.065 A
HETATM    7  C9  UNL     1      -4.671   3.284  13.769  1.00  0.00     0.056 A
HETATM    8  C10 UNL     1      -4.969   2.130  14.463  1.00  0.00     0.039 A
HETATM    9  C11 UNL     1      -4.575   0.896  14.012  1.00  0.00     0.257 A
HETATM   10  O2  UNL     1      -4.846  -0.159  14.644  1.00  0.00    -0.267 OA
HETATM   11  N2  UNL     1      -3.875   0.819  12.853  1.00  0.00    -0.303 N
HETATM   12  C12 UNL     1      -3.496  -0.507  12.413  1.00  0.00     0.161 C
HETATM   13  C13 UNL     1      -3.563   1.910  12.138  1.00  0.00     0.127 A
HETATM   14  N3  UNL     1      -2.880   2.069  10.988  1.00  0.00    -0.330 N
HETATM   15  C14 UNL     1      -2.272   1.014  10.227  1.00  0.00     0.158 C
HETATM   16  C15 UNL     1      -5.798   2.431  15.687  1.00  0.00     0.066 C
HETATM   17  C16 UNL     1      -6.326   3.816  15.263  1.00  0.00     0.124 C
HETATM   18  N4  UNL     1      -5.073   4.306  14.661  1.00  0.00    -0.388 N
ATOM     19  H4  UNL     1      -4.599   5.189  14.846  1.00  0.00     0.159 HD
HETATM   20  N5  UNL     1      -3.684   5.442  11.591  1.00  0.00    -0.300 N
HETATM   21  C17 UNL     1      -4.480   6.279  12.441  1.00  0.00     0.161 C
HETATM   22  C18 UNL     1      -3.124   6.046  10.503  1.00  0.00     0.331 A
HETATM   23  O3  UNL     1      -3.249   7.313  10.404  1.00  0.00    -0.246 OA
ENDROOT
BRANCH   1  24
HETATM   24  C4  UNL     1      -1.885   6.045   8.424  1.00  0.00     0.137 C
BRANCH  24  25
HETATM   25  C3  UNL     1      -2.974   6.144   7.353  1.00  0.00     0.020 C
BRANCH  25  26
HETATM   26  C2  UNL     1      -2.454   5.677   6.021  1.00  0.00    -0.003 C
HETATM   27  C1  UNL     1      -0.945   5.599   6.086  1.00  0.00     0.005 C
ENDBRANCH  25  26
ENDBRANCH  24  25
ENDBRANCH   1  24
TORSDOF 3
ENDMDL