MODEL 2
REMARK VINA RESULT: -7.016654992      1.954      3.805
REMARK  6 active torsions:
REMARK  status: ('A' for Active; 'I' for Inactive)
REMARK    1  A    between atoms: C2_2  and  O2_4
REMARK    2  A    between atoms: O2_4  and  C3_5
REMARK    3  A    between atoms: C11_14  and  C12_15
REMARK    4  A    between atoms: C12_15  and  O4_16
REMARK    5  A    between atoms: C15_21  and  O6_22
REMARK    6  A    between atoms: O6_22  and  C16_23
ROOT
HETATM    1  C3  UNL     1      -3.663   2.250  13.179  1.00  0.00     0.190 C
HETATM    2  C4  UNL     1      -3.517   1.946  11.703  1.00  0.00     0.150 C
HETATM    3  C5  UNL     1      -4.834   1.544  11.067  1.00  0.00     0.042 C
HETATM    4  O3  UNL     1      -2.843   2.897  11.012  1.00  0.00    -0.372 OA
HETATM    5  C6  UNL     1      -3.236   4.182  11.132  1.00  0.00     0.075 C
HETATM    6  C7  UNL     1      -4.240   4.557  10.057  1.00  0.00     0.047 C
HETATM    7  C8  UNL     1      -1.988   5.039  10.836  1.00  0.00     0.091 C
HETATM    8  C9  UNL     1      -0.886   4.360  11.622  1.00  0.00     0.016 C
HETATM    9  C10 UNL     1      -1.178   4.792  13.060  1.00  0.00     0.021 C
HETATM   10  C11 UNL     1      -2.482   5.532  12.975  1.00  0.00     0.051 C
HETATM   11  C13 UNL     1      -2.218   6.233  11.678  1.00  0.00     0.145 C
HETATM   12  O5  UNL     1      -2.218   7.398  11.492  1.00  0.00    -0.296 OA
HETATM   13  C14 UNL     1      -3.623   4.675  12.491  1.00  0.00     0.071 C
HETATM   14  C15 UNL     1      -4.132   3.663  13.441  1.00  0.00     0.172 C
ENDROOT
BRANCH   1  15
HETATM   15  O2  UNL     1      -4.560   1.293  13.707  1.00  0.00    -0.311 OA
BRANCH  15  16
HETATM   16  C2  UNL     1      -4.430   0.714  14.949  1.00  0.00     0.255 C
HETATM   17  C1  UNL     1      -3.840   1.390  16.125  1.00  0.00     0.126 C
HETATM   18  O1  UNL     1      -4.856  -0.484  15.058  1.00  0.00    -0.266 OA
ENDBRANCH  15  16
ENDBRANCH   1  15
BRANCH  14  19
HETATM   19  O6  UNL     1      -5.543   3.611  13.405  1.00  0.00    -0.313 OA
BRANCH  19  20
HETATM   20  C16 UNL     1      -6.277   4.320  14.329  1.00  0.00     0.255 C
HETATM   21  C17 UNL     1      -6.474   3.901  15.730  1.00  0.00     0.126 C
HETATM   22  O7  UNL     1      -6.817   5.392  13.956  1.00  0.00    -0.266 OA
ENDBRANCH  19  20
ENDBRANCH  14  19
BRANCH  10  23
HETATM   23  C12 UNL     1      -2.768   6.483  14.053  1.00  0.00     0.182 C
BRANCH  23  24
HETATM   24  O4  UNL     1      -1.757   7.340  14.381  1.00  0.00    -0.400 OA
ATOM     25  H4  UNL     1      -1.628   7.497  15.309  1.00  0.00     0.209 HD
ENDBRANCH  23  24
ENDBRANCH  10  23
TORSDOF 6
ENDMDL