MODEL 5
REMARK VINA RESULT: -7.327193397      2.518      5.031
REMARK  6 active torsions:
REMARK  status: ('A' for Active; 'I' for Inactive)
REMARK    1  A    between atoms: C2_2  and  O1_3
REMARK    2  A    between atoms: O1_3  and  C3_4
REMARK       I    between atoms: C3_4  and  N1_6
REMARK    3  A    between atoms: C10_15  and  O4_16
REMARK    4  A    between atoms: C11_18  and  C12_19
REMARK    5  A    between atoms: C12_19  and  C13_20
REMARK    6  A    between atoms: C13_20  and  O6_22
ROOT
HETATM    1  C3  UNL     1      -3.407   0.775  11.642  1.00  0.00     0.369 C
HETATM    2  O2  UNL     1      -3.007   1.132  10.506  1.00  0.00    -0.238 OA
HETATM    3  N1  UNL     1      -3.588   1.786  12.626  1.00  0.00    -0.258 N
HETATM    4  C4  UNL     1      -4.044   1.370  13.921  1.00  0.00     0.233 C
HETATM    5  O3  UNL     1      -4.704   0.303  13.990  1.00  0.00    -0.272 OA
HETATM    6  C5  UNL     1      -3.715   2.214  15.098  1.00  0.00     0.092 C
HETATM    7  C6  UNL     1      -4.437   1.777  16.325  1.00  0.00     0.021 C
HETATM    8  C7  UNL     1      -4.007   3.647  14.718  1.00  0.00     0.114 C
HETATM    9  C8  UNL     1      -5.419   3.899  14.563  1.00  0.00     0.065 C
HETATM   10  N2  UNL     1      -6.555   4.090  14.456  1.00  0.00    -0.197 NA
HETATM   11  C9  UNL     1      -3.181   4.027  13.543  1.00  0.00     0.057 C
HETATM   12  C10 UNL     1      -3.516   5.395  13.005  1.00  0.00     0.130 C
HETATM   13  C11 UNL     1      -4.429   5.178  11.822  1.00  0.00     0.026 C
HETATM   14  C15 UNL     1      -4.409   3.722  11.484  1.00  0.00     0.034 C
HETATM   15  C16 UNL     1      -3.329   3.163  12.347  1.00  0.00     0.106 C
ENDROOT
BRANCH  12  16
HETATM   16  O4  UNL     1      -2.318   6.012  12.591  1.00  0.00    -0.395 OA
ATOM     17  H4  UNL     1      -1.669   5.888  13.274  1.00  0.00     0.210 HD
ENDBRANCH  12  16
BRANCH  13  18
HETATM   18  C12 UNL     1      -3.839   5.928  10.622  1.00  0.00     0.118 C
BRANCH  18  19
HETATM   19  C13 UNL     1      -4.792   5.926   9.487  1.00  0.00     0.258 C
HETATM   20  O5  UNL     1      -4.431   5.753   8.298  1.00  0.00    -0.265 OA
BRANCH  19  21
HETATM   21  O6  UNL     1      -6.129   6.123   9.763  1.00  0.00    -0.326 OA
HETATM   22  C14 UNL     1      -6.924   6.971   8.978  1.00  0.00     0.213 C
ENDBRANCH  19  21
ENDBRANCH  18  19
ENDBRANCH  13  18
BRANCH   1  23
HETATM   23  O1  UNL     1      -3.641  -0.556  11.857  1.00  0.00    -0.304 OA
BRANCH  23  24
HETATM   24  C2  UNL     1      -3.394  -1.545  10.893  1.00  0.00     0.176 C
HETATM   25  C1  UNL     1      -2.788  -2.795  11.480  1.00  0.00     0.034 C
ENDBRANCH  23  24
ENDBRANCH   1  23
TORSDOF 6
ENDMDL