MODEL 1
REMARK VINA RESULT: -4.062660933      0.000      0.000
REMARK  1 active torsions:
REMARK  status: ('A' for Active; 'I' for Inactive)
REMARK       I    between atoms: C2_2  and  N1_4
REMARK    1  A    between atoms: N1_4  and  C3_6
ROOT
HETATM    1  C3  UNL     1      -0.304  11.766   2.408  1.00  0.00     0.088 C
HETATM    2  C4  UNL     1       0.569  12.424   3.412  1.00  0.00     0.051 C
HETATM    3  C5  UNL     1       0.940  13.827   3.162  1.00  0.00     0.170 C
HETATM    4  O2  UNL     1       0.597  14.328   1.926  1.00  0.00    -0.386 OA
HETATM    5  C6  UNL     1       0.915  13.331   0.981  1.00  0.00     0.119 C
HETATM    6  C7  UNL     1       1.078  13.926  -0.399  1.00  0.00     0.039 C
HETATM    7  C8  UNL     1      -0.196  12.336   1.020  1.00  0.00     0.056 C
ENDROOT
BRANCH   1   8
HETATM    8  N1  UNL     1      -0.058  10.333   2.332  1.00  0.00    -0.357 N
HETATM    9  C2  UNL     1      -1.105   9.378   2.308  1.00  0.00     0.213 C
HETATM   10  C1  UNL     1      -0.814   7.940   2.231  1.00  0.00     0.117 C
HETATM   11  O1  UNL     1      -2.303   9.753   2.354  1.00  0.00    -0.274 OA
ATOM     12  H1  UNL     1       0.906  10.003   2.294  1.00  0.00     0.162 HD
ENDBRANCH   1   8
TORSDOF 1
ENDMDL