MODEL 4
REMARK VINA RESULT: -4.079321459      4.836      6.694
REMARK  3 active torsions:
REMARK  status: ('A' for Active; 'I' for Inactive)
REMARK    1  A    between atoms: C2_2  and  C3_4
REMARK    2  A    between atoms: C8_9  and  O2_10
REMARK    3  A    between atoms: C8_9  and  O3_12
ROOT
HETATM    1  C3  UNL     1      -0.572  10.998   3.214  1.00  0.00     0.060 C
HETATM    2  C4  UNL     1      -1.418  10.444   2.063  1.00  0.00     0.016 C
HETATM    3  C5  UNL     1      -2.125   9.217   2.652  1.00  0.00    -0.013 C
HETATM    4  C6  UNL     1      -3.142   8.651   1.715  1.00  0.00     0.010 C
HETATM    5  C7  UNL     1      -1.133   8.174   3.071  1.00  0.00     0.072 C
HETATM    6  C8  UNL     1      -0.201   8.771   4.133  1.00  0.00     0.160 C
HETATM    7  C9  UNL     1       0.485   9.954   3.488  1.00  0.00     0.080 C
ENDROOT
BRANCH   6   8
HETATM    8  O2  UNL     1      -0.913   9.210   5.241  1.00  0.00    -0.365 OA
ATOM      9  H2  UNL     1      -1.456   9.960   5.027  1.00  0.00     0.213 HD
ENDBRANCH   6   8
BRANCH   6  10
HETATM   10  O3  UNL     1       0.754   7.818   4.470  1.00  0.00    -0.365 OA
ATOM     11  H3  UNL     1       1.589   8.255   4.591  1.00  0.00     0.213 HD
ENDBRANCH   6  10
BRANCH   1  12
HETATM   12  C2  UNL     1       0.067  12.265   2.878  1.00  0.00     0.127 C
HETATM   13  C1  UNL     1       0.370  12.712   1.484  1.00  0.00     0.091 C
HETATM   14  O1  UNL     1       0.386  13.031   3.769  1.00  0.00    -0.298 OA
ENDBRANCH   1  12
TORSDOF 3
ENDMDL