MODEL 2
REMARK VINA RESULT: -3.801707187      2.592      3.888
REMARK  1 active torsions:
REMARK  status: ('A' for Active; 'I' for Inactive)
REMARK    1  A    between atoms: C5_5  and  C6_6
ROOT
HETATM    1  C1  UNL     1       1.212  13.888  -2.435  1.00  0.00     0.012 C
HETATM    2  C2  UNL     1       2.134  14.290  -3.600  1.00  0.00     0.010 C
HETATM    3  C3  UNL     1       1.958  13.297  -4.675  1.00  0.00     0.010 C
HETATM    4  C4  UNL     1       1.384  13.791  -5.961  1.00  0.00     0.041 C
HETATM    5  C5  UNL     1       1.591  15.261  -6.197  1.00  0.00     0.210 C
HETATM    6  O2  UNL     1       1.293  15.988  -5.101  1.00  0.00    -0.372 OA
HETATM    7  C7  UNL     1       1.975  15.719  -3.957  1.00  0.00     0.122 C
HETATM    8  C8  UNL     1       1.284  16.521  -2.836  1.00  0.00     0.040 C
ENDROOT
BRANCH   5   9
HETATM    9  C6  UNL     1       2.918  15.481  -6.788  1.00  0.00     0.260 C
HETATM   10  N1  UNL     1       3.305  16.821  -7.075  1.00  0.00    -0.060 NA
HETATM   11  O1  UNL     1       3.747  14.591  -7.063  1.00  0.00    -0.274 OA
ENDBRANCH   5   9
TORSDOF 1
ENDMDL