MODEL 4
REMARK VINA RESULT: -3.729333103      8.824     10.937
REMARK  1 active torsions:
REMARK  status: ('A' for Active; 'I' for Inactive)
REMARK       I    between atoms: C2_2  and  N1_4
REMARK    1  A    between atoms: N1_4  and  C3_6
ROOT
HETATM    1  C3  UNL     1      -0.608   9.347   3.877  1.00  0.00     0.111 C
HETATM    2  C4  UNL     1      -0.786   8.527   5.155  1.00  0.00     0.194 C
HETATM    3  O2  UNL     1      -1.046   7.272   4.603  1.00  0.00    -0.379 OA
HETATM    4  C5  UNL     1      -0.167   7.076   3.569  1.00  0.00     0.055 C
HETATM    5  C6  UNL     1       0.989   6.234   4.035  1.00  0.00     0.045 C
HETATM    6  C7  UNL     1      -0.911   6.448   2.414  1.00  0.00     0.045 C
HETATM    7  C8  UNL     1       0.369   8.418   3.143  1.00  0.00     0.064 C
ENDROOT
BRANCH   1   8
HETATM    8  N1  UNL     1       0.014  10.603   4.110  1.00  0.00    -0.355 N
HETATM    9  C2  UNL     1      -0.126  11.631   3.146  1.00  0.00     0.213 C
HETATM   10  C1  UNL     1       0.504  12.965   3.339  1.00  0.00     0.117 C
HETATM   11  O1  UNL     1      -0.787  11.463   2.088  1.00  0.00    -0.274 OA
ATOM     12  H1  UNL     1       0.555  10.763   4.960  1.00  0.00     0.162 HD
ENDBRANCH   1   8
TORSDOF 1
ENDMDL