MODEL 1
REMARK VINA RESULT: -4.334057279      0.000      0.000
REMARK  1 active torsions:
REMARK  status: ('A' for Active; 'I' for Inactive)
REMARK    1  A    between atoms: N1_4  and  C4_5
ROOT
HETATM    1  C4  UNL     1       0.397  11.976   2.394  1.00  0.00     0.082 C
HETATM    2  C5  UNL     1       0.086  12.488   1.018  1.00  0.00     0.044 C
HETATM    3  C6  UNL     1       0.915  13.683   0.633  1.00  0.00     0.115 C
HETATM    4  N2  UNL     1       1.108  14.619   1.700  1.00  0.00    -0.421 N
ATOM      5  H2  UNL     1       0.976  15.622   1.576  1.00  0.00     0.153 HD
HETATM    6  C7  UNL     1       1.500  14.046   2.955  1.00  0.00     0.115 C
HETATM    7  C8  UNL     1       0.370  13.134   3.401  1.00  0.00     0.044 C
ENDROOT
BRANCH   1   8
HETATM    8  N1  UNL     1      -0.503  10.954   2.769  1.00  0.00    -0.408 N
HETATM    9  C3  UNL     1      -1.238  10.328   1.732  1.00  0.00     0.117 C
HETATM   10  C2  UNL     1      -2.380   9.525   2.366  1.00  0.00     0.019 C
HETATM   11  C1  UNL     1      -1.815   8.485   3.313  1.00  0.00     0.003 C
HETATM   12  C10 UNL     1      -0.301   8.677   3.458  1.00  0.00     0.019 C
HETATM   13  C9  UNL     1      -0.104  10.125   3.850  1.00  0.00     0.117 C
ENDBRANCH   1   8
TORSDOF 1
ENDMDL