MODEL 4
REMARK VINA RESULT: -2.782286205      2.813      3.700
REMARK  1 active torsions:
REMARK  status: ('A' for Active; 'I' for Inactive)
REMARK    1  A    between atoms: C4_5  and  C5_6
ROOT
HETATM    1  C1  UNL     1      -2.911   8.213   3.483  1.00  0.00     0.310 C
HETATM    2  N1  UNL     1      -1.747   8.746   2.850  1.00  0.00     0.094 N
HETATM    3  C2  UNL     1      -1.476   8.075   1.628  1.00  0.00     0.274 C
HETATM    4  C3  UNL     1      -0.093   7.504   1.691  1.00  0.00     0.048 C
HETATM    5  C4  UNL     1       0.450   7.860   3.055  1.00  0.00     0.126 C
HETATM    6  C6  UNL     1      -0.576   8.786   3.654  1.00  0.00     0.165 C
HETATM    7  C7  UNL     1      -0.826   8.476   5.118  1.00  0.00     0.049 C
HETATM    8  C8  UNL     1      -0.022  10.215   3.609  1.00  0.00     0.049 C
ENDROOT
BRANCH   5   9
HETATM    9  C5  UNL     1       0.717   6.684   3.891  1.00  0.00     0.179 C
HETATM   10  O1  UNL     1       1.765   6.616   4.592  1.00  0.00    -0.648 OA
HETATM   11  O2  UNL     1      -0.169   5.589   3.952  1.00  0.00    -0.648 OA
ENDBRANCH   5   9
TORSDOF 1
ENDMDL