MODEL 2
REMARK VINA RESULT: -3.916673241      7.978     10.053
REMARK  1 active torsions:
REMARK  status: ('A' for Active; 'I' for Inactive)
REMARK    1  A    between atoms: C2_2  and  C3_4
ROOT
HETATM    1  C3  UNL     1      -0.576  11.776   2.424  1.00  0.00     0.081 C
HETATM    2  C4  UNL     1      -0.073  11.403   3.761  1.00  0.00     0.247 C
HETATM    3  N1  UNL     1      -0.036  10.007   4.053  1.00  0.00    -0.042 N
ATOM      4  H11 UNL     1       0.221   9.812   5.021  1.00  0.00     0.279 HD
ATOM      5  H12 UNL     1       0.746   9.531   3.606  1.00  0.00     0.279 HD
HETATM    6  C5  UNL     1      -1.325   9.443   3.686  1.00  0.00     0.423 C
HETATM    7  C6  UNL     1      -1.321   9.383   2.173  1.00  0.00     0.049 C
HETATM    8  C7  UNL     1      -0.352   8.242   1.942  1.00  0.00     0.039 C
HETATM    9  C8  UNL     1      -0.679   7.295   3.079  1.00  0.00     0.275 C
HETATM   10  N2  UNL     1      -1.446   8.054   4.002  1.00  0.00     0.115 N
HETATM   11  C9  UNL     1      -1.304   7.716   5.368  1.00  0.00     0.312 C
HETATM   12  C10 UNL     1      -0.945  10.647   1.521  1.00  0.00     0.022 C
ENDROOT
BRANCH   1  13
HETATM   13  C2  UNL     1       0.420  12.623   1.706  1.00  0.00     0.128 C
HETATM   14  C1  UNL     1       0.212  12.980   0.288  1.00  0.00     0.091 C
HETATM   15  O1  UNL     1       1.404  13.016   2.307  1.00  0.00    -0.298 OA
ENDBRANCH   1  13
TORSDOF 1
ENDMDL