MODEL 1
REMARK VINA RESULT: -4.510806312      0.000      0.000
REMARK  2 active torsions:
REMARK  status: ('A' for Active; 'I' for Inactive)
REMARK    1  A    between atoms: N1_2  and  C3_4
REMARK    2  A    between atoms: C6_7  and  O1_8
ROOT
HETATM    1  C3  UNL     1       2.066  14.878  -4.289  1.00  0.00     0.083 C
HETATM    2  C4  UNL     1       1.482  16.277  -4.154  1.00  0.00     0.033 C
HETATM    3  C5  UNL     1       1.543  16.479  -2.659  1.00  0.00     0.021 C
HETATM    4  C6  UNL     1       3.033  16.367  -2.293  1.00  0.00     0.127 C
HETATM    5  C7  UNL     1       3.057  14.883  -1.999  1.00  0.00     0.022 C
HETATM    6  C8  UNL     1       1.942  14.798  -0.961  1.00  0.00     0.013 C
HETATM    7  C9  UNL     1       1.065  15.150  -2.168  1.00  0.00    -0.001 C
HETATM    8  C10 UNL     1       2.045  14.266  -2.951  1.00  0.00     0.019 C
ENDROOT
BRANCH   1   9
HETATM    9  N1  UNL     1       1.456  14.216  -5.341  1.00  0.00    -0.416 N
HETATM   10  C1  UNL     1       1.134  12.845  -5.180  1.00  0.00     0.143 C
HETATM   11  C2  UNL     1       1.551  14.702  -6.650  1.00  0.00     0.143 C
ENDBRANCH   1   9
BRANCH   4  12
HETATM   12  O1  UNL     1       3.303  17.115  -1.128  1.00  0.00    -0.395 OA
ATOM     13  H1  UNL     1       3.533  16.533  -0.413  1.00  0.00     0.210 HD
ENDBRANCH   4  12
TORSDOF 2
ENDMDL