MODEL 4
REMARK VINA RESULT: -3.270415479      8.992     10.836
REMARK  1 active torsions:
REMARK  status: ('A' for Active; 'I' for Inactive)
REMARK    1  A    between atoms: O1_2  and  C2_3
ROOT
HETATM    1  C2  UNL     1       2.263  15.019  -3.371  1.00  0.00     0.131 C
HETATM    2  C3  UNL     1       1.882  16.447  -3.196  1.00  0.00     0.034 C
HETATM    3  C4  UNL     1       1.088  16.350  -4.489  1.00  0.00     0.017 C
HETATM    4  C5  UNL     1       1.999  15.236  -4.868  1.00  0.00     0.016 C
HETATM    5  C6  UNL     1       3.226  15.602  -5.660  1.00  0.00     0.047 C
HETATM    6  C7  UNL     1       3.186  14.584  -6.787  1.00  0.00     0.187 C
HETATM    7  C8  UNL     1       2.056  14.844  -7.733  1.00  0.00     0.035 C
HETATM    8  C9  UNL     1       0.814  14.526  -6.887  1.00  0.00     0.036 C
HETATM    9  C10 UNL     1       1.414  14.069  -5.581  1.00  0.00     0.197 C
HETATM   10  N1  UNL     1       2.647  13.416  -6.062  1.00  0.00    -0.066 N
ATOM     11  H11 UNL     1       3.249  12.983  -5.362  1.00  0.00     0.278 HD
ATOM     12  H12 UNL     1       2.541  12.549  -6.589  1.00  0.00     0.278 HD
ENDROOT
BRANCH   1  13
HETATM   13  O1  UNL     1       1.447  14.038  -2.937  1.00  0.00    -0.390 OA
HETATM   14  C1  UNL     1       1.089  14.034  -1.620  1.00  0.00     0.202 C
ENDBRANCH   1  13
TORSDOF 1
ENDMDL