MODEL 1
REMARK VINA RESULT: -9.146878050      0.000      0.000
REMARK  9 active torsions:
REMARK  status: ('A' for Active; 'I' for Inactive)
REMARK    1  A    between atoms: O1_2  and  C2_3
REMARK    2  A    between atoms: C4_5  and  C5_6
REMARK    3  A    between atoms: C10_11  and  N1_12
REMARK    4  A    between atoms: C16_20  and  O2_21
REMARK    5  A    between atoms: C21_26  and  O3_27
REMARK    6  A    between atoms: C23_29  and  O4_30
REMARK    7  A    between atoms: O4_30  and  C24_31
REMARK    8  A    between atoms: N2_34  and  C27_35
REMARK    9  A    between atoms: C31_39  and  O5_40
ROOT
HETATM    1  C2  UNL     1     -28.623   1.528 -11.201  1.00  0.00     0.105 A
HETATM    2  C3  UNL     1     -28.323   2.794 -11.694  1.00  0.00     0.052 A
HETATM    3  C4  UNL     1     -27.613   2.957 -12.869  1.00  0.00    -0.020 A
HETATM    4  C20 UNL     1     -27.225   1.823 -13.516  1.00  0.00     0.052 A
HETATM    5  C21 UNL     1     -27.501   0.537 -13.065  1.00  0.00     0.105 A
HETATM    6  C23 UNL     1     -28.213   0.389 -11.885  1.00  0.00     0.136 A
ENDROOT
BRANCH   3   7
HETATM    7  C5  UNL     1     -27.314   4.307 -13.358  1.00  0.00    -0.025 A
HETATM    8  C6  UNL     1     -26.113   4.897 -12.966  1.00  0.00     0.013 A
HETATM    9  C7  UNL     1     -25.819   6.165 -13.418  1.00  0.00     0.013 A
HETATM   10  C8  UNL     1     -26.696   6.866 -14.256  1.00  0.00    -0.021 A
HETATM   11  C9  UNL     1     -26.352   8.141 -14.684  1.00  0.00     0.041 A
HETATM   12  C18 UNL     1     -27.876   6.253 -14.625  1.00  0.00     0.008 A
HETATM   13  C10 UNL     1     -27.222   8.822 -15.507  1.00  0.00     0.033 A
HETATM   14  C15 UNL     1     -28.398   8.195 -15.868  1.00  0.00     0.066 A
HETATM   15  C16 UNL     1     -28.757   6.932 -15.454  1.00  0.00     0.081 A
HETATM   16  C19 UNL     1     -28.165   4.982 -14.169  1.00  0.00     0.027 A
BRANCH  13  17
HETATM   17  N1  UNL     1     -26.917  10.124 -15.968  1.00  0.00    -0.375 N
HETATM   18  C11 UNL     1     -25.619  10.712 -16.219  1.00  0.00     0.129 C
HETATM   19  C12 UNL     1     -25.848  11.463 -17.511  1.00  0.00     0.100 C
HETATM   20  C13 UNL     1     -27.218  12.065 -17.278  1.00  0.00     0.260 C
HETATM   21  F1  UNL     1     -27.072  13.332 -16.746  1.00  0.00    -0.204 F
HETATM   22  F2  UNL     1     -27.936  12.177 -18.456  1.00  0.00    -0.204 F
HETATM   23  C14 UNL     1     -27.897  11.142 -16.284  1.00  0.00     0.202 C
ENDBRANCH  13  17
BRANCH  15  24
HETATM   24  O2  UNL     1     -29.932   6.311 -15.816  1.00  0.00    -0.355 OA
HETATM   25  C17 UNL     1     -30.292   6.219 -17.175  1.00  0.00     0.210 C
ENDBRANCH  15  24
ENDBRANCH   3   7
BRANCH   1  26
HETATM   26  O1  UNL     1     -29.329   1.408 -10.033  1.00  0.00    -0.353 OA
HETATM   27  C1  UNL     1     -28.748   1.629  -8.763  1.00  0.00     0.210 C
ENDBRANCH   1  26
BRANCH   5  28
HETATM   28  O3  UNL     1     -27.059  -0.550 -13.803  1.00  0.00    -0.353 OA
HETATM   29  C22 UNL     1     -25.941  -0.417 -14.657  1.00  0.00     0.210 C
ENDBRANCH   5  28
BRANCH   6  30
HETATM   30  O4  UNL     1     -28.485  -0.876 -11.440  1.00  0.00    -0.340 OA
BRANCH  30  31
HETATM   31  C24 UNL     1     -27.825  -1.610 -10.458  1.00  0.00     0.138 C
HETATM   32  C25 UNL     1     -28.569  -1.537  -9.140  1.00  0.00     0.077 C
HETATM   33  C26 UNL     1     -27.824  -2.327  -8.065  1.00  0.00     0.064 C
HETATM   34  N2  UNL     1     -26.458  -1.989  -7.969  1.00  0.00    -0.363 N
HETATM   35  C31 UNL     1     -25.758  -1.794  -9.174  1.00  0.00     0.222 C
HETATM   36  C32 UNL     1     -26.478  -0.959 -10.197  1.00  0.00     0.086 C
BRANCH  34  37
HETATM   37  C27 UNL     1     -26.016  -1.265  -6.850  1.00  0.00     0.086 C
HETATM   38  C28 UNL     1     -26.667   0.021  -6.492  1.00  0.00     0.025 C
HETATM   39  C29 UNL     1     -25.307   0.506  -6.020  1.00  0.00     0.004 C
HETATM   40  C30 UNL     1     -24.705  -0.509  -6.972  1.00  0.00     0.025 C
ENDBRANCH  34  37
BRANCH  35  41
HETATM   41  O5  UNL     1     -25.337  -2.997  -9.755  1.00  0.00    -0.377 OA
ATOM     42  H5  UNL     1     -26.003  -3.389 -10.307  1.00  0.00     0.212 HD
ENDBRANCH  35  41
ENDBRANCH  30  31
ENDBRANCH   6  30
TORSDOF 9
ENDMDL