MODEL 2
REMARK VINA RESULT: -7.907349703      0.871      2.165
REMARK  10 active torsions:
REMARK  status: ('A' for Active; 'I' for Inactive)
REMARK    1  A    between atoms: O1_2  and  C2_3
REMARK    2  A    between atoms: C2_3  and  C3_4
REMARK    3  A    between atoms: C3_4  and  O2_5
REMARK    4  A    between atoms: C3_4  and  C27_38
REMARK    5  A    between atoms: O2_5  and  C4_6
REMARK    6  A    between atoms: C6_8  and  C7_9
REMARK    7  A    between atoms: C7_9  and  C10_12
REMARK    8  A    between atoms: C12_17  and  N1_18
REMARK    9  A    between atoms: N1_18  and  C13_20
REMARK   10  A    between atoms: C16_23  and  N2_24
ROOT
HETATM    1  C4  UNL     1     -29.214   3.753 -13.985  1.00  0.00     0.072 A
HETATM    2  C5  UNL     1     -28.027   4.447 -13.920  1.00  0.00     0.046 A
HETATM    3  C6  UNL     1     -27.691   5.624 -14.633  1.00  0.00    -0.024 A
HETATM    4  C11 UNL     1     -28.716   6.081 -15.483  1.00  0.00     0.026 A
HETATM    5  C12 UNL     1     -28.556   7.230 -16.295  1.00  0.00     0.068 A
HETATM    6  C22 UNL     1     -29.599   7.650 -17.135  1.00  0.00     0.087 A
HETATM    7  C23 UNL     1     -29.564   8.807 -17.974  1.00  0.00     0.103 C
HETATM    8  N3  UNL     1     -29.585   9.719 -18.655  1.00  0.00    -0.191 NA
HETATM    9  C24 UNL     1     -30.753   6.901 -17.129  1.00  0.00     0.113 A
HETATM   10  N4  UNL     1     -30.899   5.819 -16.371  1.00  0.00    -0.364 N
ATOM     11  H4  UNL     1     -31.779   5.304 -16.413  1.00  0.00     0.165 HD
HETATM   12  C25 UNL     1     -29.928   5.380 -15.552  1.00  0.00     0.047 A
HETATM   13  C26 UNL     1     -30.171   4.233 -14.811  1.00  0.00     0.067 A
ENDROOT
BRANCH   5  14
HETATM   14  N1  UNL     1     -27.510   7.808 -16.318  1.00  0.00    -0.354 N
ATOM     15  H1  UNL     1     -26.751   7.176 -16.569  1.00  0.00     0.166 HD
BRANCH  14  16
HETATM   16  C13 UNL     1     -27.036   9.089 -16.103  1.00  0.00     0.038 A
HETATM   17  C14 UNL     1     -27.629   9.949 -15.160  1.00  0.00     0.032 A
HETATM   18  C15 UNL     1     -27.149  11.189 -14.864  1.00  0.00     0.031 A
HETATM   19  C16 UNL     1     -26.029  11.672 -15.491  1.00  0.00     0.030 A
HETATM   20  C19 UNL     1     -25.444  10.834 -16.416  1.00  0.00     0.038 A
HETATM   21  C20 UNL     1     -25.904   9.595 -16.727  1.00  0.00    -0.033 A
HETATM   22  C21 UNL     1     -25.164   8.824 -17.749  1.00  0.00     0.050 C
BRANCH  19  23
HETATM   23  N2  UNL     1     -25.496  12.972 -15.206  1.00  0.00    -0.390 N
HETATM   24  C17 UNL     1     -24.885  13.802 -16.216  1.00  0.00     0.149 C
HETATM   25  C18 UNL     1     -25.588  13.452 -13.840  1.00  0.00     0.149 C
ENDBRANCH  19  23
ENDBRANCH  14  16
ENDBRANCH   5  14
BRANCH   3  26
HETATM   26  C7  UNL     1     -26.471   6.370 -14.464  1.00  0.00     0.078 C
HETATM   27  C8  UNL     1     -25.728   5.239 -13.574  1.00  0.00     0.029 C
HETATM   28  C9  UNL     1     -25.336   6.299 -15.472  1.00  0.00     0.029 C
BRANCH  26  29
HETATM   29  C10 UNL     1     -26.282   7.370 -13.352  1.00  0.00     0.398 C
HETATM   30  F1  UNL     1     -25.735   6.835 -12.133  1.00  0.00    -0.170 F
HETATM   31  F2  UNL     1     -25.292   8.281 -13.604  1.00  0.00    -0.170 F
HETATM   32  F3  UNL     1     -27.389   7.858 -12.697  1.00  0.00    -0.170 F
ENDBRANCH  26  29
ENDBRANCH   3  26
BRANCH   1  33
HETATM   33  O2  UNL     1     -29.358   2.631 -13.218  1.00  0.00    -0.343 OA
BRANCH  33  34
HETATM   34  C3  UNL     1     -28.364   1.972 -12.498  1.00  0.00     0.157 C
BRANCH  34  35
HETATM   35  C2  UNL     1     -27.866   2.911 -11.411  1.00  0.00     0.199 C
BRANCH  35  36
HETATM   36  O1  UNL     1     -28.600   2.763 -10.237  1.00  0.00    -0.393 OA
HETATM   37  C1  UNL     1     -28.441   1.429  -9.831  1.00  0.00     0.201 C
ENDBRANCH  35  36
ENDBRANCH  34  35
BRANCH  34  38
HETATM   38  C27 UNL     1     -27.169   1.604 -13.352  1.00  0.00     0.021 C
HETATM   39  C28 UNL     1     -27.330   0.284 -14.029  1.00  0.00     0.033 C
HETATM   40  C29 UNL     1     -25.955  -0.303 -14.288  1.00  0.00     0.168 C
HETATM   41  O3  UNL     1     -25.035   0.705 -14.577  1.00  0.00    -0.391 OA
HETATM   42  C30 UNL     1     -24.707   1.379 -13.393  1.00  0.00     0.168 C
HETATM   43  C31 UNL     1     -25.908   1.527 -12.499  1.00  0.00     0.033 C
ENDBRANCH  34  38
ENDBRANCH  33  34
ENDBRANCH   1  33
TORSDOF 10
ENDMDL