MODEL 4
REMARK VINA RESULT: -7.795104772      7.013     12.721
REMARK  9 active torsions:
REMARK  status: ('A' for Active; 'I' for Inactive)
REMARK    1  A    between atoms: C2_2  and  N1_3
REMARK    2  A    between atoms: N1_3  and  C3_4
REMARK       I    between atoms: N1_3  and  C21_30
REMARK    3  A    between atoms: C3_4  and  C4_5
REMARK    4  A    between atoms: C8_11  and  O1_12
REMARK    5  A    between atoms: O1_12  and  C9_13
REMARK    6  A    between atoms: C9_13  and  C10_14
REMARK    7  A    between atoms: C21_30  and  C22_32
REMARK    8  A    between atoms: C25_35  and  O4_36
REMARK    9  A    between atoms: C25_35  and  C26_38
ROOT
HETATM    1  C4  UNL     1     -28.721  -0.629 -10.079  1.00  0.00     0.147 C
HETATM    2  C5  UNL     1     -29.138  -0.656  -8.690  1.00  0.00     0.040 C
HETATM    3  C6  UNL     1     -29.461  -1.991  -8.055  1.00  0.00     0.061 C
HETATM    4  C7  UNL     1     -28.335  -2.923  -7.989  1.00  0.00     0.025 A
HETATM    5  N2  UNL     1     -28.771  -4.156  -7.828  1.00  0.00    -0.325 N
ATOM      6  H2  UNL     1     -29.772  -4.329  -7.737  1.00  0.00     0.169 HD
HETATM    7  C8  UNL     1     -27.896  -5.206  -7.784  1.00  0.00     0.223 A
HETATM    8  N3  UNL     1     -26.580  -4.976  -7.905  1.00  0.00    -0.331 N
ATOM      9  H3  UNL     1     -25.949  -5.777  -7.868  1.00  0.00     0.168 HD
HETATM   10  C13 UNL     1     -26.039  -3.754  -8.073  1.00  0.00     0.106 A
HETATM   11  C14 UNL     1     -26.951  -2.740  -8.109  1.00  0.00     0.018 A
HETATM   12  C15 UNL     1     -26.149  -1.552  -8.303  1.00  0.00     0.052 A
HETATM   13  C16 UNL     1     -25.189  -1.612  -7.367  1.00  0.00     0.130 A
HETATM   14  F1  UNL     1     -25.017  -2.458  -6.348  1.00  0.00    -0.205 F
HETATM   15  C17 UNL     1     -24.257  -0.553  -7.430  1.00  0.00     0.046 A
HETATM   16  C18 UNL     1     -24.344   0.447  -8.371  1.00  0.00     0.048 A
HETATM   17  C19 UNL     1     -25.386   0.440  -9.316  1.00  0.00     0.150 A
HETATM   18  F2  UNL     1     -25.519   1.396 -10.260  1.00  0.00    -0.203 F
HETATM   19  C20 UNL     1     -26.274  -0.552  -9.272  1.00  0.00     0.122 A
HETATM   20  O2  UNL     1     -27.269  -0.433 -10.264  1.00  0.00    -0.340 OA
ENDROOT
BRANCH   1  21
HETATM   21  C3  UNL     1     -29.317   0.457 -10.912  1.00  0.00     0.158 C
BRANCH  21  22
HETATM   22  N1  UNL     1     -28.486   1.162 -11.812  1.00  0.00    -0.350 N
HETATM   23  C21 UNL     1     -27.658   0.583 -12.793  1.00  0.00     0.224 C
HETATM   24  O3  UNL     1     -26.851   1.411 -13.370  1.00  0.00    -0.273 OA
BRANCH  22  25
HETATM   25  C2  UNL     1     -28.430   2.642 -11.645  1.00  0.00     0.121 C
HETATM   26  C1  UNL     1     -28.745   2.940 -10.180  1.00  0.00     0.026 C
ENDBRANCH  22  25
BRANCH  23  27
HETATM   27  C22 UNL     1     -27.635  -0.836 -13.211  1.00  0.00     0.078 C
HETATM   28  C23 UNL     1     -26.193  -1.155 -13.638  1.00  0.00     0.017 C
HETATM   29  C24 UNL     1     -26.000  -0.572 -15.012  1.00  0.00     0.039 C
HETATM   30  C25 UNL     1     -26.550  -1.622 -15.992  1.00  0.00     0.061 C
HETATM   31  C31 UNL     1     -27.792  -2.159 -15.355  1.00  0.00     0.039 C
HETATM   32  C32 UNL     1     -28.465  -1.099 -14.467  1.00  0.00     0.017 C
BRANCH  30  33
HETATM   33  O4  UNL     1     -26.881  -1.042 -17.214  1.00  0.00    -0.389 OA
ATOM     34  H4  UNL     1     -27.803  -0.814 -17.246  1.00  0.00     0.210 HD
ENDBRANCH  30  33
BRANCH  30  35
HETATM   35  C26 UNL     1     -25.480  -2.657 -16.171  1.00  0.00     0.020 C
HETATM   36  C27 UNL     1     -24.095  -2.089 -15.993  1.00  0.00     0.007 C
HETATM   37  C28 UNL     1     -23.186  -2.887 -16.900  1.00  0.00     0.000 C
HETATM   38  C29 UNL     1     -24.084  -3.913 -17.576  1.00  0.00     0.000 C
HETATM   39  C30 UNL     1     -25.419  -3.179 -17.592  1.00  0.00     0.007 C
ENDBRANCH  30  35
ENDBRANCH  23  27
ENDBRANCH  21  22
ENDBRANCH   1  21
BRANCH   7  40
HETATM   40  O1  UNL     1     -28.411  -6.473  -7.610  1.00  0.00    -0.322 OA
BRANCH  40  41
HETATM   41  C9  UNL     1     -27.589  -7.608  -7.635  1.00  0.00     0.183 C
BRANCH  41  42
HETATM   42  C10 UNL     1     -27.903  -8.597  -8.717  1.00  0.00     0.010 A
HETATM   43  C11 UNL     1     -26.945  -8.729  -9.880  1.00  0.00     0.007 A
HETATM   44  C12 UNL     1     -26.929  -9.733  -8.813  1.00  0.00     0.007 A
ENDBRANCH  41  42
ENDBRANCH  40  41
ENDBRANCH   7  40
TORSDOF 9
ENDMDL