MODEL 1
REMARK VINA RESULT: -7.485218943      0.000      0.000
REMARK  11 active torsions:
REMARK  status: ('A' for Active; 'I' for Inactive)
REMARK    1  A    between atoms: C2_2  and  C3_3
REMARK    2  A    between atoms: C4_4  and  C5_5
REMARK    3  A    between atoms: C8_8  and  N1_9
REMARK    4  A    between atoms: C10_11  and  C11_12
REMARK    5  A    between atoms: C12_17  and  C13_18
REMARK    6  A    between atoms: N3_21  and  C16_22
REMARK    7  A    between atoms: C29_36  and  O2_37
REMARK    8  A    between atoms: O2_37  and  C30_38
REMARK    9  A    between atoms: C30_38  and  C31_39
REMARK   10  A    between atoms: C31_39  and  C32_40
REMARK   11  A    between atoms: C32_40  and  O3_41
ROOT
HETATM    1  N1  UNL     1     -28.588   6.848 -17.107  1.00  0.00    -0.309 N
HETATM    2  C9  UNL     1     -29.071   6.978 -18.384  1.00  0.00     0.129 A
HETATM    3  C10 UNL     1     -29.909   5.935 -18.689  1.00  0.00     0.091 A
HETATM    4  N2  UNL     1     -29.916   5.188 -17.580  1.00  0.00    -0.343 N
ATOM      5  H2  UNL     1     -30.447   4.325 -17.472  1.00  0.00     0.167 HD
HETATM    6  C12 UNL     1     -29.117   5.732 -16.610  1.00  0.00     0.092 A
ENDROOT
BRANCH   6   7
HETATM    7  C13 UNL     1     -28.955   5.100 -15.313  1.00  0.00     0.057 C
HETATM    8  C14 UNL     1     -30.197   4.602 -14.639  1.00  0.00     0.032 C
HETATM    9  C15 UNL     1     -29.714   3.544 -13.628  1.00  0.00     0.118 C
HETATM   10  N3  UNL     1     -28.328   3.603 -13.395  1.00  0.00    -0.408 N
HETATM   11  C26 UNL     1     -27.704   4.841 -13.260  1.00  0.00     0.118 C
HETATM   12  C27 UNL     1     -28.213   5.897 -14.264  1.00  0.00     0.032 C
BRANCH  10  13
HETATM   13  C16 UNL     1     -27.588   2.426 -13.519  1.00  0.00     0.082 C
HETATM   14  C17 UNL     1     -26.217   2.480 -12.953  1.00  0.00     0.062 C
HETATM   15  C18 UNL     1     -25.501   1.144 -13.059  1.00  0.00     0.056 C
HETATM   16  C19 UNL     1     -25.264   0.790 -14.527  1.00  0.00     0.045 C
HETATM   17  C20 UNL     1     -24.132   1.279 -12.428  1.00  0.00     0.045 C
HETATM   18  O1  UNL     1     -26.160   0.108 -12.475  1.00  0.00    -0.375 OA
HETATM   19  C21 UNL     1     -26.766   0.386 -11.277  1.00  0.00     0.131 A
HETATM   20  C22 UNL     1     -28.023  -0.435 -11.023  1.00  0.00     0.044 A
HETATM   21  C23 UNL     1     -28.054   1.056 -11.449  1.00  0.00    -0.014 A
HETATM   22  C24 UNL     1     -28.683   1.927 -10.416  1.00  0.00     0.018 C
HETATM   23  C25 UNL     1     -28.338   1.275 -12.909  1.00  0.00     0.036 C
ENDBRANCH  10  13
ENDBRANCH   6   7
BRANCH   1  24
HETATM   24  C8  UNL     1     -27.700   7.755 -16.475  1.00  0.00     0.043 A
HETATM   25  C7  UNL     1     -26.443   7.319 -16.162  1.00  0.00     0.031 A
HETATM   26  C6  UNL     1     -25.544   8.177 -15.558  1.00  0.00     0.026 A
HETATM   27  C5  UNL     1     -25.927   9.477 -15.276  1.00  0.00     0.051 A
HETATM   28  C29 UNL     1     -27.188   9.945 -15.580  1.00  0.00     0.089 A
HETATM   29  C28 UNL     1     -28.048   9.048 -16.182  1.00  0.00     0.068 A
BRANCH  27  30
HETATM   30  C4  UNL     1     -24.949  10.340 -14.641  1.00  0.00    -0.064 C
HETATM   31  C3  UNL     1     -24.121  11.054 -14.122  1.00  0.00    -0.101 C
BRANCH  31  32
HETATM   32  C2  UNL     1     -23.128  11.900 -13.498  1.00  0.00     0.090 C
HETATM   33  C1  UNL     1     -23.684  12.616 -12.286  1.00  0.00     0.018 C
ENDBRANCH  31  32
ENDBRANCH  27  30
BRANCH  28  34
HETATM   34  O2  UNL     1     -27.526  11.258 -15.277  1.00  0.00    -0.349 OA
BRANCH  34  35
HETATM   35  C30 UNL     1     -27.591  12.161 -16.363  1.00  0.00     0.178 C
BRANCH  35  36
HETATM   36  C31 UNL     1     -26.208  12.515 -16.876  1.00  0.00     0.053 C
BRANCH  36  37
HETATM   37  C32 UNL     1     -25.623  13.677 -16.108  1.00  0.00     0.166 C
BRANCH  37  38
HETATM   38  O3  UNL     1     -26.105  13.676 -14.821  1.00  0.00    -0.401 OA
ATOM     39  H3  UNL     1     -26.937  14.133 -14.787  1.00  0.00     0.209 HD
ENDBRANCH  37  38
ENDBRANCH  36  37
ENDBRANCH  35  36
ENDBRANCH  34  35
ENDBRANCH  28  34
ENDBRANCH   1  24
BRANCH   3  40
HETATM   40  C11 UNL     1     -30.642   5.687 -19.958  1.00  0.00     0.404 C
HETATM   41  F1  UNL     1     -31.899   5.153 -19.740  1.00  0.00    -0.207 F
HETATM   42  F2  UNL     1     -29.951   4.761 -20.714  1.00  0.00    -0.207 F
ENDBRANCH   3  40
TORSDOF 11
ENDMDL