MODEL 2
REMARK VINA RESULT: -8.110859101      0.028      1.409
REMARK  10 active torsions:
REMARK  status: ('A' for Active; 'I' for Inactive)
REMARK    1  A    between atoms: C2_2  and  O1_3
REMARK    2  A    between atoms: C2_2  and  C20_26
REMARK    3  A    between atoms: O1_3  and  C3_4
REMARK    4  A    between atoms: C8_11  and  C10_13
REMARK    5  A    between atoms: C18_22  and  O5_24
REMARK    6  A    between atoms: C23_29  and  N1_30
REMARK    7  A    between atoms: N1_30  and  C24_31
REMARK    8  A    between atoms: N1_30  and  C26_34
REMARK    9  A    between atoms: C24_31  and  C25_32
REMARK   10  A    between atoms: C26_34  and  C27_35
ROOT
HETATM    1  C3  UNL     1     -27.313   6.488 -15.410  1.00  0.00     0.190 C
HETATM    2  C4  UNL     1     -27.044   7.701 -14.484  1.00  0.00     0.049 C
HETATM    3  C5  UNL     1     -27.985   7.755 -13.353  1.00  0.00     0.015 C
HETATM    4  C6  UNL     1     -26.910   8.935 -15.325  1.00  0.00     0.172 C
HETATM    5  O2  UNL     1     -26.569  10.020 -14.523  1.00  0.00    -0.312 OA
HETATM    6  C7  UNL     1     -25.917  11.232 -14.817  1.00  0.00     0.268 C
HETATM    7  O3  UNL     1     -25.400  11.730 -13.789  1.00  0.00    -0.264 OA
HETATM    8  C8  UNL     1     -25.752  11.977 -16.088  1.00  0.00     0.047 C
HETATM    9  C9  UNL     1     -24.780  11.317 -17.041  1.00  0.00     0.026 C
HETATM   10  C13 UNL     1     -27.101  12.197 -16.672  1.00  0.00     0.020 C
HETATM   11  C14 UNL     1     -27.643  11.243 -17.628  1.00  0.00     0.004 C
HETATM   12  C15 UNL     1     -27.648   9.809 -17.463  1.00  0.00     0.040 C
HETATM   13  C16 UNL     1     -28.134   9.197 -16.183  1.00  0.00     0.088 C
HETATM   14  C17 UNL     1     -29.097  10.147 -15.448  1.00  0.00     0.049 C
HETATM   15  O4  UNL     1     -28.846   8.094 -16.466  1.00  0.00    -0.340 OA
HETATM   16  C18 UNL     1     -28.585   6.848 -16.114  1.00  0.00     0.185 C
HETATM   17  C19 UNL     1     -28.582   6.049 -17.442  1.00  0.00     0.082 C
ENDROOT
BRANCH   1  18
HETATM   18  O1  UNL     1     -27.466   5.400 -14.628  1.00  0.00    -0.370 OA
BRANCH  18  19
HETATM   19  C2  UNL     1     -26.548   5.034 -13.711  1.00  0.00     0.151 C
HETATM   20  C1  UNL     1     -25.120   4.946 -14.256  1.00  0.00     0.045 C
BRANCH  19  21
HETATM   21  C20 UNL     1     -26.804   3.812 -12.920  1.00  0.00    -0.030 A
HETATM   22  C21 UNL     1     -27.984   3.604 -12.261  1.00  0.00     0.012 A
HETATM   23  C22 UNL     1     -28.252   2.445 -11.505  1.00  0.00     0.030 A
HETATM   24  C23 UNL     1     -27.314   1.478 -11.411  1.00  0.00     0.030 A
HETATM   25  C28 UNL     1     -26.116   1.647 -12.057  1.00  0.00     0.030 A
HETATM   26  C29 UNL     1     -25.860   2.791 -12.800  1.00  0.00     0.012 A
BRANCH  24  27
HETATM   27  N1  UNL     1     -27.621   0.286 -10.633  1.00  0.00    -0.379 N
BRANCH  27  28
HETATM   28  C24 UNL     1     -26.531  -0.615 -10.463  1.00  0.00     0.138 C
BRANCH  28  29
HETATM   29  C25 UNL     1     -25.910  -0.720  -9.119  1.00  0.00     0.134 C
HETATM   30 CL1  UNL     1     -24.640   0.577  -9.072  1.00  0.00    -0.129 Cl
ENDBRANCH  28  29
ENDBRANCH  27  28
BRANCH  27  31
HETATM   31  C26 UNL     1     -28.953   0.172 -10.157  1.00  0.00     0.138 C
BRANCH  31  32
HETATM   32  C27 UNL     1     -29.169  -0.556  -8.876  1.00  0.00     0.134 C
HETATM   33 CL2  UNL     1     -28.768   0.593  -7.547  1.00  0.00    -0.129 Cl
ENDBRANCH  31  32
ENDBRANCH  27  31
ENDBRANCH  24  27
ENDBRANCH  19  21
ENDBRANCH  18  19
ENDBRANCH   1  18
BRANCH  16  34
HETATM   34  O5  UNL     1     -29.613   6.218 -15.383  1.00  0.00    -0.363 OA
ATOM     35  H5  UNL     1     -29.613   6.637 -14.531  1.00  0.00     0.213 HD
ENDBRANCH  16  34
BRANCH   8  36
HETATM   36  C10 UNL     1     -25.127  13.325 -15.743  1.00  0.00    -0.005 C
HETATM   37  C11 UNL     1     -26.057  14.258 -15.049  1.00  0.00     0.011 C
HETATM   38  C12 UNL     1     -24.509  14.008 -16.926  1.00  0.00     0.011 C
ENDBRANCH   8  36
TORSDOF 10
ENDMDL