MODEL 2
REMARK VINA RESULT: -8.876846512      0.864      1.070
REMARK  8 active torsions:
REMARK  status: ('A' for Active; 'I' for Inactive)
REMARK    1  A    between atoms: C2_2  and  N1_3
REMARK    2  A    between atoms: N1_3  and  O1_5
REMARK    3  A    between atoms: O1_5  and  S1_6
REMARK    4  A    between atoms: S1_6  and  N2_9
REMARK    5  A    between atoms: N2_9  and  C3_10
REMARK    6  A    between atoms: N2_9  and  C8_16
REMARK    7  A    between atoms: C3_10  and  C4_11
REMARK    8  A    between atoms: C8_16  and  C9_17
ROOT
HETATM    1  C9  UNL     1     -27.192   4.385 -12.951  1.00  0.00     0.008 C
HETATM    2  C10 UNL     1     -28.698   4.151 -13.176  1.00  0.00     0.007 C
HETATM    3  C11 UNL     1     -28.873   4.922 -14.481  1.00  0.00     0.006 C
HETATM    4  C12 UNL     1     -28.239   6.220 -14.113  1.00  0.00    -0.001 C
HETATM    5  C13 UNL     1     -27.971   7.146 -15.247  1.00  0.00     0.000 C
HETATM    6  C14 UNL     1     -27.635   6.513 -16.545  1.00  0.00     0.046 C
HETATM    7  C15 UNL     1     -26.752   7.243 -17.477  1.00  0.00     0.093 C
HETATM    8  C16 UNL     1     -26.200   6.198 -18.473  1.00  0.00     0.049 C
HETATM    9  C17 UNL     1     -27.372   8.296 -18.308  1.00  0.00     0.041 C
HETATM   10  C18 UNL     1     -28.434   9.115 -17.696  1.00  0.00     0.006 C
HETATM   11  C19 UNL     1     -28.086   9.773 -16.412  1.00  0.00     0.041 C
HETATM   12  C20 UNL     1     -26.799   9.323 -15.793  1.00  0.00     0.097 C
HETATM   13  C21 UNL     1     -26.274  10.508 -14.958  1.00  0.00     0.050 C
HETATM   14  O5  UNL     1     -25.811   9.030 -16.687  1.00  0.00    -0.229 OA
HETATM   15  O6  UNL     1     -25.604   7.774 -16.885  1.00  0.00    -0.229 OA
HETATM   16  C22 UNL     1     -27.060   8.229 -14.763  1.00  0.00     0.027 C
HETATM   17  C23 UNL     1     -25.842   7.776 -14.052  1.00  0.00     0.009 C
HETATM   18  C24 UNL     1     -25.749   6.249 -13.906  1.00  0.00     0.010 C
HETATM   19  C25 UNL     1     -27.037   5.805 -13.296  1.00  0.00    -0.035 C
HETATM   20  C26 UNL     1     -27.089   6.579 -11.953  1.00  0.00     0.016 C
ENDROOT
BRANCH   1  21
HETATM   21  C8  UNL     1     -26.484   3.338 -13.703  1.00  0.00     0.115 C
BRANCH  21  22
HETATM   22  N2  UNL     1     -26.646   2.012 -13.139  1.00  0.00    -0.179 NA
BRANCH  22  23
HETATM   23  S1  UNL     1     -25.414   0.931 -13.657  1.00  0.00     0.361 S
HETATM   24  O2  UNL     1     -24.344   0.899 -12.606  1.00  0.00    -0.179 OA
HETATM   25  O3  UNL     1     -24.777   1.305 -14.941  1.00  0.00    -0.179 OA
BRANCH  23  26
HETATM   26  O1  UNL     1     -25.979  -0.645 -13.795  1.00  0.00    -0.138 OA
BRANCH  26  27
HETATM   27  N1  UNL     1     -26.429  -0.930 -15.011  1.00  0.00    -0.247 N
ATOM     28  H1  UNL     1     -27.154  -0.343 -15.425  1.00  0.00     0.195 HD
BRANCH  27  29
HETATM   29  C2  UNL     1     -25.928  -2.021 -15.740  1.00  0.00     0.097 C
HETATM   30  C1  UNL     1     -25.876  -3.371 -15.141  1.00  0.00     0.076 C
HETATM   31  C27 UNL     1     -25.497  -1.833 -16.987  1.00  0.00     0.291 C
HETATM   32  F1  UNL     1     -25.018  -2.856 -17.696  1.00  0.00    -0.171 F
HETATM   33  F2  UNL     1     -25.537  -0.604 -17.552  1.00  0.00    -0.171 F
ENDBRANCH  27  29
ENDBRANCH  26  27
ENDBRANCH  23  26
ENDBRANCH  22  23
BRANCH  22  34
HETATM   34  C3  UNL     1     -26.614   2.049 -11.691  1.00  0.00     0.174 C
BRANCH  34  35
HETATM   35  C4  UNL     1     -27.488   1.057 -11.035  1.00  0.00     0.066 A
HETATM   36  C5  UNL     1     -28.765   1.356 -10.560  1.00  0.00     0.036 A
HETATM   37  C6  UNL     1     -29.244   0.157 -10.021  1.00  0.00     0.027 A
HETATM   38  C7  UNL     1     -28.249  -0.770 -10.200  1.00  0.00     0.142 A
HETATM   39  O4  UNL     1     -27.243  -0.196 -10.797  1.00  0.00    -0.326 OA
ENDBRANCH  34  35
ENDBRANCH  22  34
ENDBRANCH  21  22
ENDBRANCH   1  21
TORSDOF 8
ENDMDL