MODEL 1
REMARK VINA RESULT: -8.731523153      0.000      0.000
REMARK  9 active torsions:
REMARK  status: ('A' for Active; 'I' for Inactive)
REMARK    1  A    between atoms: O1_2  and  C2_3
REMARK    2  A    between atoms: C2_3  and  C3_5
REMARK    3  A    between atoms: C13_17  and  C14_18
REMARK    4  A    between atoms: C14_18  and  C15_19
REMARK    5  A    between atoms: C15_19  and  O5_20
REMARK    6  A    between atoms: C15_19  and  C16_22
REMARK    7  A    between atoms: C16_22  and  C18_25
REMARK    8  A    between atoms: C18_25  and  S1_26
REMARK    9  A    between atoms: S1_26  and  C19_27
ROOT
HETATM    1  C3  UNL     1     -28.899   6.289 -15.693  1.00  0.00     0.048 C
HETATM    2  C4  UNL     1     -29.847   5.195 -15.137  1.00  0.00     0.026 C
HETATM    3  C5  UNL     1     -29.404   7.646 -15.249  1.00  0.00     0.025 C
HETATM    4  C6  UNL     1     -29.540   8.694 -16.265  1.00  0.00     0.003 A
HETATM    5  C7  UNL     1     -29.221  10.137 -15.970  1.00  0.00     0.011 A
HETATM    6  C8  UNL     1     -28.350  10.593 -14.868  1.00  0.00     0.117 C
HETATM    7  C9  UNL     1     -26.989  11.031 -15.356  1.00  0.00     0.259 C
HETATM    8  O3  UNL     1     -26.287  11.867 -14.748  1.00  0.00    -0.265 OA
HETATM    9  O4  UNL     1     -26.547  10.460 -16.521  1.00  0.00    -0.315 OA
HETATM   10  C10 UNL     1     -27.084   9.149 -16.808  1.00  0.00     0.141 C
HETATM   11  C11 UNL     1     -26.441   8.243 -15.816  1.00  0.00     0.034 C
HETATM   12  C12 UNL     1     -26.483   6.785 -16.139  1.00  0.00     0.008 C
HETATM   13  C13 UNL     1     -27.523   5.998 -15.291  1.00  0.00     0.006 C
HETATM   14  C25 UNL     1     -28.495   9.267 -16.998  1.00  0.00    -0.009 A
HETATM   15  C26 UNL     1     -28.836   9.768 -18.434  1.00  0.00     0.018 C
ENDROOT
BRANCH  13  16
HETATM   16  C14 UNL     1     -27.023   6.031 -13.922  1.00  0.00     0.041 C
BRANCH  16  17
HETATM   17  C15 UNL     1     -26.173   5.039 -13.283  1.00  0.00     0.158 C
BRANCH  17  18
HETATM   18  O5  UNL     1     -24.961   4.719 -13.846  1.00  0.00    -0.392 OA
ATOM     19  H5  UNL     1     -24.379   4.118 -13.397  1.00  0.00     0.210 HD
ENDBRANCH  17  18
BRANCH  17  20
HETATM   20  C16 UNL     1     -26.861   3.702 -13.035  1.00  0.00     0.134 C
HETATM   21  C17 UNL     1     -27.892   3.737 -11.974  1.00  0.00     0.055 C
HETATM   22  F1  UNL     1     -27.416   3.245 -14.214  1.00  0.00    -0.240 F
BRANCH  20  23
HETATM   23  C18 UNL     1     -25.774   2.733 -12.634  1.00  0.00     0.125 C
BRANCH  23  24
HETATM   24  S1  UNL     1     -26.339   1.112 -12.175  1.00  0.00    -0.127 SA
BRANCH  24  25
HETATM   25  C19 UNL     1     -26.548   0.056 -13.596  1.00  0.00     0.000 A
HETATM   26  C20 UNL     1     -27.710  -0.684 -13.775  1.00  0.00     0.020 A
HETATM   27  C21 UNL     1     -27.831  -1.472 -14.894  1.00  0.00     0.020 A
HETATM   28  C22 UNL     1     -26.845  -1.566 -15.858  1.00  0.00     0.011 A
HETATM   29 BR1  UNL     1     -27.031  -2.667 -17.407  1.00  0.00    -0.051 Br
HETATM   30  C23 UNL     1     -25.695  -0.819 -15.659  1.00  0.00     0.020 A
HETATM   31  C24 UNL     1     -25.564  -0.037 -14.555  1.00  0.00     0.020 A
ENDBRANCH  24  25
ENDBRANCH  23  24
ENDBRANCH  20  23
ENDBRANCH  17  20
ENDBRANCH  16  17
ENDBRANCH  13  16
BRANCH   1  32
HETATM   32  C2  UNL     1     -29.068   6.051 -17.144  1.00  0.00     0.267 C
HETATM   33  O2  UNL     1     -28.113   5.942 -17.895  1.00  0.00    -0.264 OA
BRANCH  32  34
HETATM   34  O1  UNL     1     -30.332   5.941 -17.664  1.00  0.00    -0.326 OA
HETATM   35  C1  UNL     1     -30.516   5.789 -19.071  1.00  0.00     0.213 C
ENDBRANCH  32  34
ENDBRANCH   1  32
TORSDOF 9
ENDMDL