MODEL 4
REMARK VINA RESULT: -8.124012099      1.441      1.912
REMARK  10 active torsions:
REMARK  status: ('A' for Active; 'I' for Inactive)
REMARK    1  A    between atoms: C2_2  and  O1_4
REMARK    2  A    between atoms: O1_4  and  C4_5
REMARK    3  A    between atoms: C4_5  and  O3_7
REMARK    4  A    between atoms: O3_7  and  C5_8
REMARK       I    between atoms: N1_17  and  C14_18
REMARK    5  A    between atoms: C14_18  and  C15_20
REMARK    6  A    between atoms: C15_20  and  C16_21
REMARK    7  A    between atoms: C16_21  and  S1_22
REMARK    8  A    between atoms: S1_22  and  C17_23
REMARK    9  A    between atoms: C27_35  and  C29_37
REMARK   10  A    between atoms: C29_37  and  O5_38
ROOT
HETATM    1  C5  UNL     1     -29.329   9.784 -15.941  1.00  0.00     0.173 C
HETATM    2  C6  UNL     1     -28.862  10.874 -16.730  1.00  0.00     0.043 C
HETATM    3  C7  UNL     1     -27.512  11.095 -17.369  1.00  0.00    -0.006 C
HETATM    4  C8  UNL     1     -27.518  12.555 -17.863  1.00  0.00     0.011 C
HETATM    5  C9  UNL     1     -26.463  10.659 -16.547  1.00  0.00    -0.018 C
HETATM    6  C10 UNL     1     -26.830  11.230 -15.216  1.00  0.00     0.012 C
HETATM    7  C11 UNL     1     -25.983  10.638 -14.160  1.00  0.00     0.008 C
HETATM    8  C12 UNL     1     -25.118   9.962 -15.214  1.00  0.00     0.021 C
HETATM    9  C13 UNL     1     -25.993   8.797 -15.554  1.00  0.00     0.105 C
HETATM   10  N1  UNL     1     -27.282   8.408 -15.191  1.00  0.00    -0.323 N
HETATM   11  C14 UNL     1     -27.184   7.432 -14.143  1.00  0.00     0.224 C
HETATM   12  O4  UNL     1     -28.223   6.929 -13.605  1.00  0.00    -0.273 OA
HETATM   13  C23 UNL     1     -28.696   8.550 -15.488  1.00  0.00     0.100 C
HETATM   14  C24 UNL     1     -26.125   9.281 -16.961  1.00  0.00    -0.017 C
HETATM   15  C25 UNL     1     -24.724   8.784 -17.353  1.00  0.00     0.018 C
HETATM   16  C26 UNL     1     -26.864   8.544 -17.957  1.00  0.00     0.018 C
HETATM   17  C27 UNL     1     -25.082  11.035 -16.259  1.00  0.00    -0.008 C
HETATM   18  C28 UNL     1     -24.611  12.219 -15.468  1.00  0.00     0.018 C
ENDROOT
BRANCH  11  19
HETATM   19  C15 UNL     1     -25.898   6.925 -13.598  1.00  0.00     0.114 C
BRANCH  19  20
HETATM   20  C16 UNL     1     -25.742   5.426 -13.852  1.00  0.00     0.089 C
BRANCH  20  21
HETATM   21  S1  UNL     1     -26.919   4.563 -12.776  1.00  0.00    -0.126 SA
BRANCH  21  22
HETATM   22  C17 UNL     1     -26.656   2.814 -12.828  1.00  0.00     0.039 A
HETATM   23  C18 UNL     1     -25.430   2.287 -13.214  1.00  0.00     0.025 A
HETATM   24  C19 UNL     1     -25.223   0.937 -13.257  1.00  0.00     0.044 A
HETATM   25  C20 UNL     1     -26.220   0.068 -12.917  1.00  0.00     0.119 A
HETATM   26  F1  UNL     1     -26.045  -1.264 -12.949  1.00  0.00    -0.206 F
HETATM   27  C21 UNL     1     -27.445   0.578 -12.530  1.00  0.00     0.086 A
HETATM   28  C22 UNL     1     -27.658   1.955 -12.487  1.00  0.00     0.136 A
HETATM   29  F2  UNL     1     -28.887   2.414 -12.097  1.00  0.00    -0.205 F
ENDBRANCH  21  22
ENDBRANCH  20  21
ENDBRANCH  19  20
ENDBRANCH  11  19
BRANCH   1  30
HETATM   30  O3  UNL     1     -30.532   9.265 -16.597  1.00  0.00    -0.287 OA
BRANCH  30  31
HETATM   31  C4  UNL     1     -30.557   8.575 -17.756  1.00  0.00     0.407 C
HETATM   32  O2  UNL     1     -30.339   9.205 -18.828  1.00  0.00    -0.229 OA
BRANCH  31  33
HETATM   33  O1  UNL     1     -30.817   7.213 -17.733  1.00  0.00    -0.293 OA
BRANCH  33  34
HETATM   34  C2  UNL     1     -29.844   6.293 -18.164  1.00  0.00     0.126 C
HETATM   35  C1  UNL     1     -29.436   5.337 -17.063  1.00  0.00     0.040 C
HETATM   36  C3  UNL     1     -30.459   5.451 -19.264  1.00  0.00     0.040 C
ENDBRANCH  33  34
ENDBRANCH  31  33
ENDBRANCH  30  31
ENDBRANCH   1  30
BRANCH  17  37
HETATM   37  C29 UNL     1     -24.508  11.367 -17.502  1.00  0.00     0.174 C
BRANCH  37  38
HETATM   38  O5  UNL     1     -24.290  12.735 -17.811  1.00  0.00    -0.400 OA
ATOM     39  H5  UNL     1     -23.544  13.178 -17.425  1.00  0.00     0.209 HD
ENDBRANCH  37  38
ENDBRANCH  17  37
TORSDOF 10
ENDMDL