MODEL 5
REMARK VINA RESULT: -9.178185456      1.725      2.417
REMARK  10 active torsions:
REMARK  status: ('A' for Active; 'I' for Inactive)
REMARK    1  A    between atoms: O1_2  and  C2_3
REMARK    2  A    between atoms: C6_7  and  C7_8
REMARK    3  A    between atoms: C8_9  and  C9_10
REMARK    4  A    between atoms: C10_11  and  C11_12
REMARK    5  A    between atoms: C11_12  and  O3_14
REMARK    6  A    between atoms: O3_14  and  C12_15
REMARK    7  A    between atoms: C13_16  and  O4_17
REMARK    8  A    between atoms: C15_20  and  O5_21
REMARK    9  A    between atoms: O5_21  and  C16_22
REMARK   10  A    between atoms: C19_25  and  O6_26
ROOT
HETATM    1  C12 UNL     1     -28.623   8.307 -16.300  1.00  0.00     0.105 C
HETATM    2  C13 UNL     1     -29.126   9.638 -15.877  1.00  0.00     0.156 C
HETATM    3  C14 UNL     1     -28.416  10.856 -16.296  1.00  0.00     0.067 C
HETATM    4  C15 UNL     1     -27.317  10.694 -17.299  1.00  0.00     0.125 C
HETATM    5  C23 UNL     1     -26.464   9.483 -16.998  1.00  0.00     0.039 C
HETATM    6  C24 UNL     1     -27.230   8.216 -16.775  1.00  0.00     0.026 C
HETATM    7  C25 UNL     1     -27.033   7.412 -18.060  1.00  0.00     0.009 C
HETATM    8  C26 UNL     1     -27.738   6.100 -18.005  1.00  0.00     0.016 C
HETATM    9  C27 UNL     1     -29.190   6.234 -17.643  1.00  0.00     0.028 C
HETATM   10  C28 UNL     1     -29.573   5.093 -16.734  1.00  0.00     0.022 C
HETATM   11  C29 UNL     1     -29.636   7.559 -17.172  1.00  0.00     0.038 C
HETATM   12  C30 UNL     1     -30.229   8.320 -18.260  1.00  0.00     0.014 C
HETATM   13  C31 UNL     1     -30.146   7.425 -19.475  1.00  0.00     0.080 C
HETATM   14  C32 UNL     1     -30.028   6.019 -18.918  1.00  0.00     0.251 C
HETATM   15  F1  UNL     1     -31.298   5.583 -18.609  1.00  0.00    -0.205 F
HETATM   16  F2  UNL     1     -29.460   5.139 -19.782  1.00  0.00    -0.205 F
ENDROOT
BRANCH   1  17
HETATM   17  O3  UNL     1     -28.730   7.508 -15.064  1.00  0.00    -0.303 OA
BRANCH  17  18
HETATM   18  C11 UNL     1     -27.891   7.661 -14.042  1.00  0.00     0.283 C
HETATM   19  O2  UNL     1     -28.416   8.159 -12.987  1.00  0.00    -0.260 OA
BRANCH  18  20
HETATM   20  C10 UNL     1     -26.504   7.350 -13.967  1.00  0.00     0.082 C
HETATM   21  C9  UNL     1     -25.840   6.252 -13.860  1.00  0.00     0.006 C
BRANCH  21  22
HETATM   22  C8  UNL     1     -26.295   4.878 -13.768  1.00  0.00     0.001 C
HETATM   23  C7  UNL     1     -26.987   4.446 -12.728  1.00  0.00     0.011 C
BRANCH  23  24
HETATM   24  C6  UNL     1     -27.503   3.128 -12.500  1.00  0.00    -0.034 A
HETATM   25  C5  UNL     1     -28.200   2.890 -11.304  1.00  0.00     0.011 A
HETATM   26  C4  UNL     1     -28.738   1.654 -11.019  1.00  0.00     0.004 A
HETATM   27  C3  UNL     1     -28.612   0.618 -11.886  1.00  0.00     0.037 A
HETATM   28  C2  UNL     1     -27.936   0.801 -13.075  1.00  0.00     0.069 A
HETATM   29  C33 UNL     1     -27.399   2.055 -13.348  1.00  0.00     0.048 A
BRANCH  28  30
HETATM   30  O1  UNL     1     -27.842  -0.284 -13.915  1.00  0.00    -0.356 OA
HETATM   31  C1  UNL     1     -26.679  -0.617 -14.618  1.00  0.00     0.210 C
ENDBRANCH  28  30
ENDBRANCH  23  24
ENDBRANCH  21  22
ENDBRANCH  18  20
ENDBRANCH  17  18
ENDBRANCH   1  17
BRANCH   2  32
HETATM   32  O4  UNL     1     -30.489   9.735 -16.276  1.00  0.00    -0.392 OA
ATOM     33  H4  UNL     1     -30.947   8.979 -15.930  1.00  0.00     0.210 HD
ENDBRANCH   2  32
BRANCH   4  34
HETATM   34  O5  UNL     1     -26.452  11.772 -17.336  1.00  0.00    -0.381 OA
BRANCH  34  35
HETATM   35  C16 UNL     1     -26.467  12.615 -16.261  1.00  0.00     0.122 C
HETATM   36  C17 UNL     1     -26.106  11.781 -15.046  1.00  0.00     0.034 C
HETATM   37  C18 UNL     1     -25.343  12.540 -14.006  1.00  0.00     0.034 C
HETATM   38  C19 UNL     1     -24.012  13.074 -14.486  1.00  0.00     0.120 C
HETATM   39  C21 UNL     1     -24.072  13.221 -16.014  1.00  0.00     0.034 C
HETATM   40  C22 UNL     1     -25.463  13.735 -16.323  1.00  0.00     0.034 C
BRANCH  38  41
HETATM   41  O6  UNL     1     -22.954  12.278 -14.138  1.00  0.00    -0.391 OA
HETATM   42  C20 UNL     1     -23.091  11.881 -12.812  1.00  0.00     0.202 C
ENDBRANCH  38  41
ENDBRANCH  34  35
ENDBRANCH   4  34
TORSDOF 10
ENDMDL