MODEL 1
REMARK VINA RESULT: -9.915776466      0.000      0.000
REMARK  7 active torsions:
REMARK  status: ('A' for Active; 'I' for Inactive)
REMARK    1  A    between atoms: C2_2  and  C4_4
REMARK    2  A    between atoms: C2_2  and  C5_7
REMARK    3  A    between atoms: C7_12  and  O3_13
REMARK    4  A    between atoms: O3_13  and  C8_14
REMARK    5  A    between atoms: C8_14  and  C9_15
REMARK    6  A    between atoms: C12_19  and  C13_20
REMARK    7  A    between atoms: N3_23  and  C16_24
ROOT
HETATM    1  C5  UNL     1     -29.314   6.775 -15.906  1.00  0.00    -0.009 A
HETATM    2  C6  UNL     1     -29.517   5.587 -15.190  1.00  0.00     0.126 A
HETATM    3  N1  UNL     1     -28.397   5.360 -14.432  1.00  0.00    -0.261 N
HETATM    4  N2  UNL     1     -28.107   4.235 -13.783  1.00  0.00    -0.271 N
ATOM      5  H2  UNL     1     -28.839   3.539 -13.638  1.00  0.00     0.189 HD
HETATM    6  C7  UNL     1     -26.884   3.997 -13.319  1.00  0.00     0.201 A
HETATM    7  C22 UNL     1     -25.928   5.040 -13.603  1.00  0.00     0.209 A
HETATM    8  F1  UNL     1     -24.612   4.797 -13.234  1.00  0.00    -0.198 F
HETATM    9  C23 UNL     1     -26.216   6.172 -14.228  1.00  0.00     0.188 A
HETATM   10  F2  UNL     1     -25.295   7.113 -14.512  1.00  0.00    -0.200 F
HETATM   11  C24 UNL     1     -27.561   6.345 -14.658  1.00  0.00     0.108 A
HETATM   12  C25 UNL     1     -28.072   7.276 -15.534  1.00  0.00     0.007 A
HETATM   13  C26 UNL     1     -27.583   8.587 -15.834  1.00  0.00    -0.067 C
HETATM   14  C27 UNL     1     -28.278   9.659 -14.927  1.00  0.00     0.035 C
HETATM   15  C28 UNL     1     -28.059  10.860 -15.768  1.00  0.00     0.005 C
HETATM   16  C29 UNL     1     -26.671  10.584 -16.362  1.00  0.00     0.005 C
HETATM   17  C30 UNL     1     -27.006   9.169 -16.979  1.00  0.00     0.035 C
ENDROOT
BRANCH   6  18
HETATM   18  O3  UNL     1     -26.408   3.025 -12.629  1.00  0.00    -0.326 OA
BRANCH  18  19
HETATM   19  C8  UNL     1     -25.902   2.038 -11.938  1.00  0.00     0.242 C
BRANCH  19  20
HETATM   20  C9  UNL     1     -27.161   1.456 -11.374  1.00  0.00     0.083 A
HETATM   21  O4  UNL     1     -27.711   1.906 -10.282  1.00  0.00    -0.324 OA
HETATM   22  C10 UNL     1     -28.830   1.214 -10.056  1.00  0.00     0.143 A
HETATM   23  C11 UNL     1     -28.987   0.294 -11.066  1.00  0.00     0.034 A
HETATM   24  C12 UNL     1     -27.902   0.445 -11.910  1.00  0.00    -0.020 A
BRANCH  24  25
HETATM   25  C13 UNL     1     -27.567  -0.471 -12.957  1.00  0.00     0.024 C
HETATM   26  C14 UNL     1     -27.801   0.243 -14.280  1.00  0.00     0.029 C
HETATM   27  C15 UNL     1     -26.331   0.441 -14.882  1.00  0.00     0.118 C
HETATM   28  N3  UNL     1     -25.975  -0.832 -15.346  1.00  0.00    -0.406 N
HETATM   29  C20 UNL     1     -26.330  -1.878 -14.469  1.00  0.00     0.118 C
HETATM   30  C21 UNL     1     -26.373  -1.273 -13.049  1.00  0.00     0.029 C
BRANCH  28  31
HETATM   31  C16 UNL     1     -25.547  -1.084 -16.628  1.00  0.00     0.104 C
HETATM   32  C17 UNL     1     -24.582  -0.096 -17.195  1.00  0.00     0.053 C
HETATM   33  C18 UNL     1     -23.266  -0.785 -16.847  1.00  0.00     0.169 C
HETATM   34  O5  UNL     1     -23.510  -2.142 -16.688  1.00  0.00    -0.389 OA
HETATM   35  C19 UNL     1     -24.835  -2.395 -16.826  1.00  0.00     0.192 C
ENDBRANCH  28  31
ENDBRANCH  24  25
ENDBRANCH  19  20
ENDBRANCH  18  19
ENDBRANCH   6  18
BRANCH   1  36
HETATM   36  C2  UNL     1     -29.994   7.112 -17.129  1.00  0.00     0.070 C
HETATM   37  C1  UNL     1     -30.238   8.447 -17.566  1.00  0.00     0.032 C
HETATM   38  C3  UNL     1     -31.360   6.407 -17.120  1.00  0.00     0.032 C
BRANCH  36  39
HETATM   39  C4  UNL     1     -29.365   6.223 -18.260  1.00  0.00     0.185 C
HETATM   40  O1  UNL     1     -28.177   6.202 -18.366  1.00  0.00    -0.647 OA
HETATM   41  O2  UNL     1     -30.288   5.522 -19.023  1.00  0.00    -0.647 OA
ENDBRANCH  36  39
ENDBRANCH   1  36
TORSDOF 7
ENDMDL