MODEL 2
REMARK VINA RESULT: -7.400756365      1.612      2.152
REMARK  3 active torsions:
REMARK  status: ('A' for Active; 'I' for Inactive)
REMARK    1  A    between atoms: N3_8  and  C3_9
REMARK    2  A    between atoms: C3_9  and  C4_10
REMARK    3  A    between atoms: N5_18  and  O3_19
ROOT
HETATM    1  N1  UNL     1     -29.504  84.272  37.668  1.00  0.00    -0.232 N
ATOM      2  H11 UNL     1     -29.082  84.832  38.408  1.00  0.00     0.174 HD
ATOM      3  H12 UNL     1     -29.501  83.260  37.795  1.00  0.00     0.174 HD
HETATM    4  C1  UNL     1     -30.029  84.801  36.607  1.00  0.00     0.704 A
HETATM    5  N2  UNL     1     -30.587  84.062  35.630  1.00  0.00    -0.186 N
ATOM      6  H2  UNL     1     -30.593  83.047  35.735  1.00  0.00     0.185 HD
HETATM    7  C2  UNL     1     -31.136  84.592  34.524  1.00  0.00     0.201 A
HETATM    8  N3  UNL     1     -31.140  85.933  34.360  1.00  0.00    -0.334 N
HETATM    9  C7  UNL     1     -30.582  86.677  35.335  1.00  0.00     0.236 A
HETATM   10  N5  UNL     1     -30.034  86.139  36.439  1.00  0.00    -0.048 N
ENDROOT
BRANCH   8  11
HETATM   11  C3  UNL     1     -31.712  86.537  33.199  1.00  0.00     0.157 C
BRANCH  11  12
HETATM   12  C4  UNL     1     -31.256  85.838  31.912  1.00  0.00     0.129 C
HETATM   13  C5  UNL     1     -32.527  85.326  31.244  1.00  0.00     0.207 C
HETATM   14  O1  UNL     1     -32.956  86.385  30.383  1.00  0.00    -0.302 OA
HETATM   15  C6  UNL     1     -31.835  87.186  30.116  1.00  0.00     0.361 C
HETATM   16  O2  UNL     1     -31.835  88.093  29.238  1.00  0.00    -0.239 OA
HETATM   17  N4  UNL     1     -30.766  86.804  30.969  1.00  0.00    -0.329 N
ATOM     18  H4  UNL     1     -29.810  87.155  30.920  1.00  0.00     0.165 HD
ENDBRANCH  11  12
ENDBRANCH   8  11
BRANCH  10  19
HETATM   19  O3  UNL     1     -29.464  86.899  37.436  1.00  0.00    -0.269 OA
ATOM     20  H3  UNL     1     -30.048  87.436  37.959  1.00  0.00     0.246 HD
ENDBRANCH  10  19
TORSDOF 3
ENDMDL