MODEL 4
REMARK VINA RESULT: -6.536651702      2.627      4.967
REMARK  5 active torsions:
REMARK  status: ('A' for Active; 'I' for Inactive)
REMARK    1  A    between atoms: C1_4  and  C2_5
REMARK    2  A    between atoms: C7_12  and  N3_13
REMARK    3  A    between atoms: N5_18  and  O1_19
REMARK    4  A    between atoms: N6_21  and  C8_22
REMARK    5  A    between atoms: C8_22  and  N7_23
ROOT
HETATM    1  C2  UNL     1     -30.854  86.731  35.049  1.00  0.00    -0.005 A
HETATM    2  C3  UNL     1     -31.173  87.799  34.240  1.00  0.00     0.102 A
HETATM    3  N2  UNL     1     -31.627  87.633  32.969  1.00  0.00    -0.349 N
ATOM      4  H2  UNL     1     -31.849  88.456  32.409  1.00  0.00     0.167 HD
HETATM    5  C4  UNL     1     -31.789  86.411  32.432  1.00  0.00     0.141 A
HETATM    6  C5  UNL     1     -31.473  85.331  33.233  1.00  0.00     0.056 A
HETATM    7  C6  UNL     1     -31.012  85.467  34.521  1.00  0.00     0.033 A
HETATM    8  C7  UNL     1     -31.631  84.060  32.705  1.00  0.00     0.131 A
HETATM    9  N4  UNL     1     -32.082  83.911  31.445  1.00  0.00    -0.243 N
ATOM     10  H4  UNL     1     -32.202  82.981  31.044  1.00  0.00     0.193 HD
HETATM   11  N5  UNL     1     -32.368  85.002  30.728  1.00  0.00    -0.088 N
HETATM   12  N6  UNL     1     -32.237  86.221  31.177  1.00  0.00    -0.208 N
ENDROOT
BRANCH  12  13
HETATM   13  C8  UNL     1     -32.565  87.365  30.348  1.00  0.00     0.383 C
BRANCH  13  14
HETATM   14  N7  UNL     1     -31.442  87.680  29.520  1.00  0.00    -0.061 N
ATOM     15  H73 UNL     1     -31.721  88.095  28.630  1.00  0.00     0.276 HD
ATOM     16  H72 UNL     1     -30.902  88.467  29.881  1.00  0.00     0.276 HD
ATOM     17  H71 UNL     1     -30.873  86.843  29.396  1.00  0.00     0.276 HD
ENDBRANCH  13  14
ENDBRANCH  12  13
BRANCH  11  18
HETATM   18  O1  UNL     1     -32.825  84.826  29.447  1.00  0.00    -0.253 OA
ATOM     19  H1  UNL     1     -32.368  84.202  28.895  1.00  0.00     0.248 HD
ENDBRANCH  11  18
BRANCH   8  20
HETATM   20  N3  UNL     1     -31.350  83.033  33.410  1.00  0.00    -0.384 N
ATOM     21  H32 UNL     1     -31.893  82.824  34.248  1.00  0.00     0.157 HD
ATOM     22  H31 UNL     1     -30.582  82.419  33.138  1.00  0.00     0.157 HD
ENDBRANCH   8  20
BRANCH   1  23
HETATM   23  C1  UNL     1     -30.368  86.896  36.410  1.00  0.00     0.093 C
HETATM   24  N1  UNL     1     -30.027  88.034  36.892  1.00  0.00    -0.407 N
ATOM     25  H12 UNL     1     -30.107  88.848  36.283  1.00  0.00     0.155 HD
ATOM     26  H11 UNL     1     -29.686  88.150  37.846  1.00  0.00     0.155 HD
ENDBRANCH   1  23
TORSDOF 5
ENDMDL