MODEL 4
REMARK VINA RESULT: -7.410394549      0.881      1.471
REMARK  3 active torsions:
REMARK  status: ('A' for Active; 'I' for Inactive)
REMARK    1  A    between atoms: C3_3  and  C4_4
REMARK    2  A    between atoms: C4_4  and  N1_5
REMARK    3  A    between atoms: N1_5  and  C5_7
ROOT
HETATM    1  C1  UNL     1     -29.572  88.420  37.053  1.00  0.00     0.012 C
HETATM    2  C2  UNL     1     -29.838  87.287  36.726  1.00  0.00    -0.116 C
HETATM    3  C3  UNL     1     -30.186  85.910  36.325  1.00  0.00     0.113 C
ENDROOT
BRANCH   3   4
HETATM    4  C4  UNL     1     -31.473  85.991  35.531  1.00  0.00     0.150 C
BRANCH   4   5
HETATM    5  N1  UNL     1     -31.268  86.705  34.305  1.00  0.00    -0.225 N
ATOM      6  H1  UNL     1     -30.870  87.641  34.369  1.00  0.00     0.177 HD
BRANCH   5   7
HETATM    7  C5  UNL     1     -31.544  86.264  33.140  1.00  0.00     0.685 C
HETATM    8  N2  UNL     1     -31.508  84.927  32.996  1.00  0.00    -0.141 N
HETATM    9  C6  UNL     1     -32.111  84.152  32.052  1.00  0.00     0.341 C
ATOM     10  H2  UNL     1     -30.953  84.424  33.688  1.00  0.00     0.189 HD
HETATM   11  O1  UNL     1     -32.260  82.952  32.350  1.00  0.00    -0.246 OA
HETATM   12  N3  UNL     1     -32.573  84.491  30.836  1.00  0.00    -0.270 N
HETATM   13  C7  UNL     1     -32.528  85.712  30.272  1.00  0.00     0.318 C
ATOM     14  H3  UNL     1     -33.002  83.747  30.284  1.00  0.00     0.174 HD
HETATM   15  O2  UNL     1     -32.893  85.838  29.089  1.00  0.00    -0.262 OA
HETATM   16  C8  UNL     1     -32.113  86.905  30.850  1.00  0.00     0.328 C
HETATM   17  O3  UNL     1     -31.958  87.894  30.086  1.00  0.00    -0.261 OA
HETATM   18  N4  UNL     1     -31.843  87.157  32.164  1.00  0.00    -0.151 N
ATOM     19  H4  UNL     1     -31.869  88.137  32.445  1.00  0.00     0.188 HD
ENDBRANCH   5   7
ENDBRANCH   4   5
ENDBRANCH   3   4
TORSDOF 3
ENDMDL