MODEL 3
REMARK VINA RESULT: -6.201698175      2.171      2.879
REMARK  6 active torsions:
REMARK  status: ('A' for Active; 'I' for Inactive)
REMARK    1  A    between atoms: C6_7  and  N2_8
REMARK    2  A    between atoms: N2_8  and  C7_10
REMARK    3  A    between atoms: C7_10  and  O1_11
REMARK    4  A    between atoms: C7_10  and  C8_13
REMARK    5  A    between atoms: C8_13  and  N3_14
REMARK    6  A    between atoms: N5_20  and  O2_21
ROOT
HETATM    1  C1  UNL     1     -30.028  85.199  36.534  1.00  0.00     0.075 C
HETATM    2  C2  UNL     1     -30.642  85.636  35.257  1.00  0.00     0.078 A
HETATM    3  C3  UNL     1     -30.936  84.666  34.322  1.00  0.00     0.051 A
HETATM    4  C4  UNL     1     -30.626  83.225  34.630  1.00  0.00     0.071 C
HETATM    5  N1  UNL     1     -31.483  85.046  33.180  1.00  0.00    -0.189 N
HETATM    6  C5  UNL     1     -31.795  84.040  32.195  1.00  0.00     0.175 C
HETATM    7  C6  UNL     1     -31.781  86.341  32.860  1.00  0.00     0.698 A
HETATM    8  N4  UNL     1     -31.479  87.252  33.795  1.00  0.00    -0.105 N
ATOM      9  H4  UNL     1     -31.678  88.235  33.610  1.00  0.00     0.208 HD
HETATM   10  N5  UNL     1     -30.921  86.913  34.972  1.00  0.00    -0.152 N
ENDROOT
BRANCH   7  11
HETATM   11  N2  UNL     1     -32.307  86.603  31.735  1.00  0.00    -0.197 N
ATOM     12  H2  UNL     1     -33.294  86.357  31.672  1.00  0.00     0.180 HD
BRANCH  11  13
HETATM   13  C7  UNL     1     -31.785  87.168  30.559  1.00  0.00     0.260 C
BRANCH  13  14
HETATM   14  O1  UNL     1     -32.838  87.586  29.746  1.00  0.00    -0.374 OA
ATOM     15  H1  UNL     1     -33.623  87.103  29.977  1.00  0.00     0.212 HD
ENDBRANCH  13  14
BRANCH  13  16
HETATM   16  C8  UNL     1     -30.914  86.204  29.791  1.00  0.00     0.283 C
BRANCH  16  17
HETATM   17  N3  UNL     1     -29.520  86.366  30.058  1.00  0.00    -0.075 N
ATOM     18  H33 UNL     1     -29.348  87.225  30.580  1.00  0.00     0.274 HD
ATOM     19  H32 UNL     1     -29.202  85.685  30.747  1.00  0.00     0.274 HD
ATOM     20  H31 UNL     1     -28.942  86.330  29.219  1.00  0.00     0.274 HD
ENDBRANCH  16  17
ENDBRANCH  13  16
ENDBRANCH  11  13
ENDBRANCH   7  11
BRANCH  10  21
HETATM   21  O2  UNL     1     -30.623  87.875  35.915  1.00  0.00    -0.267 OA
ATOM     22  H2  UNL     1     -30.677  88.789  35.660  1.00  0.00     0.247 HD
ENDBRANCH  10  21
TORSDOF 6
ENDMDL