MODEL 1
REMARK VINA RESULT: -7.395964722      0.000      0.000
REMARK  3 active torsions:
REMARK  status: ('A' for Active; 'I' for Inactive)
REMARK    1  A    between atoms: N1_1  and  S1_4
REMARK    2  A    between atoms: S1_4  and  C1_7
REMARK    3  A    between atoms: C1_7  and  C2_8
ROOT
HETATM    1  C2  UNL     1     -31.285  85.235  33.704  1.00  0.00     0.034 A
HETATM    2  C3  UNL     1     -31.862  84.875  32.509  1.00  0.00     0.100 A
HETATM    3  C4  UNL     1     -32.319  85.851  31.614  1.00  0.00     0.251 A
HETATM    4  O3  UNL     1     -32.839  85.461  30.535  1.00  0.00    -0.268 OA
HETATM    5  N2  UNL     1     -32.191  87.144  31.934  1.00  0.00    -0.275 N
ATOM      6  H2  UNL     1     -32.520  87.867  31.294  1.00  0.00     0.173 HD
HETATM    7  C5  UNL     1     -31.628  87.481  33.099  1.00  0.00     0.327 A
HETATM    8  O4  UNL     1     -31.499  88.714  33.417  1.00  0.00    -0.247 OA
HETATM    9  N3  UNL     1     -31.184  86.544  33.967  1.00  0.00    -0.311 N
ATOM     10  H3  UNL     1     -30.760  86.843  34.845  1.00  0.00     0.170 HD
ENDROOT
BRANCH   1  11
HETATM   11  C1  UNL     1     -30.812  84.208  34.626  1.00  0.00     0.220 C
BRANCH  11  12
HETATM   12  S1  UNL     1     -30.695  84.754  36.304  1.00  0.00     0.229 S
HETATM   13  O1  UNL     1     -29.371  85.493  36.423  1.00  0.00    -0.206 OA
HETATM   14  O2  UNL     1     -31.758  85.765  36.627  1.00  0.00    -0.206 OA
BRANCH  12  15
HETATM   15  N1  UNL     1     -30.718  83.488  37.434  1.00  0.00    -0.328 N
ATOM     16  H12 UNL     1     -29.956  83.265  38.075  1.00  0.00     0.168 HD
ATOM     17  H11 UNL     1     -31.611  82.999  37.362  1.00  0.00     0.168 HD
ENDBRANCH  12  15
ENDBRANCH  11  12
ENDBRANCH   1  11
TORSDOF 3
ENDMDL