MODEL 5
REMARK VINA RESULT: -6.517975658      2.647      4.628
REMARK  3 active torsions:
REMARK  status: ('A' for Active; 'I' for Inactive)
REMARK    1  A    between atoms: C4_6  and  N2_7
REMARK    2  A    between atoms: C6_16  and  O2_17
REMARK    3  A    between atoms: C7_19  and  O3_20
ROOT
HETATM    1  C1  UNL     1     -31.661  83.711  32.622  1.00  0.00     0.146 C
HETATM    2  N1  UNL     1     -31.638  85.095  32.963  1.00  0.00    -0.390 N
ATOM      3  H1  UNL     1     -32.072  85.753  32.316  1.00  0.00     0.159 HD
HETATM    4  C2  UNL     1     -31.111  85.562  34.021  1.00  0.00     0.093 A
HETATM    5  C3  UNL     1     -31.188  87.008  34.193  1.00  0.00     0.081 A
HETATM    6  C4  UNL     1     -31.774  87.772  33.295  1.00  0.00     0.138 C
HETATM    7  N4  UNL     1     -30.614  87.582  35.360  1.00  0.00    -0.318 N
ATOM      8  H4  UNL     1     -30.655  88.591  35.504  1.00  0.00     0.169 HD
HETATM    9  C5  UNL     1     -29.982  86.754  36.327  1.00  0.00     0.282 A
HETATM   10  O1  UNL     1     -29.476  87.240  37.349  1.00  0.00    -0.265 OA
HETATM   11  C6  UNL     1     -29.929  85.328  36.114  1.00  0.00     0.170 A
HETATM   12  C7  UNL     1     -30.446  84.721  35.046  1.00  0.00     0.136 A
ENDROOT
BRANCH   6  13
HETATM   13  N2  UNL     1     -32.376  87.316  32.104  1.00  0.00    -0.316 N
HETATM   14  N3  UNL     1     -31.817  87.467  30.983  1.00  0.00    -0.345 N
ATOM     15  H32 UNL     1     -30.909  87.932  30.955  1.00  0.00     0.176 HD
ATOM     16  H31 UNL     1     -32.252  87.137  30.122  1.00  0.00     0.176 HD
ATOM     17  H2  UNL     1     -33.284  86.853  32.150  1.00  0.00     0.185 HD
ENDBRANCH   6  13
BRANCH  12  18
HETATM   18  O3  UNL     1     -30.381  83.368  34.871  1.00  0.00    -0.351 OA
HETATM   19  C8  UNL     1     -29.422  82.608  34.226  1.00  0.00     0.210 C
ENDBRANCH  12  18
BRANCH  11  20
HETATM   20  O2  UNL     1     -29.314  84.506  37.051  1.00  0.00    -0.354 OA
ATOM     21  H2  UNL     1     -29.819  84.141  37.768  1.00  0.00     0.218 HD
ENDBRANCH  11  20
TORSDOF 3
ENDMDL