MODEL 4
REMARK VINA RESULT: -6.830833181      1.042      1.792
REMARK  3 active torsions:
REMARK  status: ('A' for Active; 'I' for Inactive)
REMARK    1  A    between atoms: C1_2  and  N1_3
REMARK    2  A    between atoms: N1_3  and  S1_5
REMARK    3  A    between atoms: S1_5  and  C2_8
ROOT
HETATM    1  C2  UNL     1     -31.154  86.276  34.332  1.00  0.00     0.163 A
HETATM    2  C3  UNL     1     -31.428  84.930  34.234  1.00  0.00     0.123 A
HETATM    3  N2  UNL     1     -31.223  84.090  35.262  1.00  0.00    -0.317 N
ATOM      4  H2  UNL     1     -31.429  83.095  35.176  1.00  0.00     0.170 HD
HETATM    5  C4  UNL     1     -30.733  84.605  36.418  1.00  0.00     0.327 A
HETATM    6  O4  UNL     1     -30.554  83.777  37.355  1.00  0.00    -0.247 OA
HETATM    7  N3  UNL     1     -30.446  85.900  36.582  1.00  0.00    -0.274 N
ATOM      8  H3  UNL     1     -30.079  86.249  37.467  1.00  0.00     0.173 HD
HETATM    9  C5  UNL     1     -30.656  86.730  35.548  1.00  0.00     0.274 A
HETATM   10  O5  UNL     1     -30.383  87.959  35.706  1.00  0.00    -0.266 OA
ENDROOT
BRANCH   1  11
HETATM   11  S1  UNL     1     -31.400  87.420  33.038  1.00  0.00     0.271 S
HETATM   12  O2  UNL     1     -30.081  87.845  32.462  1.00  0.00    -0.200 OA
HETATM   13  O3  UNL     1     -32.053  88.642  33.621  1.00  0.00    -0.200 OA
BRANCH  11  14
HETATM   14  N1  UNL     1     -32.376  86.750  31.793  1.00  0.00    -0.257 N
ATOM     15  H1  UNL     1     -33.267  86.307  32.021  1.00  0.00     0.181 HD
BRANCH  14  16
HETATM   16  C1  UNL     1     -31.939  86.816  30.457  1.00  0.00     0.363 C
HETATM   17  O1  UNL     1     -32.211  87.824  29.769  1.00  0.00    -0.283 OA
ENDBRANCH  14  16
ENDBRANCH  11  14
ENDBRANCH   1  11
TORSDOF 3
ENDMDL