MODEL 1
REMARK VINA RESULT: -7.793378288      0.000      0.000
REMARK  4 active torsions:
REMARK  status: ('A' for Active; 'I' for Inactive)
REMARK    1  A    between atoms: N1_2  and  O1_3
REMARK    2  A    between atoms: N1_2  and  N2_5
REMARK    3  A    between atoms: N2_5  and  O2_6
REMARK    4  A    between atoms: N2_5  and  C2_8
ROOT
HETATM    1  C2  UNL     1     -31.025  85.823  34.594  1.00  0.00     0.210 A
HETATM    2  N3  UNL     1     -31.502  84.816  33.848  1.00  0.00    -0.326 N
ATOM      3  H3  UNL     1     -31.641  83.861  34.177  1.00  0.00     0.168 HD
HETATM    4  C3  UNL     1     -31.771  85.250  32.600  1.00  0.00     0.079 A
HETATM    5  C4  UNL     1     -32.258  84.687  31.455  1.00  0.00     0.039 A
HETATM    6  C5  UNL     1     -32.428  85.407  30.302  1.00  0.00     0.077 A
HETATM    7  C6  UNL     1     -32.089  86.741  30.322  1.00  0.00     0.246 A
HETATM    8  O3  UNL     1     -32.219  87.452  29.308  1.00  0.00    -0.268 OA
HETATM    9  N4  UNL     1     -31.602  87.310  31.461  1.00  0.00    -0.307 N
ATOM     10  H4  UNL     1     -31.354  88.299  31.465  1.00  0.00     0.170 HD
HETATM   11  C7  UNL     1     -31.445  86.580  32.580  1.00  0.00     0.139 A
HETATM   12  N5  UNL     1     -30.986  86.916  33.818  1.00  0.00    -0.309 N
HETATM   13  C8  UNL     1     -30.535  88.238  34.218  1.00  0.00     0.161 C
ENDROOT
BRANCH   1  14
HETATM   14  N2  UNL     1     -30.635  85.762  35.930  1.00  0.00    -0.013 NA
BRANCH  14  15
HETATM   15  N1  UNL     1     -30.120  84.580  36.362  1.00  0.00    -0.195 N
HETATM   16  C1  UNL     1     -30.854  83.874  37.342  1.00  0.00     0.204 C
BRANCH  15  17
HETATM   17  O1  UNL     1     -28.818  84.433  36.356  1.00  0.00    -0.275 OA
ATOM     18  H1  UNL     1     -28.400  84.241  35.524  1.00  0.00     0.246 HD
ENDBRANCH  15  17
ENDBRANCH  14  15
BRANCH  14  19
HETATM   19  O2  UNL     1     -31.739  86.022  36.706  1.00  0.00    -0.285 OA
ATOM     20  H2  UNL     1     -32.341  86.525  36.170  1.00  0.00     0.239 HD
ENDBRANCH  14  19
ENDBRANCH   1  14
TORSDOF 4
ENDMDL