MODEL 3
REMARK VINA RESULT: -7.149806427      1.845      5.516
REMARK  3 active torsions:
REMARK  status: ('A' for Active; 'I' for Inactive)
REMARK    1  A    between atoms: N4_12  and  C4_13
REMARK    2  A    between atoms: C4_13  and  C5_14
REMARK    3  A    between atoms: N6_20  and  O2_21
ROOT
HETATM    1  N1  UNL     1     -29.498  82.648  34.133  1.00  0.00    -0.234 N
ATOM      2  H11 UNL     1     -29.829  82.368  33.210  1.00  0.00     0.174 HD
ATOM      3  H12 UNL     1     -28.796  82.101  34.631  1.00  0.00     0.174 HD
HETATM    4  C1  UNL     1     -30.066  83.714  34.563  1.00  0.00     0.683 A
HETATM    5  N2  UNL     1     -29.620  84.091  35.807  1.00  0.00    -0.141 N
ATOM      6  H2  UNL     1     -28.917  83.523  36.282  1.00  0.00     0.189 HD
HETATM    7  C2  UNL     1     -30.085  85.177  36.399  1.00  0.00     0.339 A
HETATM    8  O1  UNL     1     -29.664  85.514  37.549  1.00  0.00    -0.246 OA
HETATM    9  N3  UNL     1     -31.007  85.900  35.747  1.00  0.00    -0.303 N
ATOM     10  H3  UNL     1     -31.381  86.743  36.183  1.00  0.00     0.171 HD
HETATM   11  C3  UNL     1     -31.442  85.540  34.542  1.00  0.00     0.205 A
HETATM   12  N4  UNL     1     -30.983  84.429  33.912  1.00  0.00    -0.174 N
ENDROOT
BRANCH  12  13
HETATM   13  C4  UNL     1     -31.445  84.024  32.629  1.00  0.00     0.209 C
BRANCH  13  14
HETATM   14  C5  UNL     1     -31.461  85.048  31.575  1.00  0.00     0.073 A
HETATM   15  C6  UNL     1     -30.266  85.534  31.086  1.00  0.00     0.117 A
HETATM   16  N5  UNL     1     -30.211  86.466  30.087  1.00  0.00    -0.372 N
HETATM   17  C7  UNL     1     -31.330  86.939  29.550  1.00  0.00     0.107 A
ATOM     18  H5  UNL     1     -29.307  86.800  29.753  1.00  0.00     0.164 HD
HETATM   19  C8  UNL     1     -32.527  86.466  30.024  1.00  0.00     0.140 A
HETATM   20  N6  UNL     1     -32.565  85.535  31.021  1.00  0.00    -0.236 N
BRANCH  20  21
HETATM   21  O2  UNL     1     -33.796  85.087  31.419  1.00  0.00    -0.283 OA
ATOM     22  H2  UNL     1     -34.256  84.430  30.911  1.00  0.00     0.245 HD
ENDBRANCH  20  21
ENDBRANCH  13  14
ENDBRANCH  12  13
TORSDOF 3
ENDMDL