MODEL 5
REMARK VINA RESULT: -6.574553125      2.276      5.590
REMARK  3 active torsions:
REMARK  status: ('A' for Active; 'I' for Inactive)
REMARK    1  A    between atoms: C2_2  and  C3_3
REMARK    2  A    between atoms: C3_3  and  N1_4
REMARK    3  A    between atoms: N6_18  and  O1_19
ROOT
HETATM    1  N1  UNL     1     -30.440  86.056  35.013  1.00  0.00    -0.225 NA
HETATM    2  C4  UNL     1     -31.321  87.168  35.171  1.00  0.00     0.133 C
HETATM    3  C5  UNL     1     -31.277  88.180  34.057  1.00  0.00     0.137 C
HETATM    4  N2  UNL     1     -31.713  87.714  32.787  1.00  0.00    -0.371 N
ATOM      5  H2  UNL     1     -31.959  88.473  32.151  1.00  0.00     0.161 HD
HETATM    6  C6  UNL     1     -31.868  86.550  32.256  1.00  0.00     0.166 A
HETATM    7  N3  UNL     1     -32.344  86.573  30.909  1.00  0.00    -0.172 N
ATOM      8  H3  UNL     1     -32.540  87.451  30.430  1.00  0.00     0.186 HD
HETATM    9  C7  UNL     1     -32.533  85.320  30.264  1.00  0.00     0.694 A
HETATM   10  N4  UNL     1     -32.961  85.313  29.058  1.00  0.00    -0.233 N
ATOM     11  H41 UNL     1     -33.096  84.414  28.595  1.00  0.00     0.174 HD
ATOM     12  H42 UNL     1     -33.175  86.154  28.521  1.00  0.00     0.174 HD
HETATM   13  N5  UNL     1     -32.233  84.143  31.015  1.00  0.00    -0.104 N
ATOM     14  H5  UNL     1     -32.365  83.236  30.567  1.00  0.00     0.208 HD
HETATM   15  N6  UNL     1     -31.770  84.171  32.330  1.00  0.00    -0.127 N
HETATM   16  C8  UNL     1     -31.588  85.283  32.942  1.00  0.00     0.207 A
HETATM   17  N7  UNL     1     -31.112  85.074  34.279  1.00  0.00    -0.298 N
ATOM     18  H7  UNL     1     -31.271  84.167  34.716  1.00  0.00     0.182 HD
ENDROOT
BRANCH   1  19
HETATM   19  C3  UNL     1     -30.036  85.454  36.258  1.00  0.00     0.140 C
BRANCH  19  20
HETATM   20  C2  UNL     1     -31.104  84.644  36.904  1.00  0.00    -0.021 C
HETATM   21  C1  UNL     1     -30.703  83.674  37.723  1.00  0.00     0.008 C
ENDBRANCH  19  20
ENDBRANCH   1  19
BRANCH  15  22
HETATM   22  O1  UNL     1     -31.492  82.995  33.017  1.00  0.00    -0.266 OA
ATOM     23  H1  UNL     1     -31.385  82.173  32.556  1.00  0.00     0.247 HD
ENDBRANCH  15  22
TORSDOF 3
ENDMDL