MODEL 1
REMARK VINA RESULT: -8.825655591      0.000      0.000
REMARK  8 active torsions:
REMARK  status: ('A' for Active; 'I' for Inactive)
REMARK    1  A    between atoms: C2_2  and  C3_3
REMARK    2  A    between atoms: C5_5  and  C6_6
REMARK    3  A    between atoms: C8_10  and  C9_11
REMARK    4  A    between atoms: C12_14  and  C13_15
REMARK    5  A    between atoms: C13_15  and  N2_16
REMARK    6  A    between atoms: C16_19  and  C17_20
REMARK       I    between atoms: C17_20  and  N3_22
REMARK    7  A    between atoms: C20_26  and  C21_27
REMARK    8  A    between atoms: C25_37  and  N6_38
ROOT
HETATM    1  C9  UNL     1     -99.062 -18.638  45.143  1.00  0.00     0.053 C
HETATM    2  C10 UNL     1     -98.215 -18.893  46.364  1.00  0.00     0.013 C
HETATM    3  C11 UNL     1     -96.773 -19.148  46.022  1.00  0.00     0.007 C
HETATM    4  C12 UNL     1     -96.258 -18.365  44.878  1.00  0.00     0.003 C
HETATM    5  C23 UNL     1     -97.162 -18.250  43.693  1.00  0.00     0.007 C
HETATM    6  C24 UNL     1     -98.336 -19.184  43.906  1.00  0.00     0.013 C
ENDROOT
BRANCH   1   7
HETATM    7  C8  UNL     1    -100.442 -19.114  45.244  1.00  0.00     0.085 A
HETATM    8  N1  UNL     1    -101.406 -18.863  44.331  1.00  0.00    -0.353 N
HETATM    9  C7  UNL     1    -102.549 -19.444  44.739  1.00  0.00     0.121 A
ATOM     10  H1  UNL     1    -101.287 -18.322  43.474  1.00  0.00     0.166 HD
HETATM   11  C6  UNL     1    -102.319 -20.081  45.937  1.00  0.00     0.076 A
HETATM   12  N4  UNL     1    -101.034 -19.857  46.206  1.00  0.00    -0.343 N
ATOM     13  H4  UNL     1    -100.554 -20.205  47.037  1.00  0.00     0.167 HD
BRANCH  11  14
HETATM   14  C5  UNL     1    -103.334 -20.820  46.683  1.00  0.00     0.079 A
HETATM   15  C4  UNL     1    -104.027 -20.244  47.715  1.00  0.00     0.058 A
HETATM   16  C3  UNL     1    -104.995 -20.897  48.451  1.00  0.00     0.028 A
HETATM   17  N7  UNL     1    -105.251 -22.171  48.114  1.00  0.00    -0.196 N
HETATM   18  C25 UNL     1    -104.587 -22.775  47.101  1.00  0.00     0.676 A
ATOM     19  H7  UNL     1    -105.959 -22.694  48.631  1.00  0.00     0.184 HD
HETATM   20  N5  UNL     1    -103.636 -22.098  46.394  1.00  0.00    -0.190 N
ATOM     21  H5  UNL     1    -103.146 -22.569  45.633  1.00  0.00     0.184 HD
BRANCH  16  22
HETATM   22  C2  UNL     1    -105.717 -20.217  49.563  1.00  0.00     0.053 C
HETATM   23  C1  UNL     1    -106.329 -18.911  49.081  1.00  0.00     0.011 C
ENDBRANCH  16  22
BRANCH  18  24
HETATM   24  N6  UNL     1    -104.876 -23.998  46.823  1.00  0.00    -0.234 N
ATOM     25  H62 UNL     1    -104.503 -24.733  47.425  1.00  0.00     0.174 HD
ATOM     26  H61 UNL     1    -105.464 -24.232  46.023  1.00  0.00     0.174 HD
ENDBRANCH  18  24
ENDBRANCH  11  14
ENDBRANCH   1   7
BRANCH   4  27
HETATM   27  C13 UNL     1     -94.954 -19.012  44.379  1.00  0.00     0.127 C
BRANCH  27  28
HETATM   28  N2  UNL     1     -93.962 -18.076  44.051  1.00  0.00    -0.383 N
HETATM   29  C14 UNL     1     -93.714 -17.126  45.053  1.00  0.00     0.059 C
HETATM   30  C15 UNL     1     -92.861 -15.962  44.749  1.00  0.00     0.058 C
HETATM   31  C16 UNL     1     -93.018 -15.631  43.286  1.00  0.00     0.085 C
HETATM   32  C19 UNL     1     -92.469 -16.838  42.551  1.00  0.00     0.045 C
HETATM   33  C20 UNL     1     -93.234 -18.105  42.884  1.00  0.00     0.156 C
BRANCH  31  34
HETATM   34  C17 UNL     1     -92.205 -14.457  42.891  1.00  0.00     0.221 C
HETATM   35  O1  UNL     1     -91.035 -14.606  42.485  1.00  0.00    -0.273 OA
HETATM   36  N3  UNL     1     -92.768 -13.159  42.976  1.00  0.00    -0.365 N
HETATM   37  C18 UNL     1     -91.982 -12.005  42.594  1.00  0.00     0.149 C
ATOM     38  H3  UNL     1     -93.725 -13.037  43.307  1.00  0.00     0.161 HD
ENDBRANCH  31  34
BRANCH  33  39
HETATM   39  C21 UNL     1     -93.921 -18.507  41.601  1.00  0.00     0.260 C
HETATM   40  C22 UNL     1     -93.001 -18.492  40.415  1.00  0.00     0.092 C
HETATM   41  F1  UNL     1     -94.288 -19.861  41.808  1.00  0.00    -0.204 F
HETATM   42  F2  UNL     1     -95.080 -17.872  41.322  1.00  0.00    -0.204 F
ENDBRANCH  33  39
ENDBRANCH  27  28
ENDBRANCH   4  27
TORSDOF 8
ENDMDL