MODEL 3
REMARK VINA RESULT: -7.740139463      1.372      1.664
REMARK  10 active torsions:
REMARK  status: ('A' for Active; 'I' for Inactive)
REMARK    1  A    between atoms: C2_2  and  N1_4
REMARK    2  A    between atoms: C2_2  and  N2_8
REMARK    3  A    between atoms: N2_8  and  C4_9
REMARK    4  A    between atoms: N2_8  and  C6_12
REMARK    5  A    between atoms: C4_9  and  C5_10
REMARK    6  A    between atoms: C6_12  and  C7_13
REMARK    7  A    between atoms: C7_13  and  C8_14
REMARK    8  A    between atoms: C8_14  and  C9_15
REMARK    9  A    between atoms: C9_15  and  C10_16
REMARK   10  A    between atoms: C12_18  and  C13_19
ROOT
HETATM    1  C13 UNL     1     -96.865 -18.741  45.886  1.00  0.00     0.059 A
HETATM    2  N3  UNL     1     -95.912 -19.011  44.938  1.00  0.00    -0.351 N
ATOM      3  H3  UNL     1     -96.219 -19.239  43.993  1.00  0.00     0.166 HD
HETATM    4  C14 UNL     1     -94.614 -18.990  45.189  1.00  0.00     0.182 A
HETATM    5  N4  UNL     1     -94.130 -18.701  46.400  1.00  0.00    -0.338 N
ATOM      6  H4  UNL     1     -93.125 -18.687  46.576  1.00  0.00     0.168 HD
HETATM    7  C15 UNL     1     -95.007 -18.430  47.371  1.00  0.00     0.120 A
HETATM    8  N5  UNL     1     -94.845 -18.128  48.678  1.00  0.00    -0.341 N
ATOM      9  H5  UNL     1     -93.943 -18.040  49.145  1.00  0.00     0.167 HD
HETATM   10  C16 UNL     1     -96.031 -17.960  49.275  1.00  0.00     0.046 A
HETATM   11  C17 UNL     1     -96.384 -17.671  50.577  1.00  0.00     0.053 A
HETATM   12  C18 UNL     1     -97.708 -17.581  50.942  1.00  0.00     0.046 A
HETATM   13  C19 UNL     1     -98.014 -17.273  52.314  1.00  0.00     0.099 C
HETATM   14  N6  UNL     1     -98.271 -17.009  53.406  1.00  0.00    -0.191 NA
HETATM   15  C20 UNL     1     -98.693 -17.782  50.002  1.00  0.00     0.024 A
HETATM   16  C21 UNL     1     -98.359 -18.076  48.674  1.00  0.00     0.016 A
HETATM   17  C22 UNL     1     -97.031 -18.157  48.335  1.00  0.00     0.007 A
HETATM   18  C23 UNL     1     -96.390 -18.444  47.149  1.00  0.00     0.048 A
ENDROOT
BRANCH   1  19
HETATM   19  C12 UNL     1     -98.252 -18.753  45.499  1.00  0.00     0.009 A
HETATM   20  C11 UNL     1     -99.170 -19.559  46.101  1.00  0.00     0.039 A
HETATM   21  C10 UNL     1    -100.489 -19.650  45.635  1.00  0.00     0.062 A
HETATM   22  C25 UNL     1    -100.841 -18.901  44.545  1.00  0.00     0.117 A
HETATM   23  N7  UNL     1     -99.926 -18.101  43.949  1.00  0.00    -0.351 N
HETATM   24  N8  UNL     1    -102.056 -18.987  44.117  1.00  0.00    -0.384 N
HETATM   25  C24 UNL     1     -98.660 -18.014  44.397  1.00  0.00     0.103 A
ATOM     26  H7  UNL     1    -100.204 -17.548  43.137  1.00  0.00     0.166 HD
ATOM     27  H82 UNL     1    -102.745 -19.590  44.565  1.00  0.00     0.157 HD
ATOM     28  H81 UNL     1    -102.319 -18.429  43.305  1.00  0.00     0.157 HD
BRANCH  21  29
HETATM   29  C9  UNL     1    -101.468 -20.495  46.251  1.00  0.00    -0.063 C
BRANCH  29  30
HETATM   30  C8  UNL     1    -102.287 -21.230  46.776  1.00  0.00    -0.099 C
BRANCH  30  31
HETATM   31  C7  UNL     1    -103.257 -22.142  47.415  1.00  0.00     0.124 C
BRANCH  31  32
HETATM   32  C6  UNL     1    -103.773 -21.513  48.647  1.00  0.00     0.287 C
BRANCH  32  33
HETATM   33  N2  UNL     1    -105.030 -20.868  48.626  1.00  0.00     0.126 N
BRANCH  33  34
HETATM   34  C2  UNL     1    -104.956 -19.428  48.903  1.00  0.00     0.311 C
HETATM   35  C1  UNL     1    -104.725 -18.714  47.579  1.00  0.00     0.081 C
HETATM   36  C3  UNL     1    -106.210 -18.870  49.506  1.00  0.00     0.081 C
BRANCH  34  37
HETATM   37  N1  UNL     1    -103.838 -19.090  49.741  1.00  0.00    -0.043 N
ATOM     38  H13 UNL     1    -103.105 -18.574  49.252  1.00  0.00     0.277 HD
ATOM     39  H12 UNL     1    -104.052 -18.374  50.434  1.00  0.00     0.277 HD
ATOM     40  H11 UNL     1    -103.513 -19.966  50.149  1.00  0.00     0.277 HD
ENDBRANCH  34  37
ENDBRANCH  33  34
BRANCH  33  41
HETATM   41  C4  UNL     1    -105.784 -21.398  49.778  1.00  0.00     0.290 C
BRANCH  41  42
HETATM   42  C5  UNL     1    -106.750 -22.484  49.409  1.00  0.00     0.145 C
HETATM   43 CL1  UNL     1    -105.872 -24.004  49.082  1.00  0.00    -0.129 Cl
ENDBRANCH  41  42
ENDBRANCH  33  41
ENDBRANCH  32  33
ENDBRANCH  31  32
ENDBRANCH  30  31
ENDBRANCH  29  30
ENDBRANCH  21  29
ENDBRANCH   1  19
TORSDOF 10
ENDMDL