MODEL 4
REMARK VINA RESULT: -7.007257255      2.811      5.752
REMARK  10 active torsions:
REMARK  status: ('A' for Active; 'I' for Inactive)
REMARK    1  A    between atoms: O1_2  and  C2_3
REMARK       I    between atoms: C2_3  and  N1_5
REMARK    2  A    between atoms: N1_5  and  C3_7
REMARK    3  A    between atoms: C3_7  and  C4_8
REMARK    4  A    between atoms: C4_8  and  C5_9
REMARK    5  A    between atoms: C5_9  and  C6_10
REMARK    6  A    between atoms: C6_10  and  C7_11
REMARK    7  A    between atoms: C8_12  and  C9_13
REMARK    8  A    between atoms: C9_13  and  O3_14
REMARK    9  A    between atoms: C11_17  and  O4_18
REMARK   10  A    between atoms: C16_25  and  O5_26
ROOT
HETATM    1  C9  UNL     1    -101.737 -20.442  46.912  1.00  0.00     0.082 C
HETATM    2  C10 UNL     1    -103.207 -20.122  46.801  1.00  0.00     0.074 C
HETATM    3  C11 UNL     1    -104.103 -21.191  47.354  1.00  0.00     0.122 C
HETATM    4  C12 UNL     1    -103.546 -21.857  48.555  1.00  0.00     0.048 C
HETATM    5  C13 UNL     1    -103.293 -20.768  49.588  1.00  0.00     0.075 C
HETATM    6 BR1  UNL     1    -104.715 -19.445  49.563  1.00  0.00    -0.090 Br
HETATM    7  C14 UNL     1    -101.933 -20.170  49.465  1.00  0.00     0.025 C
HETATM    8  C15 UNL     1    -102.034 -18.686  49.733  1.00  0.00     0.024 C
HETATM    9  C16 UNL     1    -101.130 -20.692  50.613  1.00  0.00     0.055 C
HETATM   10  C17 UNL     1     -99.819 -20.660  50.633  1.00  0.00    -0.054 C
HETATM   11  C18 UNL     1     -99.062 -21.207  51.829  1.00  0.00     0.046 C
HETATM   12  C19 UNL     1     -99.038 -20.108  49.530  1.00  0.00     0.037 C
HETATM   13  C20 UNL     1     -99.864 -19.707  48.345  1.00  0.00     0.013 C
HETATM   14  C21 UNL     1    -101.165 -20.525  48.251  1.00  0.00     0.040 C
ENDROOT
BRANCH   1  15
HETATM   15  C8  UNL     1    -101.044 -19.506  45.991  1.00  0.00     0.007 C
HETATM   16  C7  UNL     1    -100.755 -19.792  44.743  1.00  0.00    -0.028 C
BRANCH  16  17
HETATM   17  C6  UNL     1    -100.064 -18.870  43.812  1.00  0.00     0.027 C
BRANCH  17  18
HETATM   18  C5  UNL     1     -98.912 -18.246  44.537  1.00  0.00     0.005 C
BRANCH  18  19
HETATM   19  C4  UNL     1     -97.566 -18.720  44.031  1.00  0.00     0.020 C
BRANCH  19  20
HETATM   20  C3  UNL     1     -96.525 -18.706  45.119  1.00  0.00     0.125 C
BRANCH  20  21
HETATM   21  N1  UNL     1     -97.163 -18.467  46.381  1.00  0.00    -0.337 N
HETATM   22  C2  UNL     1     -96.577 -17.468  47.233  1.00  0.00     0.360 C
HETATM   23  O2  UNL     1     -95.562 -16.826  46.919  1.00  0.00    -0.239 OA
ATOM     24  H1  UNL     1     -97.997 -18.982  46.663  1.00  0.00     0.164 HD
BRANCH  22  25
HETATM   25  O1  UNL     1     -97.171 -17.217  48.453  1.00  0.00    -0.309 OA
HETATM   26  C1  UNL     1     -96.497 -17.465  49.683  1.00  0.00     0.215 C
ENDBRANCH  22  25
ENDBRANCH  20  21
ENDBRANCH  19  20
ENDBRANCH  18  19
ENDBRANCH  17  18
ENDBRANCH  16  17
ENDBRANCH   1  15
BRANCH   1  27
HETATM   27  O3  UNL     1    -101.630 -21.697  46.239  1.00  0.00    -0.385 OA
ATOM     28  H3  UNL     1    -102.230 -21.603  45.509  1.00  0.00     0.211 HD
ENDBRANCH   1  27
BRANCH   3  29
HETATM   29  O4  UNL     1    -104.392 -22.190  46.402  1.00  0.00    -0.395 OA
ATOM     30  H4  UNL     1    -104.062 -23.042  46.663  1.00  0.00     0.210 HD
ENDBRANCH   3  29
BRANCH   9  31
HETATM   31  O5  UNL     1    -101.749 -21.249  51.742  1.00  0.00    -0.364 OA
ATOM     32  H5  UNL     1    -101.489 -21.000  52.622  1.00  0.00     0.217 HD
ENDBRANCH   9  31
TORSDOF 10
ENDMDL