MODEL 3
REMARK VINA RESULT: -7.318483570      1.248      1.525
REMARK  10 active torsions:
REMARK  status: ('A' for Active; 'I' for Inactive)
REMARK    1  A    between atoms: C2_2  and  C4_4
REMARK    2  A    between atoms: C7_7  and  O1_8
REMARK    3  A    between atoms: C9_11  and  C10_12
REMARK    4  A    between atoms: C13_15  and  O2_16
REMARK    5  A    between atoms: O2_16  and  C14_17
REMARK    6  A    between atoms: C14_17  and  C15_18
REMARK    7  A    between atoms: C15_18  and  C18_21
REMARK    8  A    between atoms: C18_21  and  O3_23
REMARK    9  A    between atoms: C22_28  and  O4_29
REMARK   10  A    between atoms: C23_31  and  O5_32
ROOT
HETATM    1  C4  UNL     1     -94.448 -17.414  48.658  1.00  0.00     0.029 C
HETATM    2  C5  UNL     1     -93.864 -16.564  47.547  1.00  0.00     0.011 C
HETATM    3  C6  UNL     1     -94.746 -16.820  46.310  1.00  0.00     0.041 C
HETATM    4  C7  UNL     1     -95.422 -18.038  46.692  1.00  0.00     0.092 C
HETATM    5  C8  UNL     1     -96.733 -18.441  46.193  1.00  0.00     0.053 C
HETATM    6  C9  UNL     1     -97.074 -19.496  47.265  1.00  0.00     0.053 C
HETATM    7  C22 UNL     1     -96.436 -18.989  48.543  1.00  0.00     0.164 C
HETATM    8  C23 UNL     1     -95.800 -17.712  48.158  1.00  0.00     0.119 C
ENDROOT
BRANCH   6   9
HETATM    9  C10 UNL     1     -98.489 -19.802  47.350  1.00  0.00    -0.050 A
HETATM   10  C11 UNL     1     -99.278 -19.582  46.242  1.00  0.00     0.010 A
HETATM   11  C12 UNL     1    -100.604 -19.823  46.178  1.00  0.00     0.039 A
HETATM   12  C13 UNL     1    -101.255 -20.339  47.313  1.00  0.00     0.086 A
HETATM   13  C20 UNL     1    -100.460 -20.567  48.448  1.00  0.00     0.044 A
HETATM   14 BR1  UNL     1    -101.327 -21.274  50.016  1.00  0.00    -0.048 Br
HETATM   15  C21 UNL     1     -99.124 -20.304  48.455  1.00  0.00     0.029 A
BRANCH  12  16
HETATM   16  O2  UNL     1    -102.518 -20.605  47.347  1.00  0.00    -0.349 OA
BRANCH  16  17
HETATM   17  C14 UNL     1    -103.780 -20.871  47.380  1.00  0.00     0.187 C
BRANCH  17  18
HETATM   18  C15 UNL     1    -104.680 -20.323  48.471  1.00  0.00    -0.000 C
HETATM   19  C16 UNL     1    -106.009 -20.005  47.810  1.00  0.00     0.020 C
HETATM   20  C17 UNL     1    -104.065 -19.035  49.038  1.00  0.00     0.020 C
BRANCH  18  21
HETATM   21  C18 UNL     1    -104.925 -21.235  49.618  1.00  0.00     0.124 C
HETATM   22  C19 UNL     1    -106.186 -22.070  49.486  1.00  0.00     0.040 C
BRANCH  21  23
HETATM   23  O3  UNL     1    -104.805 -20.683  50.868  1.00  0.00    -0.395 OA
ATOM     24  H3  UNL     1    -103.983 -20.244  51.057  1.00  0.00     0.210 HD
ENDBRANCH  21  23
ENDBRANCH  18  21
ENDBRANCH  17  18
ENDBRANCH  16  17
ENDBRANCH  12  16
ENDBRANCH   6   9
BRANCH   7  25
HETATM   25  O4  UNL     1     -95.554 -19.919  49.083  1.00  0.00    -0.392 OA
ATOM     26  H4  UNL     1     -94.658 -19.752  48.814  1.00  0.00     0.210 HD
ENDBRANCH   7  25
BRANCH   4  27
HETATM   27  O1  UNL     1     -94.564 -19.123  46.709  1.00  0.00    -0.387 OA
ATOM     28  H1  UNL     1     -93.663 -18.866  46.554  1.00  0.00     0.210 HD
ENDBRANCH   4  27
BRANCH   8  29
HETATM   29  O5  UNL     1     -96.598 -16.605  48.230  1.00  0.00    -0.384 OA
ATOM     30  H5  UNL     1     -96.342 -16.051  48.959  1.00  0.00     0.210 HD
ENDBRANCH   8  29
BRANCH   1  31
HETATM   31  C2  UNL     1     -94.451 -16.729  49.985  1.00  0.00    -0.016 C
HETATM   32  C1  UNL     1     -93.623 -15.504  50.093  1.00  0.00     0.010 C
HETATM   33  C3  UNL     1     -94.117 -17.663  51.125  1.00  0.00     0.010 C
ENDBRANCH   1  31
TORSDOF 10
ENDMDL