MODEL 5
REMARK VINA RESULT: -8.226706761      0.800      1.476
REMARK  8 active torsions:
REMARK  status: ('A' for Active; 'I' for Inactive)
REMARK    1  A    between atoms: O1_2  and  C2_3
REMARK    2  A    between atoms: C5_6  and  O2_7
REMARK    3  A    between atoms: O2_7  and  C6_8
REMARK    4  A    between atoms: C6_8  and  C7_9
REMARK    5  A    between atoms: C7_9  and  C8_10
REMARK    6  A    between atoms: C8_10  and  N1_11
REMARK    7  A    between atoms: C20_26  and  N3_27
REMARK    8  A    between atoms: C21_32  and  N5_33
ROOT
HETATM    1  C2  UNL     1     -96.770 -18.665  45.804  1.00  0.00     0.095 A
HETATM    2  C3  UNL     1     -98.138 -18.958  45.847  1.00  0.00     0.011 A
HETATM    3  C4  UNL     1     -98.773 -19.262  47.045  1.00  0.00     0.053 A
HETATM    4  C5  UNL     1    -100.116 -19.557  47.109  1.00  0.00     0.087 A
HETATM    5  C15 UNL     1    -100.816 -19.538  45.925  1.00  0.00     0.045 A
HETATM    6 BR1  UNL     1    -102.694 -19.928  45.864  1.00  0.00    -0.048 Br
HETATM    7  C16 UNL     1    -100.214 -19.240  44.719  1.00  0.00     0.034 A
HETATM    8  C17 UNL     1     -98.865 -18.951  44.704  1.00  0.00    -0.019 A
HETATM    9  C18 UNL     1     -98.295 -18.661  43.476  1.00  0.00     0.043 A
HETATM   10  C19 UNL     1     -96.946 -18.376  43.438  1.00  0.00     0.066 A
HETATM   11  N2  UNL     1     -96.441 -18.123  42.224  1.00  0.00    -0.191 N
ATOM     12  H2  UNL     1     -97.030 -18.125  41.391  1.00  0.00     0.184 HD
HETATM   13  C20 UNL     1     -95.120 -17.865  42.155  1.00  0.00     0.677 A
HETATM   14  N4  UNL     1     -94.352 -17.861  43.236  1.00  0.00    -0.176 N
ATOM     15  H4  UNL     1     -93.359 -17.660  43.117  1.00  0.00     0.186 HD
HETATM   16  C21 UNL     1     -94.809 -18.112  44.504  1.00  0.00     0.130 A
HETATM   17  C22 UNL     1     -96.174 -18.379  44.607  1.00  0.00     0.070 A
ENDROOT
BRANCH   4  18
HETATM   18  O2  UNL     1    -100.707 -19.849  48.291  1.00  0.00    -0.350 OA
BRANCH  18  19
HETATM   19  C6  UNL     1    -100.158 -20.645  49.310  1.00  0.00     0.177 C
BRANCH  19  20
HETATM   20  C7  UNL     1    -101.273 -21.292  50.117  1.00  0.00     0.057 C
BRANCH  20  21
HETATM   21  C8  UNL     1    -102.331 -21.732  49.170  1.00  0.00     0.274 C
BRANCH  21  22
HETATM   22  N1  UNL     1    -103.546 -20.987  49.217  1.00  0.00     0.088 N
HETATM   23  C9  UNL     1    -104.631 -21.944  48.993  1.00  0.00     0.272 C
HETATM   24  C10 UNL     1    -105.955 -21.440  49.447  1.00  0.00     0.034 C
HETATM   25  C11 UNL     1    -106.006 -19.937  49.379  1.00  0.00    -0.015 C
HETATM   26  C12 UNL     1    -105.804 -19.501  47.965  1.00  0.00     0.010 C
HETATM   27  C13 UNL     1    -104.972 -19.395  50.324  1.00  0.00     0.034 C
HETATM   28  C14 UNL     1    -103.746 -20.258  50.427  1.00  0.00     0.272 C
ENDBRANCH  21  22
ENDBRANCH  20  21
ENDBRANCH  19  20
ENDBRANCH  18  19
ENDBRANCH   4  18
BRANCH   1  29
HETATM   29  O1  UNL     1     -96.102 -18.682  47.012  1.00  0.00    -0.354 OA
HETATM   30  C1  UNL     1     -96.219 -17.483  47.819  1.00  0.00     0.210 C
ENDBRANCH   1  29
BRANCH  16  31
HETATM   31  N5  UNL     1     -94.055 -18.150  45.454  1.00  0.00    -0.384 N
ATOM     32  H52 UNL     1     -93.120 -17.741  45.438  1.00  0.00     0.157 HD
ATOM     33  H51 UNL     1     -94.338 -18.559  46.345  1.00  0.00     0.157 HD
ENDBRANCH  16  31
BRANCH  13  34
HETATM   34  N3  UNL     1     -94.638 -17.618  40.962  1.00  0.00    -0.234 N
ATOM     35  H32 UNL     1     -94.759 -18.269  40.187  1.00  0.00     0.174 HD
ATOM     36  H31 UNL     1     -94.134 -16.738  40.851  1.00  0.00     0.174 HD
ENDBRANCH  13  34
TORSDOF 8
ENDMDL