MODEL 1
REMARK VINA RESULT: -7.929788253      0.000      0.000
REMARK  8 active torsions:
REMARK  status: ('A' for Active; 'I' for Inactive)
REMARK    1  A    between atoms: C2_2  and  C3_3
REMARK    2  A    between atoms: C3_3  and  C4_4
REMARK    3  A    between atoms: C3_3  and  C7_7
REMARK    4  A    between atoms: C7_7  and  C9_9
REMARK    5  A    between atoms: C12_13  and  N1_14
REMARK    6  A    between atoms: N1_14  and  C13_16
REMARK    7  A    between atoms: C14_19  and  N3_20
REMARK    8  A    between atoms: C21_34  and  S1_35
ROOT
HETATM    1  C9  UNL     1     -95.116 -18.636  44.776  1.00  0.00    -0.011 A
HETATM    2  C10 UNL     1     -95.587 -19.020  43.480  1.00  0.00     0.044 A
HETATM    3 CL1  UNL     1     -94.408 -19.526  42.249  1.00  0.00    -0.084 Cl
HETATM    4  C11 UNL     1     -96.876 -19.029  43.105  1.00  0.00     0.054 A
HETATM    5  C12 UNL     1     -97.816 -18.639  44.036  1.00  0.00     0.052 A
HETATM    6  C20 UNL     1     -97.403 -18.267  45.265  1.00  0.00     0.054 A
HETATM    7  C21 UNL     1     -96.027 -18.246  45.692  1.00  0.00     0.069 A
ENDROOT
BRANCH   5   8
HETATM    8  N1  UNL     1     -99.191 -18.641  43.683  1.00  0.00    -0.192 N
ATOM      9  H1  UNL     1     -99.405 -18.339  42.732  1.00  0.00     0.184 HD
BRANCH   8  10
HETATM   10  C13 UNL     1    -100.180 -18.966  44.389  1.00  0.00     0.684 A
HETATM   11  N2  UNL     1    -101.439 -18.847  43.977  1.00  0.00    -0.176 N
HETATM   12  C14 UNL     1    -102.425 -19.260  44.795  1.00  0.00     0.127 A
ATOM     13  H2  UNL     1    -101.653 -18.452  43.061  1.00  0.00     0.186 HD
HETATM   14  C15 UNL     1    -102.172 -19.799  46.038  1.00  0.00     0.042 A
HETATM   15  C16 UNL     1    -103.156 -20.230  46.897  1.00  0.00     0.035 A
HETATM   16  C19 UNL     1    -100.862 -19.912  46.441  1.00  0.00     0.131 A
HETATM   17  C17 UNL     1    -102.828 -20.771  48.148  1.00  0.00     0.092 A
HETATM   18  N4  UNL     1    -101.548 -20.872  48.519  1.00  0.00    -0.332 N
HETATM   19  C18 UNL     1    -100.572 -20.455  47.694  1.00  0.00     0.273 A
ATOM     20  H4  UNL     1    -101.312 -21.265  49.431  1.00  0.00     0.168 HD
HETATM   21  O1  UNL     1     -99.374 -20.552  48.048  1.00  0.00    -0.266 OA
HETATM   22  N5  UNL     1     -99.880 -19.498  45.625  1.00  0.00    -0.185 N
ATOM     23  H5  UNL     1     -98.907 -19.578  45.920  1.00  0.00     0.184 HD
BRANCH  12  24
HETATM   24  N3  UNL     1    -103.638 -19.139  44.394  1.00  0.00    -0.384 N
ATOM     25  H32 UNL     1    -103.885 -18.376  43.765  1.00  0.00     0.157 HD
ATOM     26  H31 UNL     1    -104.324 -19.820  44.720  1.00  0.00     0.157 HD
ENDBRANCH  12  24
ENDBRANCH   8  10
ENDBRANCH   5   8
BRANCH   7  27
HETATM   27  S1  UNL     1     -95.791 -17.631  47.229  1.00  0.00     0.172 S
HETATM   28  C22 UNL     1     -95.569 -18.716  48.604  1.00  0.00     0.167 C
HETATM   29  O2  UNL     1     -97.114 -16.911  47.695  1.00  0.00    -0.223 OA
HETATM   30  O3  UNL     1     -94.936 -16.389  47.373  1.00  0.00    -0.223 OA
ENDBRANCH   7  27
BRANCH   1  31
HETATM   31  C7  UNL     1     -93.659 -18.508  44.907  1.00  0.00     0.022 C
HETATM   32  C8  UNL     1     -93.400 -17.019  44.647  1.00  0.00     0.015 C
BRANCH  31  33
HETATM   33  C3  UNL     1     -92.976 -19.067  46.089  1.00  0.00    -0.003 C
BRANCH  33  34
HETATM   34  C2  UNL     1     -92.117 -20.257  45.611  1.00  0.00     0.001 C
HETATM   35  C1  UNL     1     -92.178 -20.828  44.296  1.00  0.00     0.005 C
ENDBRANCH  33  34
BRANCH  33  36
HETATM   36  C4  UNL     1     -91.917 -18.167  46.691  1.00  0.00    -0.018 C
HETATM   37  C5  UNL     1     -90.515 -18.387  46.257  1.00  0.00     0.010 C
HETATM   38  C6  UNL     1     -91.993 -18.028  48.209  1.00  0.00     0.010 C
ENDBRANCH  33  36
ENDBRANCH  31  33
ENDBRANCH   1  31
TORSDOF 8
ENDMDL