MODEL 4
REMARK VINA RESULT: -7.942766010      2.917      4.223
REMARK  7 active torsions:
REMARK  status: ('A' for Active; 'I' for Inactive)
REMARK       I    between atoms: C2_2  and  N1_4
REMARK    1  A    between atoms: N1_4  and  C3_6
REMARK    2  A    between atoms: C3_6  and  C4_7
REMARK    3  A    between atoms: C4_7  and  C5_8
REMARK    4  A    between atoms: C10_16  and  S1_17
REMARK    5  A    between atoms: S1_17  and  C11_20
REMARK    6  A    between atoms: C13_22  and  O4_23
REMARK    7  A    between atoms: C14_27  and  C15_28
ROOT
HETATM    1  C5  UNL     1     -97.967 -19.012  45.501  1.00  0.00    -0.029 A
HETATM    2  C6  UNL     1     -96.702 -19.141  46.030  1.00  0.00     0.096 A
HETATM    3  N2  UNL     1     -96.867 -19.734  47.245  1.00  0.00    -0.365 N
ATOM      4  H2  UNL     1     -96.119 -19.969  47.897  1.00  0.00     0.165 HD
HETATM    5  C7  UNL     1     -98.167 -19.958  47.440  1.00  0.00     0.044 A
HETATM    6  C8  UNL     1     -98.873 -20.494  48.525  1.00  0.00     0.051 A
HETATM    7  C9  UNL     1    -100.248 -20.578  48.529  1.00  0.00     0.035 A
HETATM    8 BR1  UNL     1    -101.119 -21.292  50.041  1.00  0.00    -0.049 Br
HETATM    9  C10 UNL     1    -100.946 -20.129  47.440  1.00  0.00     0.082 A
HETATM   10  C18 UNL     1    -100.277 -19.592  46.330  1.00  0.00     0.039 A
HETATM   11  C19 UNL     1     -98.905 -19.520  46.367  1.00  0.00    -0.000 A
ENDROOT
BRANCH   9  12
HETATM   12  S1  UNL     1    -102.672 -19.950  47.436  1.00  0.00     0.210 S
HETATM   13  O2  UNL     1    -102.966 -19.414  45.956  1.00  0.00    -0.217 OA
HETATM   14  O3  UNL     1    -102.996 -18.778  48.236  1.00  0.00    -0.217 OA
BRANCH  12  15
HETATM   15  C11 UNL     1    -103.617 -21.365  47.503  1.00  0.00     0.095 A
HETATM   16  C12 UNL     1    -103.377 -22.502  46.773  1.00  0.00     0.082 A
HETATM   17  C13 UNL     1    -104.439 -23.341  46.897  1.00  0.00     0.141 A
HETATM   18  N3  UNL     1    -105.318 -22.720  47.698  1.00  0.00    -0.336 N
HETATM   19  C14 UNL     1    -104.895 -21.520  48.110  1.00  0.00     0.058 A
ATOM     20  H3  UNL     1    -106.217 -23.121  47.966  1.00  0.00     0.168 HD
BRANCH  17  21
HETATM   21  O4  UNL     1    -104.614 -24.596  46.324  1.00  0.00    -0.346 OA
ATOM     22  H4  UNL     1    -105.339 -25.199  46.443  1.00  0.00     0.219 HD
ENDBRANCH  17  21
BRANCH  19  23
HETATM   23  C15 UNL     1    -105.444 -20.630  49.150  1.00  0.00    -0.059 C
HETATM   24  C16 UNL     1    -106.258 -19.484  48.652  1.00  0.00     0.045 C
HETATM   25  C17 UNL     1    -104.787 -20.558  50.466  1.00  0.00     0.045 C
ENDBRANCH  19  23
ENDBRANCH  12  15
ENDBRANCH   9  12
BRANCH   1  26
HETATM   26  C4  UNL     1     -98.333 -18.455  44.144  1.00  0.00     0.060 C
BRANCH  26  27
HETATM   27  C3  UNL     1     -97.318 -19.069  43.166  1.00  0.00     0.127 C
BRANCH  27  28
HETATM   28  N1  UNL     1     -96.563 -18.002  42.551  1.00  0.00    -0.361 N
HETATM   29  C2  UNL     1     -95.161 -17.921  42.675  1.00  0.00     0.213 C
HETATM   30  C1  UNL     1     -94.430 -16.787  42.016  1.00  0.00     0.117 C
HETATM   31  O1  UNL     1     -94.477 -18.756  43.317  1.00  0.00    -0.274 OA
ATOM     32  H1  UNL     1     -97.057 -17.288  42.014  1.00  0.00     0.162 HD
ENDBRANCH  27  28
ENDBRANCH  26  27
ENDBRANCH   1  26
TORSDOF 7
ENDMDL