MODEL 1
REMARK VINA RESULT: -8.415830392      0.000      0.000
REMARK  9 active torsions:
REMARK  status: ('A' for Active; 'I' for Inactive)
REMARK    1  A    between atoms: C2_2  and  C3_3
REMARK    2  A    between atoms: C3_3  and  C4_4
REMARK    3  A    between atoms: C4_4  and  C5_5
REMARK    4  A    between atoms: C5_5  and  C6_6
REMARK    5  A    between atoms: C7_10  and  C8_11
REMARK    6  A    between atoms: C9_13  and  O1_14
REMARK    7  A    between atoms: C10_16  and  O2_17
REMARK    8  A    between atoms: C11_19  and  O3_20
REMARK    9  A    between atoms: N2_29  and  C19_30
ROOT
HETATM    1  C4  UNL     1    -100.535 -19.086  49.331  1.00  0.00    -0.005 C
HETATM    2  C12 UNL     1    -100.622 -17.618  49.889  1.00  0.00     0.015 C
HETATM    3  C13 UNL     1    -100.165 -17.799  51.308  1.00  0.00     0.002 C
HETATM    4  C14 UNL     1     -99.481 -19.139  51.413  1.00  0.00     0.020 C
HETATM    5  C15 UNL     1     -99.192 -19.449  49.946  1.00  0.00     0.052 C
HETATM    6  C16 UNL     1     -98.727 -20.831  49.683  1.00  0.00     0.022 C
HETATM    7  C17 UNL     1     -97.770 -21.198  50.819  1.00  0.00     0.022 C
HETATM    8  C18 UNL     1     -96.574 -20.290  50.839  1.00  0.00     0.132 C
HETATM    9  N2  UNL     1     -96.810 -18.987  50.263  1.00  0.00    -0.317 N
HETATM   10  C27 UNL     1     -98.050 -18.608  49.602  1.00  0.00     0.234 C
HETATM   11  O4  UNL     1     -97.924 -17.631  48.857  1.00  0.00    -0.272 OA
ENDROOT
BRANCH   1  12
HETATM   12  C3  UNL     1    -100.478 -19.055  47.872  1.00  0.00    -0.020 C
BRANCH  12  13
HETATM   13  C2  UNL     1    -100.763 -20.182  47.000  1.00  0.00    -0.034 C
HETATM   14  C1  UNL     1    -101.807 -20.180  45.956  1.00  0.00     0.036 C
ENDBRANCH  12  13
ENDBRANCH   1  12
BRANCH   1  15
HETATM   15  C5  UNL     1    -101.672 -19.679  50.023  1.00  0.00     0.050 C
BRANCH  15  16
HETATM   16  C6  UNL     1    -103.066 -19.696  49.653  1.00  0.00     0.218 C
HETATM   17  N1  UNL     1    -103.384 -21.122  49.250  1.00  0.00    -0.059 N
HETATM   18  C7  UNL     1    -104.451 -21.086  48.315  1.00  0.00     0.245 C
ATOM     19  H12 UNL     1    -102.568 -21.623  48.898  1.00  0.00     0.278 HD
ATOM     20  H11 UNL     1    -103.580 -21.723  50.051  1.00  0.00     0.278 HD
HETATM   21  C9  UNL     1    -105.691 -20.551  48.944  1.00  0.00     0.182 C
HETATM   22  C10 UNL     1    -105.452 -19.247  49.667  1.00  0.00     0.179 C
HETATM   23  C11 UNL     1    -104.187 -19.395  50.566  1.00  0.00     0.180 C
BRANCH  18  24
HETATM   24  C8  UNL     1    -104.682 -22.471  47.763  1.00  0.00     0.257 C
HETATM   25  F1  UNL     1    -103.998 -22.700  46.593  1.00  0.00    -0.253 F
ENDBRANCH  18  24
BRANCH  21  26
HETATM   26  O1  UNL     1    -106.248 -21.515  49.773  1.00  0.00    -0.391 OA
ATOM     27  H1  UNL     1    -106.664 -21.096  50.517  1.00  0.00     0.210 HD
ENDBRANCH  21  26
BRANCH  22  28
HETATM   28  O2  UNL     1    -106.543 -19.004  50.490  1.00  0.00    -0.390 OA
ATOM     29  H2  UNL     1    -106.475 -18.113  50.814  1.00  0.00     0.210 HD
ENDBRANCH  22  28
BRANCH  23  30
HETATM   30  O3  UNL     1    -104.481 -20.556  51.320  1.00  0.00    -0.391 OA
ATOM     31  H3  UNL     1    -104.861 -20.291  52.150  1.00  0.00     0.210 HD
ENDBRANCH  23  30
ENDBRANCH  15  16
ENDBRANCH   1  15
BRANCH   9  32
HETATM   32  C19 UNL     1     -95.754 -18.053  50.356  1.00  0.00     0.038 A
HETATM   33  C20 UNL     1     -94.644 -18.221  49.565  1.00  0.00     0.036 A
HETATM   34  C21 UNL     1     -93.570 -17.359  49.591  1.00  0.00    -0.059 A
HETATM   35  C22 UNL     1     -92.372 -17.555  48.726  1.00  0.00     0.048 C
HETATM   36  C23 UNL     1     -93.593 -16.279  50.437  1.00  0.00     0.013 A
HETATM   37  C24 UNL     1     -94.685 -16.081  51.241  1.00  0.00    -0.059 A
HETATM   38  C25 UNL     1     -94.740 -14.931  52.160  1.00  0.00     0.048 C
HETATM   39  C26 UNL     1     -95.753 -16.953  51.204  1.00  0.00     0.036 A
ENDBRANCH   9  32
TORSDOF 9
ENDMDL