MODEL 3
REMARK VINA RESULT: -7.784147146      3.010      4.481
REMARK  10 active torsions:
REMARK  status: ('A' for Active; 'I' for Inactive)
REMARK    1  A    between atoms: O1_2  and  C2_3
REMARK    2  A    between atoms: C3_4  and  O2_5
REMARK    3  A    between atoms: O2_5  and  C4_6
REMARK    4  A    between atoms: C9_13  and  N2_14
REMARK    5  A    between atoms: N2_14  and  N3_16
REMARK    6  A    between atoms: N3_16  and  C10_18
REMARK    7  A    between atoms: C10_18  and  O3_19
REMARK    8  A    between atoms: C10_18  and  C11_21
REMARK    9  A    between atoms: C15_26  and  C16_27
REMARK   10  A    between atoms: C16_27  and  N4_28
ROOT
HETATM    1  N2  UNL     1     -98.751 -18.206  43.866  1.00  0.00    -0.130 N
ATOM      2  H2  UNL     1     -98.818 -17.194  43.753  1.00  0.00     0.205 HD
ENDROOT
BRANCH   1   3
HETATM    3  C9  UNL     1     -99.507 -18.784  44.743  1.00  0.00     0.698 A
HETATM    4  N1  UNL     1    -100.799 -19.126  44.646  1.00  0.00    -0.188 N
HETATM    5  C8  UNL     1    -101.241 -19.709  45.769  1.00  0.00     0.080 A
ATOM      6  H1  UNL     1    -101.375 -18.963  43.820  1.00  0.00     0.184 HD
HETATM    7  C7  UNL     1    -102.476 -20.235  46.172  1.00  0.00     0.072 A
HETATM    8  C19 UNL     1    -100.168 -19.736  46.621  1.00  0.00     0.085 A
HETATM    9  C3  UNL     1    -102.686 -20.794  47.410  1.00  0.00     0.105 A
HETATM   10  C2  UNL     1    -101.564 -20.809  48.266  1.00  0.00     0.109 A
HETATM   11  C20 UNL     1    -100.354 -20.292  47.867  1.00  0.00     0.004 A
HETATM   12  C21 UNL     1     -99.186 -20.323  48.800  1.00  0.00     0.054 C
HETATM   13  N5  UNL     1     -99.132 -19.172  45.980  1.00  0.00    -0.188 N
ATOM     14  H5  UNL     1     -98.198 -19.053  46.371  1.00  0.00     0.184 HD
BRANCH   9  15
HETATM   15  O2  UNL     1    -103.858 -21.328  47.879  1.00  0.00    -0.344 OA
BRANCH  15  16
HETATM   16  C4  UNL     1    -104.096 -22.694  48.017  1.00  0.00     0.121 C
HETATM   17  C5  UNL     1    -105.431 -22.972  48.698  1.00  0.00     0.040 C
HETATM   18  C6  UNL     1    -104.125 -23.395  46.661  1.00  0.00     0.040 C
ENDBRANCH  15  16
ENDBRANCH   9  15
BRANCH  10  19
HETATM   19  O1  UNL     1    -101.738 -21.368  49.527  1.00  0.00    -0.352 OA
HETATM   20  C1  UNL     1    -102.166 -20.655  50.652  1.00  0.00     0.210 C
ENDBRANCH  10  19
ENDBRANCH   1   3
BRANCH   1  21
HETATM   21  N3  UNL     1     -97.848 -18.912  43.070  1.00  0.00    -0.265 N
ATOM     22  H3  UNL     1     -98.129 -19.798  42.651  1.00  0.00     0.189 HD
BRANCH  21  23
HETATM   23  C10 UNL     1     -96.577 -18.419  42.844  1.00  0.00     0.166 C
BRANCH  23  24
HETATM   24  O3  UNL     1     -96.565 -17.394  42.025  1.00  0.00    -0.344 OA
ATOM     25  H3  UNL     1     -95.734 -16.935  42.020  1.00  0.00     0.219 HD
ENDBRANCH  23  24
BRANCH  23  26
HETATM   26  C11 UNL     1     -95.295 -18.823  43.333  1.00  0.00     0.024 A
HETATM   27  C12 UNL     1     -94.405 -19.442  42.440  1.00  0.00     0.035 A
HETATM   28  C13 UNL     1     -93.168 -19.908  42.809  1.00  0.00     0.012 A
HETATM   29 BR1  UNL     1     -92.072 -20.727  41.489  1.00  0.00    -0.051 Br
HETATM   30  C14 UNL     1     -92.754 -19.772  44.112  1.00  0.00     0.028 A
HETATM   31  C15 UNL     1     -93.582 -19.180  45.004  1.00  0.00    -0.025 A
HETATM   32  C17 UNL     1     -94.849 -18.704  44.615  1.00  0.00    -0.040 A
HETATM   33  C18 UNL     1     -95.677 -18.045  45.631  1.00  0.00     0.050 C
BRANCH  31  34
HETATM   34  C16 UNL     1     -93.168 -19.009  46.426  1.00  0.00     0.268 C
BRANCH  34  35
HETATM   35  N4  UNL     1     -92.264 -20.130  46.740  1.00  0.00    -0.075 N
ATOM     36  H43 UNL     1     -92.497 -20.603  47.613  1.00  0.00     0.274 HD
ATOM     37  H42 UNL     1     -92.388 -20.932  46.122  1.00  0.00     0.274 HD
ATOM     38  H41 UNL     1     -91.316 -19.753  46.726  1.00  0.00     0.274 HD
ENDBRANCH  34  35
ENDBRANCH  31  34
ENDBRANCH  23  26
ENDBRANCH  21  23
ENDBRANCH   1  21
TORSDOF 10
ENDMDL