MODEL 4
REMARK VINA RESULT: -7.895652418      3.657      7.575
REMARK  9 active torsions:
REMARK  status: ('A' for Active; 'I' for Inactive)
REMARK    1  A    between atoms: N1_2  and  C2_4
REMARK    2  A    between atoms: C3_7  and  N3_8
REMARK    3  A    between atoms: N3_8  and  C4_10
REMARK    4  A    between atoms: C4_10  and  C5_11
REMARK    5  A    between atoms: C5_11  and  C7_13
REMARK    6  A    between atoms: C16_27  and  N6_28
REMARK    7  A    between atoms: N6_28  and  C17_30
REMARK    8  A    between atoms: C20_33  and  O1_34
REMARK    9  A    between atoms: C22_36  and  O2_37
ROOT
HETATM    1  C2  UNL     1     -98.968 -18.787  44.667  1.00  0.00     0.706 A
HETATM    2  N2  UNL     1     -98.436 -19.093  45.847  1.00  0.00    -0.022 N
ATOM      3  H2  UNL     1     -97.436 -18.928  45.966  1.00  0.00     0.203 HD
HETATM    4  C3  UNL     1     -99.118 -19.610  46.912  1.00  0.00     0.707 A
HETATM    5  N5  UNL     1    -100.431 -19.812  46.717  1.00  0.00    -0.021 N
ATOM      6  H5  UNL     1    -100.985 -20.196  47.482  1.00  0.00     0.203 HD
HETATM    7  C16 UNL     1    -101.055 -19.525  45.538  1.00  0.00     0.711 A
HETATM    8  N7  UNL     1    -100.332 -19.025  44.544  1.00  0.00    -0.021 N
ATOM      9  H7  UNL     1    -100.793 -18.807  43.661  1.00  0.00     0.203 HD
ENDROOT
BRANCH   4  10
HETATM   10  N3  UNL     1     -98.457 -19.816  47.929  1.00  0.00    -0.224 N
ATOM     11  H3  UNL     1     -98.046 -18.976  48.337  1.00  0.00     0.177 HD
BRANCH  10  12
HETATM   12  C4  UNL     1     -98.155 -21.033  48.650  1.00  0.00     0.147 C
BRANCH  12  13
HETATM   13  C5  UNL     1     -98.024 -20.611  50.150  1.00  0.00     0.036 C
HETATM   14  C6  UNL     1     -97.864 -19.055  49.935  1.00  0.00     0.017 C
BRANCH  13  15
HETATM   15  C7  UNL     1     -99.164 -20.816  50.987  1.00  0.00    -0.018 A
HETATM   16  C8  UNL     1     -99.063 -21.531  52.229  1.00  0.00     0.013 A
HETATM   17  C9  UNL     1     -97.830 -22.298  52.570  1.00  0.00     0.068 C
HETATM   18  N4  UNL     1    -100.213 -21.374  52.823  1.00  0.00    -0.359 N
HETATM   19  C10 UNL     1    -101.075 -20.628  52.108  1.00  0.00     0.043 A
ATOM     20  H4  UNL     1    -100.435 -21.774  53.735  1.00  0.00     0.166 HD
HETATM   21  C11 UNL     1    -102.352 -20.170  52.338  1.00  0.00     0.033 A
HETATM   22  C15 UNL     1    -100.414 -20.265  50.927  1.00  0.00     0.002 A
HETATM   23  C12 UNL     1    -103.010 -19.361  51.450  1.00  0.00     0.044 A
HETATM   24  C13 UNL     1    -102.391 -18.973  50.272  1.00  0.00     0.117 A
HETATM   25  F1  UNL     1    -102.998 -18.141  49.362  1.00  0.00    -0.206 F
HETATM   26  C14 UNL     1    -101.117 -19.435  50.041  1.00  0.00     0.056 A
ENDBRANCH  13  15
ENDBRANCH  12  13
ENDBRANCH  10  12
ENDBRANCH   4  10
BRANCH   1  27
HETATM   27  N1  UNL     1     -98.417 -18.420  43.613  1.00  0.00    -0.229 N
HETATM   28  C1  UNL     1     -97.063 -18.613  43.220  1.00  0.00     0.165 C
ATOM     29  H1  UNL     1     -99.008 -17.920  42.950  1.00  0.00     0.177 HD
ENDBRANCH   1  27
BRANCH   7  30
HETATM   30  N6  UNL     1    -102.313 -19.757  45.413  1.00  0.00    -0.191 N
ATOM     31  H6  UNL     1    -102.780 -19.537  44.533  1.00  0.00     0.184 HD
BRANCH  30  32
HETATM   32  C17 UNL     1    -103.072 -20.324  46.496  1.00  0.00     0.052 A
HETATM   33  C18 UNL     1    -102.582 -21.435  47.166  1.00  0.00     0.033 A
HETATM   34  C19 UNL     1    -103.339 -21.966  48.233  1.00  0.00     0.042 A
HETATM   35  C20 UNL     1    -104.519 -21.427  48.618  1.00  0.00     0.101 A
HETATM   36  C22 UNL     1    -105.027 -20.284  47.930  1.00  0.00     0.103 A
HETATM   37  C24 UNL     1    -104.251 -19.791  46.891  1.00  0.00     0.069 A
BRANCH  35  38
HETATM   38  O1  UNL     1    -105.264 -21.945  49.656  1.00  0.00    -0.353 OA
HETATM   39  C21 UNL     1    -106.260 -22.914  49.509  1.00  0.00     0.210 C
ENDBRANCH  35  38
BRANCH  36  40
HETATM   40  O2  UNL     1    -106.213 -19.774  48.346  1.00  0.00    -0.353 OA
HETATM   41  C23 UNL     1    -106.352 -18.702  49.252  1.00  0.00     0.210 C
ENDBRANCH  36  40
ENDBRANCH  30  32
ENDBRANCH   7  30
TORSDOF 9
ENDMDL