MODEL 1
REMARK VINA RESULT: -9.145459649      0.000      0.000
REMARK  8 active torsions:
REMARK  status: ('A' for Active; 'I' for Inactive)
REMARK    1  A    between atoms: C2_2  and  C3_3
REMARK    2  A    between atoms: C7_8  and  C8_9
REMARK    3  A    between atoms: C8_9  and  N1_10
REMARK    4  A    between atoms: N1_10  and  C9_12
REMARK    5  A    between atoms: N3_16  and  C11_18
REMARK    6  A    between atoms: C18_29  and  N6_30
REMARK    7  A    between atoms: N6_30  and  C19_32
REMARK    8  A    between atoms: C23_38  and  O1_39
ROOT
HETATM    1  C9  UNL     1     -86.614 -17.313   9.749  1.00  0.00     0.130 C
HETATM    2  N2  UNL     1     -85.649 -16.548   9.234  1.00  0.00    -0.325 N
ATOM      3  H2  UNL     1     -84.895 -16.362   9.896  1.00  0.00     0.169 HD
HETATM    4  C10 UNL     1     -85.448 -15.959   8.021  1.00  0.00     0.132 C
HETATM    5  N3  UNL     1     -84.354 -15.485   7.860  1.00  0.00    -0.370 N
ATOM      6  H3  UNL     1     -83.920 -15.704   8.757  1.00  0.00     0.161 HD
HETATM    7  C14 UNL     1     -86.431 -15.899   7.022  1.00  0.00     0.103 A
HETATM    8  N4  UNL     1     -86.266 -15.219   5.879  1.00  0.00    -0.297 N
ATOM      9  H4  UNL     1     -85.440 -14.686   5.607  1.00  0.00     0.187 HD
HETATM   10  N5  UNL     1     -87.367 -15.367   5.169  1.00  0.00    -0.310 N
ATOM     11  H5  UNL     1     -87.517 -14.954   4.249  1.00  0.00     0.186 HD
HETATM   12  C15 UNL     1     -88.264 -16.125   5.808  1.00  0.00     0.121 A
HETATM   13  C16 UNL     1     -87.680 -16.478   7.002  1.00  0.00     0.015 A
HETATM   14  C17 UNL     1     -88.322 -17.270   7.938  1.00  0.00     0.048 C
HETATM   15  C18 UNL     1     -87.871 -17.505   9.209  1.00  0.00     0.079 C
ENDROOT
BRANCH   1  16
HETATM   16  N1  UNL     1     -86.442 -17.965  10.827  1.00  0.00    -0.370 N
ATOM     17  H1  UNL     1     -86.677 -18.957  10.784  1.00  0.00     0.161 HD
BRANCH  16  18
HETATM   18  C8  UNL     1     -85.963 -17.499  12.087  1.00  0.00     0.163 C
BRANCH  18  19
HETATM   19  C7  UNL     1     -86.924 -16.491  12.637  1.00  0.00    -0.001 A
HETATM   20  C6  UNL     1     -86.711 -15.136  12.498  1.00  0.00     0.015 A
HETATM   21  C5  UNL     1     -87.616 -14.243  13.013  1.00  0.00     0.043 A
HETATM   22  C4  UNL     1     -88.743 -14.677  13.672  1.00  0.00     0.125 A
HETATM   23  C3  UNL     1     -88.960 -16.038  13.814  1.00  0.00     0.019 A
HETATM   24  F1  UNL     1     -89.652 -13.801  14.190  1.00  0.00    -0.205 F
HETATM   25  C25 UNL     1     -88.061 -16.963  13.302  1.00  0.00     0.133 A
HETATM   26  F2  UNL     1     -88.303 -18.283  13.457  1.00  0.00    -0.205 F
BRANCH  23  27
HETATM   27  C2  UNL     1     -90.187 -16.501  14.530  1.00  0.00     0.040 C
HETATM   28  C1  UNL     1     -91.219 -16.788  13.448  1.00  0.00     0.010 C
ENDBRANCH  23  27
ENDBRANCH  18  19
ENDBRANCH  16  18
ENDBRANCH   1  16
BRANCH  15  29
HETATM   29  N6  UNL     1     -88.858 -18.024  10.074  1.00  0.00    -0.339 N
ATOM     30  H6  UNL     1     -88.571 -18.259  11.024  1.00  0.00     0.167 HD
BRANCH  29  31
HETATM   31  C19 UNL     1     -90.079 -18.224   9.765  1.00  0.00     0.110 A
HETATM   32  C20 UNL     1     -90.550 -19.440   9.285  1.00  0.00     0.073 A
HETATM   33  C21 UNL     1     -91.866 -19.623   8.964  1.00  0.00     0.012 A
HETATM   34  C22 UNL     1     -92.370 -20.938   8.445  1.00  0.00     0.068 C
HETATM   35  N7  UNL     1     -92.714 -18.591   9.122  1.00  0.00    -0.326 N
HETATM   36  C23 UNL     1     -92.294 -17.399   9.585  1.00  0.00     0.224 A
ATOM     37  H7  UNL     1     -93.698 -18.715   8.886  1.00  0.00     0.169 HD
HETATM   38  N8  UNL     1     -90.996 -17.247   9.892  1.00  0.00    -0.308 N
ATOM     39  H8  UNL     1     -90.686 -16.340  10.242  1.00  0.00     0.171 HD
BRANCH  36  40
HETATM   40  O1  UNL     1     -93.209 -16.340   9.738  1.00  0.00    -0.327 OA
HETATM   41  C24 UNL     1     -93.920 -16.227  10.950  1.00  0.00     0.213 C
ENDBRANCH  36  40
ENDBRANCH  29  31
ENDBRANCH  15  29
BRANCH   5  42
HETATM   42  C11 UNL     1     -83.340 -14.846   7.242  1.00  0.00     0.075 C
HETATM   43  C12 UNL     1     -82.193 -14.419   8.212  1.00  0.00     0.031 C
HETATM   44  C13 UNL     1     -82.649 -15.833   6.273  1.00  0.00     0.031 C
ENDBRANCH   5  42
TORSDOF 8
ENDMDL