MODEL 1
REMARK VINA RESULT: -7.036725683      0.000      0.000
REMARK  10 active torsions:
REMARK  status: ('A' for Active; 'I' for Inactive)
REMARK    1  A    between atoms: C2_2  and  C3_3
REMARK    2  A    between atoms: C2_2  and  C25_34
REMARK    3  A    between atoms: C4_4  and  C5_5
REMARK    4  A    between atoms: C7_7  and  C8_8
REMARK    5  A    between atoms: C9_9  and  C10_10
REMARK    6  A    between atoms: C10_10  and  O1_11
REMARK    7  A    between atoms: C12_14  and  O2_15
REMARK    8  A    between atoms: C18_23  and  C19_24
REMARK    9  A    between atoms: C20_26  and  O4_27
REMARK   10  A    between atoms: C25_34  and  O5_35
ROOT
HETATM    1  C5  UNL     1     -87.879 -17.360  11.781  1.00  0.00     0.051 C
HETATM    2  C6  UNL     1     -86.898 -17.519  10.574  1.00  0.00     0.058 C
HETATM    3  C7  UNL     1     -87.851 -16.509   9.399  1.00  0.00    -0.058 C
HETATM    4  C11 UNL     1     -88.102 -15.777  10.306  1.00  0.00     0.019 C
HETATM    5  C12 UNL     1     -87.721 -15.855  11.706  1.00  0.00     0.094 C
HETATM    6  C13 UNL     1     -88.434 -14.924  12.526  1.00  0.00     0.021 C
HETATM    7  C14 UNL     1     -88.118 -13.519  11.936  1.00  0.00     0.013 C
HETATM    8  C15 UNL     1     -88.228 -14.712  13.959  1.00  0.00     0.010 C
HETATM    9  C16 UNL     1     -86.849 -14.745  14.515  1.00  0.00     0.034 C
HETATM   10  C17 UNL     1     -86.452 -16.248  14.644  1.00  0.00     0.141 C
HETATM   11  O3  UNL     1     -87.073 -16.889  13.792  1.00  0.00    -0.368 OA
HETATM   12  C18 UNL     1     -87.157 -17.943  12.983  1.00  0.00     0.114 C
HETATM   13  C20 UNL     1     -85.830 -18.558  12.807  1.00  0.00     0.155 C
HETATM   14  C21 UNL     1     -85.076 -18.631  14.109  1.00  0.00     0.040 C
HETATM   15  C22 UNL     1     -84.244 -17.446  14.489  1.00  0.00     0.005 C
HETATM   16  C23 UNL     1     -83.097 -17.116  13.589  1.00  0.00     0.011 C
HETATM   17  C24 UNL     1     -85.006 -16.241  14.945  1.00  0.00     0.115 C
HETATM   18 CL2  UNL     1     -84.151 -14.716  14.479  1.00  0.00    -0.122 Cl
ENDROOT
BRANCH   1  19
HETATM   19  C4  UNL     1     -89.036 -17.990  11.199  1.00  0.00    -0.010 C
HETATM   20  C3  UNL     1     -90.426 -18.023  11.519  1.00  0.00     0.001 C
BRANCH  20  21
HETATM   21  C2  UNL     1     -91.398 -17.471  10.843  1.00  0.00    -0.061 C
HETATM   22  C1  UNL     1     -91.408 -17.690   9.317  1.00  0.00     0.045 C
BRANCH  21  23
HETATM   23  C25 UNL     1     -92.492 -16.601  11.289  1.00  0.00     0.198 C
BRANCH  23  24
HETATM   24  O5  UNL     1     -92.371 -16.526  12.716  1.00  0.00    -0.397 OA
ATOM     25  H5  UNL     1     -93.258 -16.568  13.051  1.00  0.00     0.209 HD
ENDBRANCH  23  24
ENDBRANCH  21  23
ENDBRANCH  20  21
ENDBRANCH   1  19
BRANCH   5  26
HETATM   26  O2  UNL     1     -86.377 -15.449  11.689  1.00  0.00    -0.384 OA
ATOM     27  H2  UNL     1     -86.205 -14.721  12.275  1.00  0.00     0.211 HD
ENDBRANCH   5  26
BRANCH  12  28
HETATM   28  C19 UNL     1     -87.948 -18.942  13.794  1.00  0.00     0.156 C
HETATM   29 CL1  UNL     1     -89.092 -18.274  14.959  1.00  0.00    -0.127 Cl
ENDBRANCH  12  28
BRANCH   3  30
HETATM   30  C8  UNL     1     -87.549 -17.391   8.307  1.00  0.00     0.005 C
HETATM   31  C9  UNL     1     -88.160 -17.168   7.114  1.00  0.00    -0.001 C
BRANCH  31  32
HETATM   32  C10 UNL     1     -89.098 -16.095   6.839  1.00  0.00     0.191 C
BRANCH  32  33
HETATM   33  O1  UNL     1     -89.100 -15.743   5.468  1.00  0.00    -0.397 OA
ATOM     34  H1  UNL     1     -89.599 -14.950   5.311  1.00  0.00     0.209 HD
ENDBRANCH  32  33
ENDBRANCH  31  32
ENDBRANCH   3  30
BRANCH  13  35
HETATM   35  O4  UNL     1     -84.929 -18.178  11.907  1.00  0.00    -0.392 OA
ATOM     36  H4  UNL     1     -84.185 -18.699  11.629  1.00  0.00     0.210 HD
ENDBRANCH  13  35
TORSDOF 10
ENDMDL