MODEL 3
REMARK VINA RESULT: -8.280933067      3.600      6.398
REMARK  8 active torsions:
REMARK  status: ('A' for Active; 'I' for Inactive)
REMARK    1  A    between atoms: C3_5  and  N2_6
REMARK    2  A    between atoms: C4_11  and  C5_12
REMARK    3  A    between atoms: C5_12  and  C6_13
REMARK    4  A    between atoms: C6_13  and  C7_14
REMARK    5  A    between atoms: C7_14  and  N4_15
REMARK    6  A    between atoms: C12_20  and  C13_21
REMARK    7  A    between atoms: C17_26  and  C18_27
REMARK    8  A    between atoms: C18_27  and  O1_28
ROOT
HETATM    1  C1  UNL     1     -88.295 -13.377  11.911  1.00  0.00     0.070 C
HETATM    2  C2  UNL     1     -87.774 -14.316  12.925  1.00  0.00     0.035 A
HETATM    3  N1  UNL     1     -87.384 -13.898  14.132  1.00  0.00    -0.195 N
ATOM      4  H1  UNL     1     -87.427 -12.904  14.359  1.00  0.00     0.184 HD
HETATM    5  C3  UNL     1     -86.939 -14.764  15.043  1.00  0.00     0.676 A
HETATM    6  N3  UNL     1     -86.883 -16.056  14.751  1.00  0.00    -0.195 N
ATOM      7  H3  UNL     1     -86.540 -16.698  15.465  1.00  0.00     0.184 HD
HETATM    8  C4  UNL     1     -87.265 -16.579  13.531  1.00  0.00     0.039 A
HETATM    9  C12 UNL     1     -87.710 -15.677  12.629  1.00  0.00     0.023 A
ENDROOT
BRANCH   9  10
HETATM   10  C13 UNL     1     -88.211 -16.078  11.334  1.00  0.00     0.018 A
HETATM   11  C14 UNL     1     -87.313 -15.952  10.259  1.00  0.00     0.034 A
HETATM   12  C15 UNL     1     -87.728 -16.313   9.011  1.00  0.00     0.012 A
HETATM   13 BR1  UNL     1     -86.558 -16.169   7.526  1.00  0.00    -0.051 Br
HETATM   14  C16 UNL     1     -89.004 -16.790   8.822  1.00  0.00     0.032 A
HETATM   15  C17 UNL     1     -89.902 -16.921   9.858  1.00  0.00     0.017 A
HETATM   16  C23 UNL     1     -89.486 -16.553  11.144  1.00  0.00     0.137 A
HETATM   17  F1  UNL     1     -90.374 -16.707  12.178  1.00  0.00    -0.204 F
BRANCH  15  18
HETATM   18  C18 UNL     1     -91.286 -17.423   9.701  1.00  0.00     0.092 C
HETATM   19  C19 UNL     1     -92.230 -16.366  10.260  1.00  0.00     0.069 C
HETATM   20  C20 UNL     1     -93.674 -16.757  10.037  1.00  0.00     0.171 C
HETATM   21  O2  UNL     1     -93.891 -18.079  10.329  1.00  0.00    -0.391 OA
HETATM   22  C21 UNL     1     -92.921 -18.667  11.099  1.00  0.00     0.171 C
HETATM   23  C22 UNL     1     -91.560 -18.701  10.430  1.00  0.00     0.069 C
BRANCH  18  24
HETATM   24  O1  UNL     1     -91.574 -17.629   8.342  1.00  0.00    -0.385 OA
ATOM     25  H1  UNL     1     -92.460 -17.957   8.242  1.00  0.00     0.211 HD
ENDBRANCH  18  24
ENDBRANCH  15  18
ENDBRANCH   9  10
BRANCH   8  26
HETATM   26  C5  UNL     1     -87.125 -18.041  13.368  1.00  0.00     0.060 C
BRANCH  26  27
HETATM   27  C6  UNL     1     -88.211 -18.781  14.053  1.00  0.00     0.036 C
BRANCH  27  28
HETATM   28  C7  UNL     1     -87.657 -19.779  15.075  1.00  0.00     0.272 C
BRANCH  28  29
HETATM   29  N4  UNL     1     -87.449 -21.062  14.491  1.00  0.00     0.088 N
HETATM   30  C8  UNL     1     -86.070 -21.373  14.286  1.00  0.00     0.272 C
HETATM   31  C9  UNL     1     -86.033 -22.902  14.147  1.00  0.00     0.032 C
HETATM   32  C10 UNL     1     -87.078 -23.316  15.149  1.00  0.00     0.032 C
HETATM   33  C11 UNL     1     -88.063 -22.172  15.130  1.00  0.00     0.272 C
ENDBRANCH  28  29
ENDBRANCH  27  28
ENDBRANCH  26  27
ENDBRANCH   8  26
BRANCH   5  34
HETATM   34  N2  UNL     1     -86.546 -14.398  16.231  1.00  0.00    -0.234 N
ATOM     35  H22 UNL     1     -86.435 -13.399  16.402  1.00  0.00     0.174 HD
ATOM     36  H21 UNL     1     -86.353 -15.065  16.977  1.00  0.00     0.174 HD
ENDBRANCH   5  34
TORSDOF 8
ENDMDL