MODEL 1
REMARK VINA RESULT: -7.546499937      0.000      0.000
REMARK  8 active torsions:
REMARK  status: ('A' for Active; 'I' for Inactive)
REMARK    1  A    between atoms: C2_2  and  C3_3
REMARK    2  A    between atoms: C3_3  and  C4_4
REMARK    3  A    between atoms: C4_4  and  O1_5
REMARK    4  A    between atoms: O1_5  and  C5_6
REMARK    5  A    between atoms: C10_13  and  C11_14
REMARK    6  A    between atoms: C11_14  and  N1_15
REMARK    7  A    between atoms: C12_16  and  O2_17
REMARK    8  A    between atoms: C15_21  and  O3_22
ROOT
HETATM    1  N1  UNL     1     -87.552 -16.879  11.381  1.00  0.00    -0.303 N
HETATM    2  C12 UNL     1     -88.500 -15.972  11.694  1.00  0.00     0.161 A
HETATM    3  C13 UNL     1     -88.056 -15.203  12.748  1.00  0.00     0.095 A
HETATM    4  C14 UNL     1     -86.812 -15.624  13.110  1.00  0.00     0.035 A
HETATM    5  C15 UNL     1     -86.535 -16.678  12.221  1.00  0.00     0.154 A
HETATM    6  C16 UNL     1     -86.269 -14.836  14.250  1.00  0.00     0.119 A
HETATM    7  C17 UNL     1     -85.033 -14.053  13.831  1.00  0.00     0.037 C
HETATM    8  N2  UNL     1     -87.322 -13.894  14.521  1.00  0.00    -0.348 N
ATOM      9  H2  UNL     1     -87.284 -13.184  15.251  1.00  0.00     0.163 HD
HETATM   10  C18 UNL     1     -88.419 -14.080  13.646  1.00  0.00     0.257 A
HETATM   11  O4  UNL     1     -89.505 -13.457  13.587  1.00  0.00    -0.267 OA
ENDROOT
BRANCH   1  12
HETATM   12  C11 UNL     1     -87.618 -17.780  10.272  1.00  0.00     0.174 C
BRANCH  12  13
HETATM   13  C10 UNL     1     -87.559 -17.188   8.911  1.00  0.00    -0.004 A
HETATM   14  C5  UNL     1     -88.618 -16.999   8.089  1.00  0.00     0.094 A
HETATM   15  C6  UNL     1     -88.319 -16.350   6.830  1.00  0.00     0.046 A
HETATM   16 BR1  UNL     1     -89.754 -16.048   5.627  1.00  0.00    -0.048 Br
HETATM   17  C7  UNL     1     -87.073 -15.955   6.478  1.00  0.00     0.041 A
HETATM   18  C8  UNL     1     -86.026 -16.176   7.355  1.00  0.00     0.013 A
HETATM   19 BR2  UNL     1     -84.240 -15.636   6.903  1.00  0.00    -0.051 Br
HETATM   20  C9  UNL     1     -86.240 -16.776   8.547  1.00  0.00     0.030 A
BRANCH  14  21
HETATM   21  O1  UNL     1     -89.858 -17.328   8.280  1.00  0.00    -0.349 OA
BRANCH  21  22
HETATM   22  C4  UNL     1     -91.084 -17.655   8.470  1.00  0.00     0.175 C
BRANCH  22  23
HETATM   23  C3  UNL     1     -91.205 -18.673   9.637  1.00  0.00     0.026 C
BRANCH  23  24
HETATM   24  C2  UNL     1     -90.872 -20.068   9.180  1.00  0.00    -0.002 C
HETATM   25  C1  UNL     1     -91.976 -20.629   8.307  1.00  0.00     0.005 C
ENDBRANCH  23  24
ENDBRANCH  22  23
ENDBRANCH  21  22
ENDBRANCH  14  21
ENDBRANCH  12  13
ENDBRANCH   1  12
BRANCH   2  26
HETATM   26  O2  UNL     1     -89.759 -15.765  11.106  1.00  0.00    -0.345 OA
ATOM     27  H2  UNL     1     -90.618 -16.021  11.421  1.00  0.00     0.219 HD
ENDBRANCH   2  26
BRANCH   5  28
HETATM   28  O3  UNL     1     -85.298 -17.327  12.332  1.00  0.00    -0.345 OA
ATOM     29  H3  UNL     1     -84.829 -17.644  13.095  1.00  0.00     0.219 HD
ENDBRANCH   5  28
TORSDOF 8
ENDMDL