MODEL 1
REMARK VINA RESULT: -9.935360337      0.000      0.000
REMARK  8 active torsions:
REMARK  status: ('A' for Active; 'I' for Inactive)
REMARK    1  A    between atoms: C7_9  and  N1_10
REMARK    2  A    between atoms: C8_13  and  C9_14
REMARK    3  A    between atoms: N3_20  and  C15_22
REMARK    4  A    between atoms: C15_22  and  C16_23
REMARK    5  A    between atoms: C16_23  and  N4_24
REMARK    6  A    between atoms: N4_24  and  C17_26
REMARK    7  A    between atoms: C19_28  and  C20_29
REMARK    8  A    between atoms: C22_33  and  N6_34
ROOT
HETATM    1  C1  UNL     1     -90.861 -15.976  12.259  1.00  0.00     0.210 C
HETATM    2  O1  UNL     1     -91.373 -17.032  11.675  1.00  0.00    -0.354 OA
HETATM    3  C2  UNL     1     -91.898 -18.057  11.122  1.00  0.00     0.097 A
HETATM    4  C3  UNL     1     -93.124 -18.582  11.374  1.00  0.00     0.042 A
HETATM    5  C4  UNL     1     -93.626 -19.707  10.753  1.00  0.00     0.045 A
HETATM    6  C5  UNL     1     -92.839 -20.352   9.834  1.00  0.00     0.118 A
HETATM    7  F1  UNL     1     -93.285 -21.468   9.231  1.00  0.00    -0.206 F
HETATM    8  C6  UNL     1     -91.608 -19.855   9.564  1.00  0.00     0.076 A
HETATM    9  C7  UNL     1     -91.105 -18.775  10.123  1.00  0.00     0.094 A
ENDROOT
BRANCH   9  10
HETATM   10  N1  UNL     1     -89.977 -18.105   9.551  1.00  0.00    -0.237 N
HETATM   11  N2  UNL     1     -90.003 -17.701   8.264  1.00  0.00    -0.295 N
HETATM   12  C8  UNL     1     -88.839 -17.116   7.902  1.00  0.00     0.037 A
ATOM     13  H2  UNL     1     -90.802 -17.821   7.642  1.00  0.00     0.187 HD
HETATM   14  C13 UNL     1     -88.050 -17.199   9.000  1.00  0.00     0.077 A
HETATM   15  C14 UNL     1     -88.760 -17.821  10.013  1.00  0.00     0.125 A
HETATM   16  N3  UNL     1     -88.307 -18.063  11.246  1.00  0.00    -0.373 N
ATOM     17  H3  UNL     1     -88.876 -18.454  11.996  1.00  0.00     0.161 HD
BRANCH  12  18
HETATM   18  C9  UNL     1     -88.615 -16.399   6.630  1.00  0.00    -0.007 C
HETATM   19  C10 UNL     1     -87.480 -15.360   6.822  1.00  0.00     0.021 C
HETATM   20  C11 UNL     1     -89.834 -15.797   6.065  1.00  0.00     0.021 C
HETATM   21  C12 UNL     1     -87.999 -17.385   5.627  1.00  0.00     0.021 C
ENDBRANCH  12  18
BRANCH  16  22
HETATM   22  C15 UNL     1     -86.918 -17.706  11.395  1.00  0.00     0.141 C
BRANCH  22  23
HETATM   23  C16 UNL     1     -86.359 -17.320  12.690  1.00  0.00     0.141 C
BRANCH  23  24
HETATM   24  N4  UNL     1     -87.114 -17.853  13.846  1.00  0.00    -0.375 N
ATOM     25  H4  UNL     1     -87.921 -17.384  14.258  1.00  0.00     0.161 HD
BRANCH  24  26
HETATM   26  C17 UNL     1     -86.615 -19.038  14.301  1.00  0.00     0.101 A
HETATM   27  C18 UNL     1     -87.518 -20.107  14.210  1.00  0.00     0.060 A
HETATM   28  C19 UNL     1     -87.132 -21.346  14.741  1.00  0.00    -0.020 A
HETATM   29  C25 UNL     1     -85.817 -21.320  15.276  1.00  0.00     0.029 A
HETATM   30  C26 UNL     1     -85.002 -20.275  15.348  1.00  0.00     0.090 A
HETATM   31  N7  UNL     1     -85.425 -19.068  14.820  1.00  0.00    -0.353 N
ATOM     32  H7  UNL     1     -84.829 -18.240  14.838  1.00  0.00     0.166 HD
BRANCH  28  33
HETATM   33  C20 UNL     1     -87.921 -22.518  14.972  1.00  0.00    -0.007 A
HETATM   34  C21 UNL     1     -87.656 -23.686  14.276  1.00  0.00     0.102 A
HETATM   35  N5  UNL     1     -88.201 -24.851  14.673  1.00  0.00    -0.349 N
HETATM   36  C22 UNL     1     -88.996 -24.913  15.730  1.00  0.00     0.138 A
ATOM     37  H5  UNL     1     -87.997 -25.702  14.148  1.00  0.00     0.167 HD
HETATM   38  C23 UNL     1     -89.316 -23.785  16.437  1.00  0.00     0.160 A
HETATM   39  F2  UNL     1     -90.180 -23.877  17.491  1.00  0.00    -0.202 F
HETATM   40  C24 UNL     1     -88.783 -22.610  16.055  1.00  0.00     0.059 A
BRANCH  36  41
HETATM   41  N6  UNL     1     -89.348 -26.068  16.292  1.00  0.00    -0.383 N
ATOM     42  H62 UNL     1     -88.742 -26.863  16.091  1.00  0.00     0.157 HD
ATOM     43  H61 UNL     1     -90.247 -26.200  16.754  1.00  0.00     0.157 HD
ENDBRANCH  36  41
ENDBRANCH  28  33
ENDBRANCH  24  26
ENDBRANCH  23  24
ENDBRANCH  22  23
ENDBRANCH  16  22
ENDBRANCH   9  10
TORSDOF 8
ENDMDL