MODEL 2
REMARK VINA RESULT: -9.154578136      0.481      1.132
REMARK  10 active torsions:
REMARK  status: ('A' for Active; 'I' for Inactive)
REMARK    1  A    between atoms: C6_9  and  C7_10
REMARK    2  A    between atoms: C7_10  and  O2_11
REMARK    3  A    between atoms: C7_10  and  C8_13
REMARK    4  A    between atoms: C8_13  and  O3_14
REMARK    5  A    between atoms: C11_18  and  C12_19
REMARK    6  A    between atoms: C11_18  and  C21_31
REMARK    7  A    between atoms: C12_19  and  C13_20
REMARK    8  A    between atoms: C14_21  and  C15_22
REMARK    9  A    between atoms: C15_22  and  C16_23
REMARK   10  A    between atoms: C21_31  and  C22_32
ROOT
HETATM    1  O1  UNL     1     -94.666 -15.373  11.759  1.00  0.00    -0.239 OA
HETATM    2  C1  UNL     1     -93.695 -16.052  11.322  1.00  0.00     0.360 C
HETATM    3  N1  UNL     1     -92.766 -16.566  12.243  1.00  0.00    -0.336 N
ATOM      4  H1  UNL     1     -92.914 -16.446  13.244  1.00  0.00     0.164 HD
HETATM    5  C2  UNL     1     -91.590 -17.271  11.755  1.00  0.00     0.133 C
HETATM    6  C3  UNL     1     -91.261 -16.694  10.416  1.00  0.00     0.043 C
HETATM    7  C4  UNL     1     -92.382 -17.059   9.499  1.00  0.00     0.140 C
HETATM    8  C5  UNL     1     -92.820 -18.472   9.552  1.00  0.00     0.040 C
HETATM    9  C6  UNL     1     -91.922 -19.571   9.254  1.00  0.00     0.019 C
HETATM   10  C9  UNL     1     -90.507 -19.612   9.547  1.00  0.00     0.008 C
HETATM   11  C10 UNL     1     -89.781 -18.564  10.273  1.00  0.00     0.012 C
HETATM   12  C11 UNL     1     -89.960 -17.154   9.839  1.00  0.00    -0.019 C
HETATM   13  O4  UNL     1     -93.520 -16.303   9.991  1.00  0.00    -0.298 OA
ENDROOT
BRANCH  12  14
HETATM   14  C12 UNL     1     -90.012 -17.127   8.307  1.00  0.00     0.104 C
BRANCH  14  15
HETATM   15  C13 UNL     1     -88.757 -16.556   7.796  1.00  0.00    -0.106 C
HETATM   16  C14 UNL     1     -87.700 -16.106   7.359  1.00  0.00    -0.106 C
BRANCH  16  17
HETATM   17  C15 UNL     1     -86.435 -15.570   6.857  1.00  0.00     0.098 C
BRANCH  17  18
HETATM   18  C16 UNL     1     -85.351 -16.168   7.725  1.00  0.00    -0.000 C
HETATM   19  C17 UNL     1     -83.998 -16.098   7.090  1.00  0.00     0.033 C
HETATM   20  C18 UNL     1     -83.132 -15.109   7.841  1.00  0.00     0.232 C
HETATM   21  N2  UNL     1     -82.961 -15.491   9.210  1.00  0.00    -0.075 N
HETATM   22  C19 UNL     1     -84.190 -15.726   9.906  1.00  0.00     0.232 C
ATOM     23  H22 UNL     1     -82.348 -16.303   9.281  1.00  0.00     0.277 HD
ATOM     24  H21 UNL     1     -82.394 -14.804   9.705  1.00  0.00     0.277 HD
HETATM   25  C20 UNL     1     -85.403 -15.440   9.052  1.00  0.00     0.033 C
ENDBRANCH  17  18
ENDBRANCH  16  17
ENDBRANCH  14  15
ENDBRANCH  12  14
BRANCH  12  26
HETATM   26  C21 UNL     1     -88.785 -16.293  10.151  1.00  0.00     0.049 C
BRANCH  26  27
HETATM   27  C22 UNL     1     -88.462 -15.963  11.521  1.00  0.00    -0.054 A
HETATM   28  C23 UNL     1     -88.661 -14.692  12.007  1.00  0.00     0.010 A
HETATM   29  C24 UNL     1     -88.397 -14.311  13.305  1.00  0.00     0.046 A
HETATM   30  C25 UNL     1     -87.907 -15.276  14.149  1.00  0.00     0.154 A
HETATM   31  F1  UNL     1     -87.642 -14.908  15.439  1.00  0.00    -0.203 F
HETATM   32  C26 UNL     1     -87.694 -16.558  13.705  1.00  0.00     0.155 A
HETATM   33  F2  UNL     1     -87.208 -17.444  14.608  1.00  0.00    -0.203 F
HETATM   34  C27 UNL     1     -87.969 -16.889  12.413  1.00  0.00     0.052 A
ENDBRANCH  26  27
ENDBRANCH  12  26
BRANCH   9  35
HETATM   35  C7  UNL     1     -92.603 -20.852   9.808  1.00  0.00     0.145 C
BRANCH  35  36
HETATM   36  O2  UNL     1     -92.891 -21.633   8.705  1.00  0.00    -0.393 OA
ATOM     37  H2  UNL     1     -93.816 -21.506   8.532  1.00  0.00     0.210 HD
ENDBRANCH  35  36
BRANCH  35  38
HETATM   38  C8  UNL     1     -93.904 -20.496  10.477  1.00  0.00     0.196 C
BRANCH  38  39
HETATM   39  O3  UNL     1     -93.833 -20.985  11.789  1.00  0.00    -0.398 OA
ATOM     40  H3  UNL     1     -94.614 -21.506  11.931  1.00  0.00     0.209 HD
ENDBRANCH  38  39
ENDBRANCH  35  38
ENDBRANCH   9  35
TORSDOF 10
ENDMDL