MODEL 3
REMARK VINA RESULT: -8.168938096      1.274      2.277
REMARK  11 active torsions:
REMARK  status: ('A' for Active; 'I' for Inactive)
REMARK    1  A    between atoms: O1_2  and  C2_3
REMARK    2  A    between atoms: C10_13  and  N2_14
REMARK    3  A    between atoms: N2_14  and  C11_16
REMARK    4  A    between atoms: C12_19  and  N4_20
REMARK    5  A    between atoms: N4_20  and  C13_22
REMARK    6  A    between atoms: C16_26  and  N5_27
REMARK    7  A    between atoms: N5_27  and  C17_29
REMARK    8  A    between atoms: C17_29  and  C18_30
REMARK    9  A    between atoms: C18_30  and  C19_31
REMARK   10  A    between atoms: C19_31  and  C20_32
REMARK   11  A    between atoms: C20_32  and  N6_34
ROOT
HETATM    1  C11 UNL     1     -89.984 -17.306  10.525  1.00  0.00     0.131 C
HETATM    2  N3  UNL     1     -89.195 -16.522  11.285  1.00  0.00    -0.324 N
ATOM      3  H3  UNL     1     -88.277 -16.318  10.889  1.00  0.00     0.169 HD
HETATM    4  C12 UNL     1     -89.435 -15.968  12.485  1.00  0.00     0.149 C
HETATM    5  C16 UNL     1     -90.473 -16.329  13.358  1.00  0.00     0.145 C
HETATM    6  N7  UNL     1     -91.656 -16.887  13.042  1.00  0.00    -0.348 N
ATOM      7  H7  UNL     1     -92.369 -16.841  13.770  1.00  0.00     0.167 HD
HETATM    8  C22 UNL     1     -92.039 -17.506  11.885  1.00  0.00     0.117 C
HETATM    9  C23 UNL     1     -91.335 -17.628  10.708  1.00  0.00     0.093 C
HETATM   10 CL2  UNL     1     -92.134 -18.232   9.277  1.00  0.00    -0.079 Cl
ENDROOT
BRANCH   1  11
HETATM   11  N2  UNL     1     -89.490 -17.862   9.479  1.00  0.00    -0.338 N
ATOM     12  H2  UNL     1     -89.908 -18.730   9.147  1.00  0.00     0.167 HD
BRANCH  11  13
HETATM   13  C10 UNL     1     -88.385 -17.325   8.764  1.00  0.00     0.074 A
HETATM   14  C2  UNL     1     -87.107 -17.407   9.294  1.00  0.00     0.097 A
HETATM   15  C3  UNL     1     -86.015 -16.896   8.627  1.00  0.00     0.069 A
HETATM   16  C4  UNL     1     -86.168 -16.274   7.381  1.00  0.00     0.045 A
HETATM   17  N1  UNL     1     -85.310 -15.699   6.520  1.00  0.00    -0.365 N
HETATM   18  C7  UNL     1     -87.463 -16.197   6.856  1.00  0.00     0.000 A
HETATM   19  C5  UNL     1     -86.011 -15.252   5.454  1.00  0.00     0.089 A
ATOM     20  H1  UNL     1     -84.302 -15.614   6.649  1.00  0.00     0.165 HD
HETATM   21  C6  UNL     1     -87.350 -15.549   5.639  1.00  0.00     0.031 A
HETATM   22  C8  UNL     1     -88.556 -16.709   7.523  1.00  0.00    -0.020 A
HETATM   23  C9  UNL     1     -89.911 -16.616   6.955  1.00  0.00     0.052 C
BRANCH  14  24
HETATM   24  O1  UNL     1     -86.928 -18.017  10.523  1.00  0.00    -0.354 OA
HETATM   25  C1  UNL     1     -85.650 -18.357  10.981  1.00  0.00     0.210 C
ENDBRANCH  14  24
ENDBRANCH  11  13
ENDBRANCH   1  11
BRANCH   4  26
HETATM   26  N4  UNL     1     -88.719 -15.033  12.947  1.00  0.00    -0.351 N
ATOM     27  H4  UNL     1     -89.241 -14.218  13.268  1.00  0.00     0.163 HD
BRANCH  26  28
HETATM   28  C13 UNL     1     -87.309 -14.928  13.094  1.00  0.00     0.102 C
HETATM   29  C14 UNL     1     -86.952 -13.898  14.189  1.00  0.00     0.056 C
HETATM   30  C15 UNL     1     -86.625 -16.212  13.489  1.00  0.00     0.056 C
HETATM   31 CL1  UNL     1     -86.575 -14.269  11.607  1.00  0.00    -0.096 Cl
ENDBRANCH  26  28
ENDBRANCH   4  26
BRANCH   5  32
HETATM   32  N5  UNL     1     -90.303 -16.119  14.600  1.00  0.00    -0.373 N
ATOM     33  H5  UNL     1     -90.615 -15.221  14.970  1.00  0.00     0.161 HD
BRANCH  32  34
HETATM   34  C17 UNL     1     -89.709 -17.040  15.523  1.00  0.00     0.121 C
BRANCH  34  35
HETATM   35  C18 UNL     1     -88.584 -16.412  16.318  1.00  0.00     0.022 C
BRANCH  35  36
HETATM   36  C19 UNL     1     -88.295 -17.169  17.581  1.00  0.00     0.034 C
BRANCH  36  37
HETATM   37  C20 UNL     1     -88.107 -16.294  18.786  1.00  0.00     0.179 C
HETATM   38  C21 UNL     1     -87.440 -15.016  18.316  1.00  0.00     0.039 C
BRANCH  37  39
HETATM   39  N6  UNL     1     -89.318 -16.052  19.510  1.00  0.00    -0.075 N
ATOM     40  H63 UNL     1     -90.125 -16.093  18.888  1.00  0.00     0.274 HD
ATOM     41  H62 UNL     1     -89.535 -16.839  20.122  1.00  0.00     0.274 HD
ATOM     42  H61 UNL     1     -89.311 -15.177  20.034  1.00  0.00     0.274 HD
ENDBRANCH  37  39
ENDBRANCH  36  37
ENDBRANCH  35  36
ENDBRANCH  34  35
ENDBRANCH  32  34
ENDBRANCH   5  32
TORSDOF 11
ENDMDL