MODEL 3
REMARK VINA RESULT: -7.273109127      3.743      5.162
REMARK  8 active torsions:
REMARK  status: ('A' for Active; 'I' for Inactive)
REMARK    1  A    between atoms: C3_3  and  C4_5
REMARK    2  A    between atoms: C11_12  and  O1_13
REMARK    3  A    between atoms: C17_20  and  O2_21
REMARK    4  A    between atoms: C18_23  and  C19_25
REMARK    5  A    between atoms: C19_25  and  C21_27
REMARK    6  A    between atoms: C21_27  and  C22_29
REMARK    7  A    between atoms: C22_29  and  C23_30
REMARK    8  A    between atoms: C23_30  and  N1_31
ROOT
HETATM    1  C4  UNL     1     -86.498 -16.758   9.481  1.00  0.00    -0.032 C
HETATM    2  C5  UNL     1     -85.813 -17.941   9.544  1.00  0.00    -0.017 C
HETATM    3  C6  UNL     1     -85.610 -18.330  10.980  1.00  0.00     0.034 C
HETATM    4  C7  UNL     1     -85.532 -16.906  11.497  1.00  0.00     0.010 C
HETATM    5  C8  UNL     1     -86.798 -16.429  10.904  1.00  0.00    -0.009 C
HETATM    6  C9  UNL     1     -88.034 -17.260  11.196  1.00  0.00     0.021 C
HETATM    7  C10 UNL     1     -86.912 -15.029  11.288  1.00  0.00     0.046 C
HETATM    8  C11 UNL     1     -86.822 -14.858  12.827  1.00  0.00     0.125 C
HETATM    9  C12 UNL     1     -85.570 -15.341  13.419  1.00  0.00     0.045 C
HETATM   10  C13 UNL     1     -85.170 -16.739  12.891  1.00  0.00    -0.032 C
HETATM   11  C14 UNL     1     -83.642 -16.838  12.894  1.00  0.00     0.016 C
HETATM   12  C15 UNL     1     -85.626 -17.846  13.793  1.00  0.00     0.012 C
HETATM   13  C16 UNL     1     -84.913 -17.680  15.084  1.00  0.00     0.034 C
HETATM   14  C17 UNL     1     -84.818 -16.325  15.645  1.00  0.00     0.138 C
HETATM   15  C18 UNL     1     -85.272 -15.134  14.855  1.00  0.00     0.060 C
HETATM   16 BR1  UNL     1     -83.759 -13.843  15.044  1.00  0.00    -0.081 Br
ENDROOT
BRANCH  15  17
HETATM   17  C19 UNL     1     -86.277 -14.381  15.688  1.00  0.00     0.073 C
HETATM   18  C20 UNL     1     -85.641 -13.484  16.758  1.00  0.00     0.020 C
BRANCH  17  19
HETATM   19  C21 UNL     1     -87.165 -15.254  16.481  1.00  0.00     0.134 C
HETATM   20  O3  UNL     1     -88.001 -15.980  16.070  1.00  0.00    -0.297 OA
BRANCH  19  21
HETATM   21  C22 UNL     1     -87.028 -15.263  17.995  1.00  0.00     0.106 C
BRANCH  21  22
HETATM   22  C23 UNL     1     -87.854 -16.352  18.611  1.00  0.00     0.237 C
BRANCH  22  23
HETATM   23  N1  UNL     1     -89.043 -15.955  19.271  1.00  0.00    -0.079 N
ATOM     24  H13 UNL     1     -89.087 -16.397  20.189  1.00  0.00     0.274 HD
ATOM     25  H12 UNL     1     -88.974 -14.973  19.537  1.00  0.00     0.274 HD
ATOM     26  H11 UNL     1     -89.919 -16.113  18.773  1.00  0.00     0.274 HD
ENDBRANCH  22  23
ENDBRANCH  21  22
ENDBRANCH  19  21
ENDBRANCH  17  19
ENDBRANCH  15  17
BRANCH  14  27
HETATM   27  O2  UNL     1     -83.470 -16.225  16.087  1.00  0.00    -0.394 OA
ATOM     28  H2  UNL     1     -83.226 -17.120  16.290  1.00  0.00     0.210 HD
ENDBRANCH  14  27
BRANCH   8  29
HETATM   29  O1  UNL     1     -88.006 -15.256  13.300  1.00  0.00    -0.395 OA
ATOM     30  H1  UNL     1     -88.208 -16.060  12.836  1.00  0.00     0.210 HD
ENDBRANCH   8  29
BRANCH   1  31
HETATM   31  C3  UNL     1     -86.809 -16.179   8.222  1.00  0.00     0.036 C
HETATM   32  C2  UNL     1     -87.935 -16.344   7.575  1.00  0.00    -0.007 C
HETATM   33  C1  UNL     1     -88.111 -15.692   6.220  1.00  0.00     0.038 C
HETATM   34 CL1  UNL     1     -85.606 -15.174   7.384  1.00  0.00    -0.084 Cl
ENDBRANCH   1  31
TORSDOF 8
ENDMDL