MODEL 4
REMARK VINA RESULT: -8.480385216      3.387      8.066
REMARK  9 active torsions:
REMARK  status: ('A' for Active; 'I' for Inactive)
REMARK    1  A    between atoms: N1_4  and  C4_5
REMARK    2  A    between atoms: C4_5  and  C5_6
REMARK    3  A    between atoms: C5_6  and  O1_7
REMARK    4  A    between atoms: C5_6  and  C6_9
REMARK    5  A    between atoms: C6_9  and  O2_10
REMARK    6  A    between atoms: O2_10  and  C7_11
REMARK    7  A    between atoms: C9_15  and  N3_16
REMARK    8  A    between atoms: N3_16  and  C10_18
REMARK    9  A    between atoms: C14_22  and  O3_23
ROOT
HETATM    1  C7  UNL     1     -87.551 -16.385   9.158  1.00  0.00     0.097 A
HETATM    2  C8  UNL     1     -88.059 -16.955   8.031  1.00  0.00     0.127 A
HETATM    3  N2  UNL     1     -89.333 -17.290   7.865  1.00  0.00    -0.348 N
ATOM      4  H2  UNL     1     -89.643 -17.714   6.991  1.00  0.00     0.167 HD
HETATM    5  C9  UNL     1     -90.227 -17.062   8.878  1.00  0.00     0.129 A
HETATM    6  C16 UNL     1     -89.809 -16.484  10.067  1.00  0.00     0.090 A
HETATM    7  N4  UNL     1     -90.449 -16.144  11.214  1.00  0.00    -0.343 N
ATOM      8  H4  UNL     1     -91.443 -16.274  11.401  1.00  0.00     0.167 HD
HETATM    9  C17 UNL     1     -89.542 -15.599  12.074  1.00  0.00     0.104 A
HETATM   10 CL1  UNL     1     -89.894 -15.014  13.665  1.00  0.00    -0.065 Cl
HETATM   11  C18 UNL     1     -88.323 -15.606  11.439  1.00  0.00     0.059 A
HETATM   12  C19 UNL     1     -88.481 -16.158  10.182  1.00  0.00     0.032 A
ENDROOT
BRANCH   1  13
HETATM   13  O2  UNL     1     -86.271 -16.029   9.367  1.00  0.00    -0.346 OA
BRANCH  13  14
HETATM   14  C6  UNL     1     -85.097 -16.639   9.651  1.00  0.00     0.209 C
BRANCH  14  15
HETATM   15  C5  UNL     1     -84.683 -16.783  11.082  1.00  0.00     0.160 C
BRANCH  15  16
HETATM   16  C4  UNL     1     -85.395 -18.004  11.701  1.00  0.00     0.155 C
BRANCH  16  17
HETATM   17  N1  UNL     1     -85.392 -17.998  13.116  1.00  0.00    -0.390 N
HETATM   18  C3  UNL     1     -85.847 -19.144  13.793  1.00  0.00     0.064 C
HETATM   19  C2  UNL     1     -87.202 -18.991  14.443  1.00  0.00     0.038 C
HETATM   20  C1  UNL     1     -88.283 -18.773  13.408  1.00  0.00     0.017 C
HETATM   21  C23 UNL     1     -87.129 -17.808  15.386  1.00  0.00     0.096 C
HETATM   22  C21 UNL     1     -86.785 -16.596  14.586  1.00  0.00     0.018 C
HETATM   23 CL2  UNL     1     -88.738 -17.502  16.127  1.00  0.00    -0.124 Cl
HETATM   24  C20 UNL     1     -85.547 -16.745  13.749  1.00  0.00     0.127 C
HETATM   25  C22 UNL     1     -86.503 -15.463  15.581  1.00  0.00     0.013 C
ENDBRANCH  16  17
ENDBRANCH  15  16
BRANCH  15  26
HETATM   26  O1  UNL     1     -83.297 -17.040  11.196  1.00  0.00    -0.392 OA
ATOM     27  H1  UNL     1     -82.869 -16.441  10.597  1.00  0.00     0.210 HD
ENDBRANCH  15  26
ENDBRANCH  14  15
ENDBRANCH  13  14
ENDBRANCH   1  13
BRANCH   5  28
HETATM   28  N3  UNL     1     -91.388 -17.404   8.669  1.00  0.00    -0.370 N
ATOM     29  H3  UNL     1     -91.720 -16.865   7.869  1.00  0.00     0.161 HD
BRANCH  28  30
HETATM   30  C10 UNL     1     -92.432 -18.219   9.071  1.00  0.00     0.085 C
HETATM   31  C11 UNL     1     -91.827 -19.454   9.747  1.00  0.00     0.025 C
HETATM   32  C12 UNL     1     -92.885 -20.373  10.275  1.00  0.00     0.004 C
HETATM   33  C13 UNL     1     -94.066 -19.625  10.853  1.00  0.00     0.032 C
HETATM   34  C14 UNL     1     -93.643 -18.256  11.279  1.00  0.00     0.120 C
HETATM   35  C15 UNL     1     -93.300 -17.455  10.054  1.00  0.00     0.056 C
BRANCH  34  36
HETATM   36  O3  UNL     1     -92.617 -18.258  12.222  1.00  0.00    -0.396 OA
ATOM     37  H3  UNL     1     -91.911 -17.657  12.016  1.00  0.00     0.210 HD
ENDBRANCH  34  36
ENDBRANCH  28  30
ENDBRANCH   5  28
TORSDOF 9
ENDMDL