MODEL 3
REMARK VINA RESULT: -7.016085533      1.040      1.360
REMARK  9 active torsions:
REMARK  status: ('A' for Active; 'I' for Inactive)
REMARK    1  A    between atoms: N1_2  and  C3_4
REMARK    2  A    between atoms: C3_4  and  C4_5
REMARK    3  A    between atoms: C4_5  and  C5_6
REMARK    4  A    between atoms: C5_6  and  N2_7
REMARK    5  A    between atoms: N2_7  and  C6_9
REMARK    6  A    between atoms: C9_20  and  N7_21
REMARK    7  A    between atoms: N7_21  and  C10_22
REMARK    8  A    between atoms: C11_23  and  C12_24
REMARK    9  A    between atoms: C18_31  and  N8_32
ROOT
HETATM    1  C6  UNL     1     -91.357 -16.902  12.691  1.00  0.00     0.135 A
HETATM    2  N3  UNL     1     -92.699 -16.658  12.622  1.00  0.00    -0.283 N
ATOM      3  H3  UNL     1     -93.233 -16.059  13.252  1.00  0.00     0.188 HD
HETATM    4  N4  UNL     1     -93.182 -17.331  11.601  1.00  0.00    -0.283 N
ATOM      5  H4  UNL     1     -94.161 -17.334  11.312  1.00  0.00     0.188 HD
HETATM    6  C7  UNL     1     -92.186 -18.021  10.987  1.00  0.00     0.140 A
HETATM    7  N5  UNL     1     -92.166 -18.830   9.932  1.00  0.00    -0.337 N
ATOM      8  H5  UNL     1     -93.035 -19.018   9.432  1.00  0.00     0.168 HD
HETATM    9  C8  UNL     1     -91.038 -19.402   9.512  1.00  0.00     0.184 A
HETATM   10  N6  UNL     1     -89.921 -19.137  10.182  1.00  0.00    -0.326 N
ATOM     11  H6  UNL     1     -89.066 -19.582   9.847  1.00  0.00     0.169 HD
HETATM   12  C9  UNL     1     -89.809 -18.337  11.261  1.00  0.00     0.198 A
HETATM   13  C21 UNL     1     -90.995 -17.757  11.675  1.00  0.00     0.113 A
ENDROOT
BRANCH  12  14
HETATM   14  N7  UNL     1     -88.770 -18.159  11.778  1.00  0.00    -0.384 NA
BRANCH  14  15
HETATM   15  C10 UNL     1     -87.548 -18.055  12.270  1.00  0.00     0.140 A
HETATM   16  C11 UNL     1     -86.591 -17.252  11.661  1.00  0.00    -0.006 A
HETATM   17  C16 UNL     1     -85.335 -17.201  12.227  1.00  0.00     0.037 A
HETATM   18  C17 UNL     1     -84.956 -17.892  13.359  1.00  0.00     0.063 A
HETATM   19 CL1  UNL     1     -83.295 -17.782  13.935  1.00  0.00    -0.082 Cl
HETATM   20  C18 UNL     1     -85.915 -18.684  13.956  1.00  0.00     0.081 A
HETATM   21  C20 UNL     1     -87.176 -18.747  13.403  1.00  0.00     0.103 A
HETATM   22 CL2  UNL     1     -88.342 -19.780  14.236  1.00  0.00    -0.078 Cl
BRANCH  16  23
HETATM   23  C12 UNL     1     -86.899 -16.443  10.431  1.00  0.00    -0.021 C
HETATM   24  C13 UNL     1     -87.040 -17.252   9.191  1.00  0.00     0.019 C
HETATM   25  C14 UNL     1     -88.043 -15.482  10.668  1.00  0.00     0.019 C
HETATM   26  C15 UNL     1     -85.691 -15.540  10.209  1.00  0.00     0.019 C
ENDBRANCH  16  23
BRANCH  20  27
HETATM   27  N8  UNL     1     -85.605 -19.379  15.140  1.00  0.00    -0.330 N
HETATM   28  C19 UNL     1     -85.329 -20.592  15.321  1.00  0.00     0.201 C
HETATM   29  N9  UNL     1     -85.283 -21.517  14.247  1.00  0.00    -0.066 NA
HETATM   30  N10 UNL     1     -85.044 -21.080  16.651  1.00  0.00    -0.066 NA
ATOM     31  H8  UNL     1     -85.603 -18.808  15.985  1.00  0.00     0.168 HD
ENDBRANCH  20  27
ENDBRANCH  14  15
ENDBRANCH  12  14
BRANCH   1  32
HETATM   32  N2  UNL     1     -90.535 -16.430  13.543  1.00  0.00    -0.374 N
ATOM     33  H2  UNL     1     -89.933 -15.662  13.247  1.00  0.00     0.161 HD
BRANCH  32  34
HETATM   34  C5  UNL     1     -90.398 -16.909  14.906  1.00  0.00     0.123 C
BRANCH  34  35
HETATM   35  C4  UNL     1     -89.125 -16.375  15.542  1.00  0.00     0.050 C
BRANCH  35  36
HETATM   36  C3  UNL     1     -88.555 -15.316  14.634  1.00  0.00     0.273 C
BRANCH  36  37
HETATM   37  N1  UNL     1     -87.103 -15.348  14.752  1.00  0.00     0.080 N
HETATM   38  C1  UNL     1     -86.495 -14.241  14.039  1.00  0.00     0.309 C
HETATM   39  C2  UNL     1     -86.708 -15.407  16.129  1.00  0.00     0.309 C
ENDBRANCH  36  37
ENDBRANCH  35  36
ENDBRANCH  34  35
ENDBRANCH  32  34
ENDBRANCH   1  32
TORSDOF 9
ENDMDL