MODEL 3
REMARK VINA RESULT: -8.201790765      0.934      1.200
REMARK  7 active torsions:
REMARK  status: ('A' for Active; 'I' for Inactive)
REMARK    1  A    between atoms: C6_8  and  O1_9
REMARK    2  A    between atoms: O1_9  and  C7_10
REMARK    3  A    between atoms: C7_10  and  C8_11
REMARK    4  A    between atoms: C8_11  and  O2_12
REMARK    5  A    between atoms: C8_11  and  C9_14
REMARK    6  A    between atoms: C9_14  and  N2_15
REMARK    7  A    between atoms: N3_19  and  C13_20
ROOT
HETATM    1  C7  UNL     1     131.168  35.294 -25.348  1.00  0.00     0.210 C
ENDROOT
BRANCH   1   2
HETATM    2  O1  UNL     1     129.955  35.011 -25.036  1.00  0.00    -0.333 OA
BRANCH   2   3
HETATM    3  C6  UNL     1     128.724  34.725 -24.722  1.00  0.00     0.152 A
HETATM    4  C4  UNL     1     128.423  33.511 -24.097  1.00  0.00     0.017 A
HETATM    5  C3  UNL     1     127.168  33.107 -23.725  1.00  0.00     0.057 A
HETATM    6  C5  UNL     1     129.552  32.581 -23.806  1.00  0.00     0.055 C
HETATM    7  N1  UNL     1     126.658  32.013 -23.129  1.00  0.00    -0.358 N
HETATM    8  C23 UNL     1     126.138  33.993 -24.004  1.00  0.00     0.043 A
HETATM    9  C2  UNL     1     125.338  32.172 -23.019  1.00  0.00     0.012 A
ATOM     10  H1  UNL     1     127.190  31.202 -22.815  1.00  0.00     0.166 HD
HETATM   11  C1  UNL     1     124.402  31.188 -22.414  1.00  0.00     0.068 C
HETATM   12  C24 UNL     1     125.002  33.384 -23.552  1.00  0.00    -0.024 A
HETATM   13  C25 UNL     1     123.641  33.999 -23.659  1.00  0.00     0.051 C
HETATM   14  C22 UNL     1     126.418  35.193 -24.618  1.00  0.00     0.114 A
HETATM   15  N4  UNL     1     127.650  35.559 -24.969  1.00  0.00    -0.322 N
HETATM   16  N5  UNL     1     125.403  35.968 -24.845  1.00  0.00    -0.385 N
ATOM     17  H4  UNL     1     127.801  36.460 -25.421  1.00  0.00     0.169 HD
ATOM     18  H52 UNL     1     125.611  36.857 -25.301  1.00  0.00     0.157 HD
ATOM     19  H51 UNL     1     124.459  35.687 -24.577  1.00  0.00     0.157 HD
ENDBRANCH   2   3
ENDBRANCH   1   2
BRANCH   1  20
HETATM   20  C8  UNL     1     131.842  36.506 -24.640  1.00  0.00     0.160 C
BRANCH  20  21
HETATM   21  O2  UNL     1     133.189  36.246 -24.499  1.00  0.00    -0.392 OA
ATOM     22  H2  UNL     1     133.430  36.364 -23.588  1.00  0.00     0.210 HD
ENDBRANCH  20  21
BRANCH  20  23
HETATM   23  C9  UNL     1     131.516  37.706 -25.453  1.00  0.00     0.160 C
BRANCH  23  24
HETATM   24  N2  UNL     1     130.509  38.552 -24.918  1.00  0.00    -0.370 N
HETATM   25  C10 UNL     1     129.308  38.696 -25.633  1.00  0.00     0.065 C
HETATM   26  C11 UNL     1     129.018  40.167 -25.804  1.00  0.00     0.064 C
HETATM   27  C12 UNL     1     129.014  40.769 -24.418  1.00  0.00     0.122 C
HETATM   28  N3  UNL     1     128.339  39.880 -23.546  1.00  0.00    -0.403 N
HETATM   29  C20 UNL     1     129.118  38.867 -22.930  1.00  0.00     0.162 C
HETATM   30  C21 UNL     1     130.467  38.653 -23.516  1.00  0.00     0.082 C
BRANCH  28  31
HETATM   31  C13 UNL     1     127.340  40.466 -22.715  1.00  0.00     0.079 C
HETATM   32  C14 UNL     1     126.035  39.710 -22.735  1.00  0.00     0.028 C
HETATM   33  C15 UNL     1     125.158  40.248 -21.641  1.00  0.00     0.045 C
HETATM   34  C16 UNL     1     124.921  41.734 -21.766  1.00  0.00     0.100 C
HETATM   35  C17 UNL     1     123.931  42.033 -22.859  1.00  0.00     0.051 C
HETATM   36  F1  UNL     1     124.380  42.177 -20.575  1.00  0.00    -0.243 F
HETATM   37  C18 UNL     1     126.194  42.500 -22.005  1.00  0.00     0.045 C
HETATM   38  C19 UNL     1     127.031  41.898 -23.103  1.00  0.00     0.028 C
ENDBRANCH  28  31
ENDBRANCH  23  24
ENDBRANCH  20  23
ENDBRANCH   1  20
TORSDOF 7
ENDMDL