MODEL 2
REMARK VINA RESULT: -8.153965000      1.763      2.099
REMARK  12 active torsions:
REMARK  status: ('A' for Active; 'I' for Inactive)
REMARK    1  A    between atoms: C2_2  and  O1_4
REMARK    2  A    between atoms: C2_2  and  C4_6
REMARK    3  A    between atoms: C4_6  and  C5_7
REMARK    4  A    between atoms: C5_7  and  C6_8
REMARK    5  A    between atoms: C9_12  and  C10_13
REMARK    6  A    between atoms: C10_13  and  C11_14
REMARK    7  A    between atoms: C10_13  and  N2_25
REMARK    8  A    between atoms: C11_14  and  C12_15
REMARK    9  A    between atoms: C15_18  and  N1_19
REMARK   10  A    between atoms: N2_25  and  C18_27
REMARK   11  A    between atoms: C20_29  and  C21_30
REMARK   12  A    between atoms: C24_39  and  C25_40
ROOT
HETATM    1  C10 UNL     1     129.473  37.566 -24.626  1.00  0.00     0.133 C
ENDROOT
BRANCH   1   2
HETATM    2  C9  UNL     1     128.587  36.407 -24.389  1.00  0.00     0.035 A
HETATM    3  C8  UNL     1     128.859  35.105 -24.630  1.00  0.00     0.071 A
HETATM    4  C7  UNL     1     127.946  34.135 -24.329  1.00  0.00     0.139 A
HETATM    5  C6  UNL     1     126.703  34.435 -23.764  1.00  0.00     0.086 A
HETATM    6  F1  UNL     1     128.216  32.841 -24.567  1.00  0.00    -0.204 F
HETATM    7  C24 UNL     1     126.448  35.768 -23.529  1.00  0.00     0.092 A
HETATM    8  N5  UNL     1     127.373  36.715 -23.837  1.00  0.00    -0.354 N
ATOM      9  H5  UNL     1     127.153  37.693 -23.649  1.00  0.00     0.166 HD
BRANCH   5  10
HETATM   10  C5  UNL     1     125.783  33.369 -23.469  1.00  0.00    -0.058 C
BRANCH  10  11
HETATM   11  C4  UNL     1     125.013  32.490 -23.199  1.00  0.00    -0.063 C
BRANCH  11  12
HETATM   12  C2  UNL     1     124.053  31.417 -22.845  1.00  0.00     0.114 C
HETATM   13  C1  UNL     1     123.263  30.970 -24.053  1.00  0.00     0.060 C
HETATM   14  C3  UNL     1     123.112  32.014 -21.823  1.00  0.00     0.060 C
BRANCH  12  15
HETATM   15  O1  UNL     1     124.693  30.343 -22.250  1.00  0.00    -0.378 OA
ATOM     16  H1  UNL     1     125.324  30.641 -21.606  1.00  0.00     0.211 HD
ENDBRANCH  12  15
ENDBRANCH  11  12
ENDBRANCH  10  11
ENDBRANCH   5  10
BRANCH   7  17
HETATM   17  C25 UNL     1     125.172  36.154 -22.943  1.00  0.00     0.289 C
HETATM   18  O2  UNL     1     125.013  36.249 -21.733  1.00  0.00    -0.300 OA
ENDBRANCH   7  17
ENDBRANCH   1   2
BRANCH   1  19
HETATM   19  C11 UNL     1     129.735  37.980 -26.002  1.00  0.00     0.036 C
BRANCH  19  20
HETATM   20  C12 UNL     1     131.079  37.904 -26.577  1.00  0.00    -0.012 C
HETATM   21  C13 UNL     1     131.533  36.517 -26.972  1.00  0.00     0.007 C
HETATM   22  C14 UNL     1     132.761  36.730 -27.872  1.00  0.00     0.033 C
HETATM   23  C15 UNL     1     133.829  37.446 -27.079  1.00  0.00     0.183 C
HETATM   24  C16 UNL     1     133.417  37.697 -25.668  1.00  0.00     0.033 C
HETATM   25  C17 UNL     1     132.091  38.352 -25.505  1.00  0.00     0.007 C
BRANCH  23  26
HETATM   26  N1  UNL     1     134.278  38.606 -27.787  1.00  0.00    -0.075 N
ATOM     27  H13 UNL     1     135.137  38.986 -27.390  1.00  0.00     0.274 HD
ATOM     28  H12 UNL     1     134.631  38.373 -28.715  1.00  0.00     0.274 HD
ATOM     29  H11 UNL     1     133.535  39.305 -27.826  1.00  0.00     0.274 HD
ENDBRANCH  23  26
ENDBRANCH  19  20
ENDBRANCH   1  19
BRANCH   1  30
HETATM   30  N2  UNL     1     129.031  38.656 -23.819  1.00  0.00    -0.365 N
ATOM     31  H2  UNL     1     128.787  38.400 -22.863  1.00  0.00     0.162 HD
BRANCH  30  32
HETATM   32  C18 UNL     1     128.889  39.880 -24.081  1.00  0.00     0.118 A
HETATM   33  C19 UNL     1     127.638  40.400 -24.453  1.00  0.00     0.076 A
HETATM   34  C20 UNL     1     127.782  41.749 -24.676  1.00  0.00     0.033 A
HETATM   35  N3  UNL     1     129.071  42.037 -24.449  1.00  0.00    -0.303 N
HETATM   36  N4  UNL     1     129.711  40.928 -24.100  1.00  0.00    -0.286 N
ATOM     37  H3  UNL     1     129.494  42.962 -24.531  1.00  0.00     0.186 HD
ATOM     38  H4  UNL     1     130.705  40.884 -23.875  1.00  0.00     0.188 HD
BRANCH  34  39
HETATM   39  C21 UNL     1     126.697  42.700 -25.094  1.00  0.00     0.037 A
HETATM   40  C22 UNL     1     126.344  42.599 -26.604  1.00  0.00     0.011 A
HETATM   41  C23 UNL     1     127.000  43.812 -26.011  1.00  0.00     0.011 A
ENDBRANCH  34  39
ENDBRANCH  30  32
ENDBRANCH   1  30
TORSDOF 12
ENDMDL