MODEL 4
REMARK VINA RESULT: -7.578803162      2.946      5.091
REMARK  10 active torsions:
REMARK  status: ('A' for Active; 'I' for Inactive)
REMARK    1  A    between atoms: O1_1  and  C1_3
REMARK    2  A    between atoms: C1_3  and  C2_4
REMARK    3  A    between atoms: C7_10  and  C8_11
REMARK    4  A    between atoms: C13_20  and  C14_21
REMARK    5  A    between atoms: C14_21  and  C15_22
REMARK    6  A    between atoms: C16_23  and  C17_24
REMARK    7  A    between atoms: C17_24  and  C18_25
REMARK    8  A    between atoms: C18_25  and  C19_26
REMARK    9  A    between atoms: C20_28  and  O3_29
REMARK   10  A    between atoms: C21_31  and  O4_32
ROOT
HETATM    1  C2  UNL     1     128.624  41.380 -22.678  1.00  0.00     0.155 C
HETATM    2  O2  UNL     1     129.246  40.145 -22.560  1.00  0.00    -0.373 OA
HETATM    3  C3  UNL     1     130.106  40.566 -23.561  1.00  0.00     0.165 C
HETATM    4  C4  UNL     1     130.575  39.564 -24.506  1.00  0.00    -0.018 A
HETATM    5  C5  UNL     1     131.918  39.461 -24.666  1.00  0.00     0.011 A
HETATM    6  C6  UNL     1     132.482  38.550 -25.575  1.00  0.00     0.013 A
HETATM    7  C7  UNL     1     131.694  37.727 -26.341  1.00  0.00    -0.022 A
HETATM    8  C11 UNL     1     130.313  37.839 -26.171  1.00  0.00     0.024 A
HETATM    9  C12 UNL     1     129.760  38.726 -25.284  1.00  0.00    -0.021 A
HETATM   10  C13 UNL     1     128.308  38.720 -25.227  1.00  0.00    -0.035 C
HETATM   11  C20 UNL     1     127.699  40.016 -25.685  1.00  0.00     0.177 C
HETATM   12  C21 UNL     1     128.304  41.264 -25.246  1.00  0.00     0.160 C
HETATM   13  C22 UNL     1     129.087  41.500 -24.065  1.00  0.00     0.082 C
ENDROOT
BRANCH   7  14
HETATM   14  C8  UNL     1     132.240  36.769 -27.297  1.00  0.00     0.008 A
HETATM   15  C9  UNL     1     133.359  36.973 -28.072  1.00  0.00     0.120 A
HETATM   16  N1  UNL     1     133.554  35.879 -28.824  1.00  0.00    -0.311 N
HETATM   17  N2  UNL     1     132.627  34.979 -28.580  1.00  0.00    -0.311 N
ATOM     18  H1  UNL     1     134.316  35.762 -29.492  1.00  0.00     0.186 HD
HETATM   19  C10 UNL     1     131.818  35.508 -27.651  1.00  0.00     0.120 A
ATOM     20  H2  UNL     1     132.540  34.060 -29.013  1.00  0.00     0.186 HD
ENDBRANCH   7  14
BRANCH  10  21
HETATM   21  C14 UNL     1     127.597  37.502 -25.725  1.00  0.00     0.064 C
BRANCH  21  22
HETATM   22  C15 UNL     1     126.994  36.670 -24.658  1.00  0.00    -0.026 C
HETATM   23  C16 UNL     1     127.494  35.550 -24.194  1.00  0.00    -0.030 C
BRANCH  23  24
HETATM   24  C17 UNL     1     128.711  34.862 -24.585  1.00  0.00     0.027 C
BRANCH  24  25
HETATM   25  C18 UNL     1     128.838  33.428 -24.144  1.00  0.00     0.014 C
BRANCH  25  26
HETATM   26  C19 UNL     1     128.027  33.051 -22.944  1.00  0.00     0.085 C
HETATM   27 BR1  UNL     1     126.306  32.335 -23.352  1.00  0.00    -0.097 Br
ENDBRANCH  25  26
ENDBRANCH  24  25
ENDBRANCH  23  24
ENDBRANCH  21  22
ENDBRANCH  10  21
BRANCH  11  28
HETATM   28  O3  UNL     1     126.300  39.960 -25.581  1.00  0.00    -0.389 OA
ATOM     29  H3  UNL     1     125.899  40.142 -26.423  1.00  0.00     0.210 HD
ENDBRANCH  11  28
BRANCH  12  30
HETATM   30  O4  UNL     1     127.253  42.244 -25.377  1.00  0.00    -0.392 OA
ATOM     31  H4  UNL     1     126.694  42.096 -24.623  1.00  0.00     0.210 HD
ENDBRANCH  12  30
BRANCH   1  32
HETATM   32  C1  UNL     1     127.180  41.438 -22.320  1.00  0.00     0.196 C
BRANCH  32  33
HETATM   33  O1  UNL     1     127.021  42.638 -21.575  1.00  0.00    -0.398 OA
ATOM     34  H1  UNL     1     126.126  42.917 -21.732  1.00  0.00     0.209 HD
ENDBRANCH  32  33
ENDBRANCH   1  32
TORSDOF 10
ENDMDL