MODEL 5
REMARK VINA RESULT: -8.261537051      4.592      7.894
REMARK  6 active torsions:
REMARK  status: ('A' for Active; 'I' for Inactive)
REMARK    1  A    between atoms: C4_4  and  C5_5
REMARK    2  A    between atoms: C6_6  and  C7_7
REMARK    3  A    between atoms: C7_7  and  C8_8
REMARK    4  A    between atoms: C12_12  and  C13_13
REMARK    5  A    between atoms: C13_13  and  N1_16
REMARK       I    between atoms: N1_16  and  C16_18
REMARK       I    between atoms: C16_18  and  N2_19
REMARK       I    between atoms: C16_18  and  N3_23
REMARK    6  A    between atoms: C25_38  and  O1_39
ROOT
HETATM    1  C13 UNL     1     125.021  37.155 -24.045  1.00  0.00     0.026 C
HETATM    2  C14 UNL     1     124.408  37.597 -25.383  1.00  0.00     0.038 C
HETATM    3  C15 UNL     1     124.317  37.922 -22.985  1.00  0.00     0.038 C
ENDROOT
BRANCH   1   4
HETATM    4  C12 UNL     1     126.475  37.613 -24.105  1.00  0.00     0.026 A
HETATM    5  C11 UNL     1     127.562  36.738 -23.598  1.00  0.00     0.021 A
HETATM    6  C10 UNL     1     128.672  36.479 -24.468  1.00  0.00    -0.014 C
HETATM    7  C21 UNL     1     127.264  37.922 -22.914  1.00  0.00     0.011 A
HETATM    8  C4  UNL     1     129.920  36.879 -24.748  1.00  0.00    -0.058 C
HETATM    9  C3  UNL     1     130.719  37.932 -24.119  1.00  0.00     0.074 C
HETATM   10  C2  UNL     1     130.052  39.254 -24.297  1.00  0.00    -0.056 C
HETATM   11  C1  UNL     1     130.808  40.231 -24.735  1.00  0.00     0.017 C
HETATM   12  C25 UNL     1     128.665  39.710 -24.081  1.00  0.00     0.155 C
HETATM   13  C22 UNL     1     128.023  39.160 -22.865  1.00  0.00    -0.013 C
HETATM   14  C23 UNL     1     127.009  40.243 -22.413  1.00  0.00     0.018 C
HETATM   15  C24 UNL     1     129.031  39.085 -21.727  1.00  0.00     0.018 C
BRANCH   8  16
HETATM   16  C5  UNL     1     130.560  36.162 -25.825  1.00  0.00     0.003 C
HETATM   17  C6  UNL     1     131.153  36.605 -26.877  1.00  0.00    -0.026 C
BRANCH  17  18
HETATM   18  C7  UNL     1     131.746  35.659 -27.862  1.00  0.00     0.027 C
BRANCH  18  19
HETATM   19  C8  UNL     1     133.065  36.169 -28.398  1.00  0.00    -0.001 C
HETATM   20  C9  UNL     1     133.413  37.423 -27.613  1.00  0.00     0.005 C
ENDBRANCH  18  19
ENDBRANCH  17  18
ENDBRANCH   8  16
BRANCH  12  21
HETATM   21  O1  UNL     1     128.713  41.101 -23.961  1.00  0.00    -0.390 OA
ATOM     22  H1  UNL     1     129.629  41.349 -24.004  1.00  0.00     0.210 HD
ENDBRANCH  12  21
ENDBRANCH   1   4
BRANCH   1  23
HETATM   23  N1  UNL     1     125.061  35.756 -23.904  1.00  0.00    -0.372 N
HETATM   24  C16 UNL     1     123.858  35.047 -23.644  1.00  0.00     0.384 C
HETATM   25  N2  UNL     1     122.835  35.196 -24.628  1.00  0.00    -0.041 N
HETATM   26  N3  UNL     1     123.381  35.190 -22.287  1.00  0.00    -0.333 N
ATOM     27  H23 UNL     1     122.633  36.184 -24.776  1.00  0.00     0.279 HD
ATOM     28  H22 UNL     1     123.195  34.946 -25.548  1.00  0.00     0.279 HD
ATOM     29  H21 UNL     1     121.970  34.687 -24.440  1.00  0.00     0.279 HD
HETATM   30  C17 UNL     1     122.618  34.327 -21.754  1.00  0.00     0.107 A
ATOM     31  H3  UNL     1     123.667  36.004 -21.743  1.00  0.00     0.164 HD
HETATM   32  C18 UNL     1     122.152  33.187 -22.356  1.00  0.00     0.065 A
HETATM   33  N5  UNL     1     122.236  34.566 -20.465  1.00  0.00    -0.319 N
HETATM   34  C19 UNL     1     121.316  32.322 -21.641  1.00  0.00     0.094 A
HETATM   35  N4  UNL     1     120.967  32.596 -20.376  1.00  0.00    -0.343 N
HETATM   36  C20 UNL     1     121.433  33.719 -19.799  1.00  0.00     0.180 A
ATOM     37  H4  UNL     1     120.359  31.963 -19.858  1.00  0.00     0.167 HD
HETATM   38 CL1  UNL     1     120.971  34.073 -18.135  1.00  0.00    -0.045 Cl
ATOM     39  H5  UNL     1     122.569  35.408 -19.996  1.00  0.00     0.170 HD
ATOM     40  H1  UNL     1     125.945  35.255 -23.989  1.00  0.00     0.157 HD
ENDBRANCH   1  23
TORSDOF 6
ENDMDL