MODEL 4
REMARK VINA RESULT: -8.480129828      3.714      6.677
REMARK  8 active torsions:
REMARK  status: ('A' for Active; 'I' for Inactive)
REMARK    1  A    between atoms: C2_2  and  C3_3
REMARK    2  A    between atoms: C4_4  and  C5_5
REMARK    3  A    between atoms: C5_5  and  C6_6
REMARK    4  A    between atoms: C6_6  and  C7_7
REMARK    5  A    between atoms: C13_17  and  C14_18
REMARK    6  A    between atoms: C14_18  and  C15_19
REMARK    7  A    between atoms: C15_19  and  N3_20
REMARK    8  A    between atoms: C19_24  and  N4_25
ROOT
HETATM    1  C14 UNL     1     131.257  39.769 -23.527  1.00  0.00     0.035 C
ENDROOT
BRANCH   1   2
HETATM    2  C13 UNL     1     129.830  40.337 -23.525  1.00  0.00    -0.012 C
HETATM    3  C12 UNL     1     128.889  39.388 -22.942  1.00  0.00     0.005 C
HETATM    4  C11 UNL     1     127.697  38.964 -23.731  1.00  0.00     0.002 C
HETATM    5  C10 UNL     1     127.136  39.908 -24.725  1.00  0.00     0.017 C
HETATM    6  C6  UNL     1     127.978  41.150 -24.908  1.00  0.00     0.014 C
HETATM    7  C25 UNL     1     129.443  40.801 -24.893  1.00  0.00     0.021 C
BRANCH   6   8
HETATM    8  C5  UNL     1     127.582  41.756 -26.244  1.00  0.00     0.109 C
BRANCH   8   9
HETATM    9  C4  UNL     1     128.582  42.794 -26.515  1.00  0.00    -0.105 C
HETATM   10  C3  UNL     1     129.397  43.652 -26.761  1.00  0.00    -0.107 C
BRANCH  10  11
HETATM   11  C2  UNL     1     130.377  44.725 -27.079  1.00  0.00     0.089 C
HETATM   12  C1  UNL     1     130.896  44.549 -28.509  1.00  0.00     0.018 C
ENDBRANCH  10  11
ENDBRANCH   8   9
ENDBRANCH   6   8
BRANCH   6  13
HETATM   13  C7  UNL     1     127.668  42.166 -23.882  1.00  0.00     0.036 A
HETATM   14  C8  UNL     1     126.415  42.430 -23.350  1.00  0.00     0.046 A
HETATM   15  C9  UNL     1     126.558  43.464 -22.413  1.00  0.00     0.109 A
HETATM   16  N1  UNL     1     127.851  43.782 -22.407  1.00  0.00    -0.312 N
HETATM   17  N2  UNL     1     128.497  43.020 -23.268  1.00  0.00    -0.304 N
ATOM     18  H1  UNL     1     128.276  44.504 -21.825  1.00  0.00     0.186 HD
ATOM     19  H2  UNL     1     129.500  43.075 -23.445  1.00  0.00     0.186 HD
ENDBRANCH   6  13
ENDBRANCH   1   2
BRANCH   1  20
HETATM   20  C15 UNL     1     131.837  39.640 -24.881  1.00  0.00     0.273 C
BRANCH  20  21
HETATM   21  N3  UNL     1     131.787  38.409 -25.543  1.00  0.00     0.090 N
HETATM   22  C16 UNL     1     132.827  37.895 -26.325  1.00  0.00     0.272 C
HETATM   23  C17 UNL     1     132.132  37.093 -27.448  1.00  0.00     0.032 C
HETATM   24  C18 UNL     1     131.126  36.185 -26.828  1.00  0.00     0.029 C
HETATM   25  C19 UNL     1     131.214  36.065 -25.330  1.00  0.00     0.122 C
HETATM   26  C24 UNL     1     131.263  37.337 -24.618  1.00  0.00     0.298 C
BRANCH  25  27
HETATM   27  N4  UNL     1     130.334  35.084 -24.809  1.00  0.00    -0.300 N
HETATM   28  C20 UNL     1     128.971  35.238 -24.890  1.00  0.00     0.142 A
HETATM   29  C21 UNL     1     128.073  34.299 -24.451  1.00  0.00     0.175 A
HETATM   30  F1  UNL     1     126.729  34.572 -24.584  1.00  0.00    -0.201 F
HETATM   31  C22 UNL     1     128.435  33.147 -23.905  1.00  0.00     0.143 A
HETATM   32  N5  UNL     1     127.769  32.142 -23.490  1.00  0.00    -0.383 N
HETATM   33  N6  UNL     1     129.824  32.985 -23.818  1.00  0.00    -0.292 N
ATOM     34  H52 UNL     1     126.758  32.261 -23.553  1.00  0.00     0.157 HD
ATOM     35  H51 UNL     1     128.048  31.256 -23.069  1.00  0.00     0.157 HD
HETATM   36  C23 UNL     1     130.687  33.886 -24.239  1.00  0.00     0.328 A
ATOM     37  H6  UNL     1     130.185  32.123 -23.407  1.00  0.00     0.172 HD
HETATM   38  O1  UNL     1     131.892  33.609 -24.102  1.00  0.00    -0.246 OA
ENDBRANCH  25  27
ENDBRANCH  20  21
ENDBRANCH   1  20
TORSDOF 8
ENDMDL