MODEL 1
REMARK VINA RESULT: -8.257809012      0.000      0.000
REMARK  8 active torsions:
REMARK  status: ('A' for Active; 'I' for Inactive)
REMARK    1  A    between atoms: C2_2  and  C3_3
REMARK    2  A    between atoms: C2_2  and  C4_6
REMARK    3  A    between atoms: C3_3  and  O1_4
REMARK    4  A    between atoms: C15_18  and  C16_19
REMARK    5  A    between atoms: C16_19  and  O2_20
REMARK    6  A    between atoms: C19_26  and  N2_27
REMARK       I    between atoms: N2_27  and  C20_29
REMARK       I    between atoms: C20_29  and  N3_31
REMARK    7  A    between atoms: N3_31  and  O4_33
REMARK    8  A    between atoms: O4_33  and  C21_34
ROOT
HETATM    1  C4  UNL     1     130.637  38.840 -23.095  1.00  0.00     0.022 C
HETATM    2  C5  UNL     1     131.400  39.711 -24.229  1.00  0.00     0.010 C
HETATM    3  C6  UNL     1     131.571  38.798 -25.375  1.00  0.00     0.010 C
HETATM    4  C7  UNL     1     131.236  37.459 -24.800  1.00  0.00    -0.038 C
HETATM    5  C8  UNL     1     132.444  37.089 -23.937  1.00  0.00     0.015 C
HETATM    6  C9  UNL     1     131.100  36.387 -25.782  1.00  0.00     0.013 C
HETATM    7  C10 UNL     1     129.715  36.200 -26.262  1.00  0.00     0.046 C
HETATM    8  C11 UNL     1     128.945  36.037 -24.965  1.00  0.00     0.126 C
HETATM    9  F1  UNL     1     129.757  35.274 -24.124  1.00  0.00    -0.241 F
HETATM   10  C12 UNL     1     127.732  35.224 -25.203  1.00  0.00     0.037 C
HETATM   11  C13 UNL     1     127.400  34.281 -24.056  1.00  0.00     0.011 C
HETATM   12  C14 UNL     1     125.906  34.449 -23.836  1.00  0.00     0.034 C
HETATM   13  C15 UNL     1     125.781  35.920 -24.134  1.00  0.00     0.058 C
HETATM   14  N1  UNL     1     126.616  36.568 -23.133  1.00  0.00    -0.389 N
ATOM     15  H1  UNL     1     126.240  36.562 -22.185  1.00  0.00     0.159 HD
HETATM   16  C17 UNL     1     127.756  37.149 -23.266  1.00  0.00     0.076 C
HETATM   17  C18 UNL     1     128.740  37.441 -24.330  1.00  0.00     0.075 C
HETATM   18  C19 UNL     1     127.879  38.151 -25.253  1.00  0.00     0.028 C
HETATM   19  C23 UNL     1     126.837  37.407 -25.772  1.00  0.00     0.007 C
HETATM   20  C24 UNL     1     126.537  36.013 -25.470  1.00  0.00     0.047 C
HETATM   21  C25 UNL     1     130.058  37.806 -23.906  1.00  0.00     0.025 C
ENDROOT
BRANCH  18  22
HETATM   22  N2  UNL     1     127.617  39.461 -25.592  1.00  0.00    -0.310 N
HETATM   23  C20 UNL     1     128.002  40.639 -26.168  1.00  0.00     0.344 C
HETATM   24  O3  UNL     1     128.990  41.079 -26.680  1.00  0.00    -0.245 OA
HETATM   25  N3  UNL     1     126.833  41.608 -26.123  1.00  0.00    -0.216 N
ATOM     26  H3  UNL     1     125.937  41.368 -25.699  1.00  0.00     0.199 HD
ATOM     27  H2  UNL     1     126.676  39.639 -25.240  1.00  0.00     0.170 HD
BRANCH  25  28
HETATM   28  O4  UNL     1     127.081  42.869 -26.713  1.00  0.00    -0.277 OA
BRANCH  28  29
HETATM   29  C21 UNL     1     125.694  43.374 -26.738  1.00  0.00     0.197 C
HETATM   30  C22 UNL     1     124.956  42.380 -27.568  1.00  0.00     0.036 C
ENDBRANCH  28  29
ENDBRANCH  25  28
ENDBRANCH  18  22
BRANCH   1  31
HETATM   31  C2  UNL     1     130.064  39.830 -22.249  1.00  0.00    -0.061 C
HETATM   32  C1  UNL     1     129.460  40.929 -22.756  1.00  0.00     0.017 C
BRANCH  31  33
HETATM   33  C3  UNL     1     129.836  39.671 -20.803  1.00  0.00     0.198 C
BRANCH  33  34
HETATM   34  O1  UNL     1     128.515  39.341 -20.467  1.00  0.00    -0.397 OA
ATOM     35  H1  UNL     1     128.356  38.407 -20.396  1.00  0.00     0.209 HD
ENDBRANCH  33  34
ENDBRANCH  31  33
ENDBRANCH   1  31
BRANCH  13  36
HETATM   36  C16 UNL     1     124.435  36.457 -24.170  1.00  0.00     0.195 C
BRANCH  36  37
HETATM   37  O2  UNL     1     123.665  35.821 -25.127  1.00  0.00    -0.398 OA
ATOM     38  H2  UNL     1     122.874  36.313 -25.316  1.00  0.00     0.209 HD
ENDBRANCH  36  37
ENDBRANCH  13  36
TORSDOF 8
ENDMDL