MODEL 3
REMARK VINA RESULT: -7.763845725      2.666      5.215
REMARK  9 active torsions:
REMARK  status: ('A' for Active; 'I' for Inactive)
REMARK    1  A    between atoms: C5_6  and  O1_7
REMARK    2  A    between atoms: C7_10  and  O2_11
REMARK    3  A    between atoms: C9_14  and  O3_16
REMARK    4  A    between atoms: C11_18  and  C12_19
REMARK    5  A    between atoms: C12_19  and  C13_20
REMARK    6  A    between atoms: C13_20  and  C14_21
REMARK    7  A    between atoms: C14_21  and  C16_23
REMARK    8  A    between atoms: C17_24  and  C18_25
REMARK    9  A    between atoms: C19_26  and  C20_27
ROOT
HETATM    1  C1  UNL     1     131.320  39.336 -23.445  1.00  0.00     0.016 C
HETATM    2  C2  UNL     1     130.099  39.042 -23.760  1.00  0.00    -0.067 C
HETATM    3  C3  UNL     1     128.996  39.137 -22.794  1.00  0.00     0.093 C
HETATM    4 BR1  UNL     1     129.689  39.669 -21.079  1.00  0.00    -0.086 Br
HETATM    5  C4  UNL     1     128.078  40.223 -23.279  1.00  0.00     0.042 C
HETATM    6  C5  UNL     1     128.644  41.535 -22.715  1.00  0.00     0.126 C
HETATM    7  C6  UNL     1     128.180  42.538 -23.726  1.00  0.00     0.064 C
HETATM    8  C7  UNL     1     128.390  41.814 -25.032  1.00  0.00     0.128 C
HETATM    9  C8  UNL     1     127.963  40.377 -24.725  1.00  0.00     0.057 C
HETATM   10  C9  UNL     1     128.567  39.379 -25.648  1.00  0.00     0.068 C
HETATM   11  C10 UNL     1     127.500  38.420 -26.131  1.00  0.00     0.047 C
HETATM   12  C11 UNL     1     129.730  38.580 -25.130  1.00  0.00     0.049 C
ENDROOT
BRANCH  12  13
HETATM   13  C12 UNL     1     130.958  38.588 -25.951  1.00  0.00     0.013 C
BRANCH  13  14
HETATM   14  C13 UNL     1     131.132  37.612 -27.041  1.00  0.00     0.009 C
BRANCH  14  15
HETATM   15  C14 UNL     1     131.395  36.189 -26.627  1.00  0.00     0.004 C
HETATM   16  C15 UNL     1     131.803  35.322 -27.801  1.00  0.00     0.014 C
BRANCH  15  17
HETATM   17  C16 UNL     1     130.075  35.646 -26.165  1.00  0.00    -0.023 C
HETATM   18  C17 UNL     1     129.943  35.073 -24.984  1.00  0.00    -0.004 C
BRANCH  18  19
HETATM   19  C18 UNL     1     128.707  34.534 -24.485  1.00  0.00    -0.002 C
HETATM   20  C19 UNL     1     127.648  35.289 -24.268  1.00  0.00     0.008 C
BRANCH  20  21
HETATM   21  C20 UNL     1     126.378  34.744 -23.757  1.00  0.00     0.179 A
HETATM   22  O4  UNL     1     125.221  35.137 -24.599  1.00  0.00    -0.366 OA
HETATM   23  C21 UNL     1     125.358  35.591 -23.224  1.00  0.00     0.084 A
HETATM   24  C22 UNL     1     124.266  35.048 -22.356  1.00  0.00     0.049 C
HETATM   25  C23 UNL     1     125.540  37.089 -23.152  1.00  0.00     0.049 C
ENDBRANCH  20  21
ENDBRANCH  18  19
ENDBRANCH  15  17
ENDBRANCH  14  15
ENDBRANCH  13  14
ENDBRANCH  12  13
BRANCH  10  26
HETATM   26  O3  UNL     1     129.006  40.105 -26.754  1.00  0.00    -0.389 OA
ATOM     27  H3  UNL     1     129.849  40.465 -26.507  1.00  0.00     0.210 HD
ENDBRANCH  10  26
BRANCH   8  28
HETATM   28  O2  UNL     1     129.702  41.934 -25.404  1.00  0.00    -0.395 OA
ATOM     29  H2  UNL     1     129.976  42.837 -25.291  1.00  0.00     0.210 HD
ENDBRANCH   8  28
BRANCH   6  30
HETATM   30  O1  UNL     1     128.094  41.826 -21.483  1.00  0.00    -0.395 OA
ATOM     31  H1  UNL     1     128.535  42.563 -21.077  1.00  0.00     0.210 HD
ENDBRANCH   6  30
TORSDOF 9
ENDMDL