MODEL 2
REMARK VINA RESULT: -7.539708167      1.440      1.617
REMARK  7 active torsions:
REMARK  status: ('A' for Active; 'I' for Inactive)
REMARK    1  A    between atoms: N2_15  and  C13_16
REMARK    2  A    between atoms: C13_16  and  C14_17
REMARK    3  A    between atoms: C15_20  and  C16_21
REMARK    4  A    between atoms: C16_21  and  N3_22
REMARK    5  A    between atoms: C21_30  and  C22_31
REMARK    6  A    between atoms: C22_31  and  C23_32
REMARK    7  A    between atoms: C23_32  and  O3_33
ROOT
HETATM    1  C1  UNL     1     132.823  36.279 -25.054  1.00  0.00     0.021 C
HETATM    2  C2  UNL     1     131.709  36.560 -25.993  1.00  0.00    -0.004 C
HETATM    3  C3  UNL     1     131.898  35.711 -27.218  1.00  0.00     0.021 C
HETATM    4  C4  UNL     1     131.623  38.022 -26.455  1.00  0.00     0.016 C
HETATM    5  C5  UNL     1     131.573  38.757 -25.190  1.00  0.00     0.015 C
HETATM    6  C6  UNL     1     130.211  38.705 -24.445  1.00  0.00    -0.016 C
HETATM    7  C7  UNL     1     129.519  39.807 -25.230  1.00  0.00     0.020 C
HETATM    8  C8  UNL     1     130.711  39.100 -23.088  1.00  0.00     0.020 C
HETATM    9  C9  UNL     1     129.692  37.366 -24.629  1.00  0.00     0.002 A
HETATM   10  C10 UNL     1     130.395  36.364 -25.336  1.00  0.00     0.027 A
HETATM   11  N1  UNL     1     129.696  35.223 -25.342  1.00  0.00    -0.358 N
ATOM     12  H1  UNL     1     129.988  34.352 -25.786  1.00  0.00     0.165 HD
HETATM   13  C11 UNL     1     128.553  35.410 -24.673  1.00  0.00     0.059 A
HETATM   14  C12 UNL     1     128.535  36.732 -24.225  1.00  0.00     0.066 A
HETATM   15  N2  UNL     1     127.357  37.132 -23.463  1.00  0.00    -0.346 N
HETATM   16  C15 UNL     1     126.178  36.326 -23.609  1.00  0.00     0.209 C
HETATM   17  N4  UNL     1     126.249  35.192 -24.455  1.00  0.00    -0.390 N
ATOM     18  H4  UNL     1     125.476  34.934 -25.069  1.00  0.00     0.156 HD
HETATM   19  C21 UNL     1     127.428  34.443 -24.411  1.00  0.00     0.133 C
ENDROOT
BRANCH  16  20
HETATM   20  C16 UNL     1     124.866  36.985 -23.873  1.00  0.00     0.318 C
BRANCH  20  21
HETATM   21  N3  UNL     1     123.655  36.344 -23.547  1.00  0.00     0.093 N
HETATM   22  C17 UNL     1     122.482  36.976 -24.120  1.00  0.00     0.274 C
HETATM   23  C18 UNL     1     121.463  36.992 -23.013  1.00  0.00     0.052 C
HETATM   24  C19 UNL     1     122.323  37.193 -21.784  1.00  0.00     0.112 C
HETATM   25 CL1  UNL     1     122.844  38.874 -21.626  1.00  0.00    -0.123 Cl
HETATM   26  C20 UNL     1     123.501  36.287 -22.128  1.00  0.00     0.292 C
ENDBRANCH  20  21
ENDBRANCH  16  20
BRANCH  15  27
HETATM   27  C13 UNL     1     127.483  38.243 -22.599  1.00  0.00     0.238 C
BRANCH  27  28
HETATM   28  C14 UNL     1     126.621  39.419 -22.926  1.00  0.00     0.191 C
HETATM   29  O1  UNL     1     126.054  39.972 -21.955  1.00  0.00    -0.647 OA
HETATM   30  O2  UNL     1     126.511  39.806 -24.237  1.00  0.00    -0.647 OA
ENDBRANCH  27  28
ENDBRANCH  15  27
BRANCH  19  31
HETATM   31  C22 UNL     1     127.684  33.615 -23.197  1.00  0.00     0.057 C
BRANCH  31  32
HETATM   32  C23 UNL     1     128.339  32.290 -23.564  1.00  0.00     0.166 C
BRANCH  32  33
HETATM   33  O3  UNL     1     129.729  32.413 -23.549  1.00  0.00    -0.401 OA
ATOM     34  H3  UNL     1     130.027  32.897 -24.309  1.00  0.00     0.209 HD
ENDBRANCH  32  33
ENDBRANCH  31  32
ENDBRANCH  19  31
TORSDOF 7
ENDMDL