MODEL 1
REMARK VINA RESULT: -9.159197578      0.000      0.000
REMARK  9 active torsions:
REMARK  status: ('A' for Active; 'I' for Inactive)
REMARK    1  A    between atoms: C2_2  and  C3_3
REMARK    2  A    between atoms: C3_3  and  C4_4
REMARK    3  A    between atoms: C3_3  and  N1_7
REMARK    4  A    between atoms: C4_4  and  O1_5
REMARK    5  A    between atoms: N1_7  and  C5_9
REMARK    6  A    between atoms: C7_11  and  C8_12
REMARK    7  A    between atoms: C11_19  and  C12_20
REMARK    8  A    between atoms: C15_23  and  C16_24
REMARK    9  A    between atoms: C16_24  and  N4_25
ROOT
HETATM    1  C8  UNL     1     127.306  34.803 -24.396  1.00  0.00     0.048 A
HETATM    2  C9  UNL     1     126.871  35.963 -25.056  1.00  0.00     0.063 A
HETATM    3  C10 UNL     1     125.491  36.016 -25.022  1.00  0.00     0.079 A
HETATM    4  N2  UNL     1     124.377  36.660 -25.413  1.00  0.00    -0.298 N
ATOM      5  H2  UNL     1     124.340  37.532 -25.941  1.00  0.00     0.187 HD
HETATM    6  N3  UNL     1     123.320  35.947 -24.984  1.00  0.00    -0.302 N
ATOM      7  H3  UNL     1     122.347  36.207 -25.144  1.00  0.00     0.186 HD
HETATM    8  C11 UNL     1     123.713  34.847 -24.314  1.00  0.00     0.059 A
HETATM    9  C22 UNL     1     125.091  34.888 -24.338  1.00  0.00     0.085 A
HETATM   10  N5  UNL     1     126.200  34.194 -23.979  1.00  0.00    -0.352 N
ATOM     11  H5  UNL     1     126.186  33.317 -23.458  1.00  0.00     0.166 HD
ENDROOT
BRANCH   1  12
HETATM   12  C7  UNL     1     128.709  34.416 -24.329  1.00  0.00     0.034 A
HETATM   13  C6  UNL     1     129.679  35.153 -24.945  1.00  0.00     0.065 A
HETATM   14  C5  UNL     1     131.034  34.830 -25.031  1.00  0.00     0.102 A
HETATM   15  N6  UNL     1     131.417  33.639 -24.419  1.00  0.00    -0.350 N
HETATM   16  C24 UNL     1     130.460  32.929 -23.817  1.00  0.00     0.133 A
ATOM     17  H6  UNL     1     132.387  33.324 -24.430  1.00  0.00     0.166 HD
HETATM   18  C23 UNL     1     129.134  33.234 -23.728  1.00  0.00     0.144 A
HETATM   19  F1  UNL     1     128.273  32.405 -23.057  1.00  0.00    -0.204 F
BRANCH  14  20
HETATM   20  N1  UNL     1     131.852  35.538 -25.646  1.00  0.00    -0.370 N
ATOM     21  H1  UNL     1     132.634  35.712 -25.015  1.00  0.00     0.161 HD
BRANCH  20  22
HETATM   22  C3  UNL     1     132.129  36.174 -26.812  1.00  0.00     0.106 C
BRANCH  22  23
HETATM   23  C2  UNL     1     131.325  37.393 -27.180  1.00  0.00     0.023 C
HETATM   24  C1  UNL     1     131.174  38.342 -25.999  1.00  0.00     0.007 C
ENDBRANCH  22  23
BRANCH  22  25
HETATM   25  C4  UNL     1     131.904  35.164 -27.974  1.00  0.00     0.189 C
BRANCH  25  26
HETATM   26  O1  UNL     1     133.084  34.748 -28.534  1.00  0.00    -0.399 OA
ATOM     27  H1  UNL     1     132.969  34.435 -29.423  1.00  0.00     0.209 HD
ENDBRANCH  25  26
ENDBRANCH  22  25
ENDBRANCH  20  22
ENDBRANCH  14  20
ENDBRANCH   1  12
BRANCH   8  28
HETATM   28  C12 UNL     1     122.827  33.928 -23.595  1.00  0.00     0.040 C
HETATM   29  C13 UNL     1     121.855  33.205 -24.514  1.00  0.00     0.011 C
HETATM   30  C14 UNL     1     120.984  32.594 -23.357  1.00  0.00     0.007 C
HETATM   31  C15 UNL     1     120.572  33.869 -22.664  1.00  0.00     0.015 C
HETATM   32  C21 UNL     1     121.749  34.800 -22.855  1.00  0.00     0.017 C
BRANCH  31  33
HETATM   33  C16 UNL     1     120.306  33.730 -21.196  1.00  0.00     0.277 C
BRANCH  33  34
HETATM   34  N4  UNL     1     121.533  33.373 -20.440  1.00  0.00     0.092 N
HETATM   35  C17 UNL     1     121.458  32.003 -19.969  1.00  0.00     0.298 C
HETATM   36  C18 UNL     1     120.392  31.806 -18.940  1.00  0.00     0.198 C
HETATM   37  O2  UNL     1     120.711  32.582 -17.815  1.00  0.00    -0.388 OA
HETATM   38  C19 UNL     1     120.696  33.904 -18.168  1.00  0.00     0.198 C
HETATM   39  C20 UNL     1     121.630  34.237 -19.272  1.00  0.00     0.298 C
ENDBRANCH  33  34
ENDBRANCH  31  33
ENDBRANCH   8  28
TORSDOF 9
ENDMDL