MODEL 2
REMARK VINA RESULT: -8.327155697      2.349      4.224
REMARK  7 active torsions:
REMARK  status: ('A' for Active; 'I' for Inactive)
REMARK    1  A    between atoms: O1_2  and  C2_3
REMARK    2  A    between atoms: C2_3  and  C3_4
REMARK    3  A    between atoms: C3_4  and  N1_5
REMARK    4  A    between atoms: C5_10  and  C6_11
REMARK    5  A    between atoms: C10_15  and  C11_16
REMARK    6  A    between atoms: C21_34  and  N7_35
REMARK    7  A    between atoms: N7_35  and  C22_37
ROOT
HETATM    1  C6  UNL     1     126.520  34.601 -23.824  1.00  0.00     0.037 A
HETATM    2  C7  UNL     1     127.701  33.831 -23.878  1.00  0.00     0.018 A
HETATM    3  C8  UNL     1     128.730  34.595 -24.380  1.00  0.00     0.016 A
HETATM    4  C9  UNL     1     128.265  35.842 -24.660  1.00  0.00     0.006 A
HETATM    5  C10 UNL     1     128.909  36.979 -25.191  1.00  0.00     0.026 A
HETATM    6  C16 UNL     1     128.144  38.094 -25.364  1.00  0.00     0.080 A
HETATM    7  C17 UNL     1     128.705  39.255 -26.020  1.00  0.00     0.102 C
HETATM    8  N4  UNL     1     129.124  40.198 -26.583  1.00  0.00    -0.191 NA
HETATM    9  C18 UNL     1     126.807  38.082 -25.023  1.00  0.00     0.027 A
HETATM   10  C19 UNL     1     126.046  39.342 -25.240  1.00  0.00     0.070 C
HETATM   11  N5  UNL     1     126.197  36.996 -24.514  1.00  0.00    -0.357 N
ATOM     12  H5  UNL     1     125.205  37.048 -24.282  1.00  0.00     0.166 HD
HETATM   13  C20 UNL     1     126.859  35.841 -24.303  1.00  0.00     0.058 A
ENDROOT
BRANCH   5  14
HETATM   14  C11 UNL     1     130.299  36.809 -25.573  1.00  0.00     0.054 A
HETATM   15  N3  UNL     1     130.759  36.076 -26.628  1.00  0.00    -0.362 N
HETATM   16  C12 UNL     1     132.093  36.015 -26.634  1.00  0.00     0.131 A
ATOM     17  H3  UNL     1     130.160  35.632 -27.323  1.00  0.00     0.165 HD
HETATM   18  C13 UNL     1     132.571  36.716 -25.567  1.00  0.00     0.139 A
HETATM   19  F1  UNL     1     133.863  36.899 -25.218  1.00  0.00    -0.204 F
HETATM   20  C14 UNL     1     131.424  37.206 -24.911  1.00  0.00     0.006 A
HETATM   21  C15 UNL     1     131.601  37.960 -23.633  1.00  0.00     0.054 C
ENDBRANCH   5  14
BRANCH   1  22
HETATM   22  C5  UNL     1     125.233  34.087 -23.375  1.00  0.00     0.149 A
HETATM   23  N2  UNL     1     124.304  34.725 -22.686  1.00  0.00    -0.175 N
HETATM   24  C4  UNL     1     123.096  34.177 -22.353  1.00  0.00     0.694 A
ATOM     25  H2  UNL     1     124.498  35.680 -22.387  1.00  0.00     0.186 HD
HETATM   26  N1  UNL     1     122.240  34.864 -21.681  1.00  0.00    -0.223 N
HETATM   27  N8  UNL     1     122.826  32.918 -22.739  1.00  0.00    -0.022 N
ATOM     28  H1  UNL     1     121.348  34.427 -21.448  1.00  0.00     0.177 HD
HETATM   29  C21 UNL     1     123.742  32.219 -23.445  1.00  0.00     0.694 A
ATOM     30  H8  UNL     1     121.931  32.492 -22.500  1.00  0.00     0.203 HD
HETATM   31  N6  UNL     1     124.892  32.801 -23.738  1.00  0.00    -0.175 N
ATOM     32  H6  UNL     1     125.574  32.261 -24.271  1.00  0.00     0.186 HD
BRANCH  26  33
HETATM   33  C3  UNL     1     122.468  36.213 -21.240  1.00  0.00     0.164 C
BRANCH  33  34
HETATM   34  C2  UNL     1     122.115  37.235 -22.277  1.00  0.00     0.187 C
BRANCH  34  35
HETATM   35  O1  UNL     1     123.125  37.470 -23.179  1.00  0.00    -0.394 OA
HETATM   36  C1  UNL     1     122.693  37.540 -24.488  1.00  0.00     0.201 C
ENDBRANCH  34  35
ENDBRANCH  33  34
ENDBRANCH  26  33
BRANCH  29  37
HETATM   37  N7  UNL     1     123.466  31.004 -23.809  1.00  0.00    -0.222 N
ATOM     38  H7  UNL     1     124.192  30.451 -24.265  1.00  0.00     0.178 HD
BRANCH  37  39
HETATM   39  C22 UNL     1     122.175  30.409 -23.594  1.00  0.00     0.091 C
HETATM   40  C23 UNL     1     121.759  29.686 -24.852  1.00  0.00     0.032 C
HETATM   41  C24 UNL     1     122.183  29.444 -22.436  1.00  0.00     0.032 C
ENDBRANCH  37  39
ENDBRANCH  29  37
ENDBRANCH   1  22
TORSDOF 7
ENDMDL