MODEL 1
REMARK VINA RESULT: -9.074558584      0.000      0.000
REMARK  11 active torsions:
REMARK  status: ('A' for Active; 'I' for Inactive)
REMARK    1  A    between atoms: C4_4  and  N1_5
REMARK    2  A    between atoms: C6_7  and  C7_8
REMARK    3  A    between atoms: C7_8  and  N2_9
REMARK    4  A    between atoms: C7_8  and  C12_15
REMARK    5  A    between atoms: N2_9  and  C8_11
REMARK       I    between atoms: C12_15  and  N3_17
REMARK    6  A    between atoms: N3_17  and  C13_19
REMARK    7  A    between atoms: C17_26  and  C18_27
REMARK    8  A    between atoms: C20_32  and  N5_33
REMARK    9  A    between atoms: N5_33  and  C21_35
REMARK   10  A    between atoms: C21_35  and  C22_36
REMARK   11  A    between atoms: C22_36  and  O2_38
ROOT
HETATM    1  N1  UNL     1     -88.409 -12.803   8.215  1.00  0.00    -0.317 N
HETATM    2  C5  UNL     1     -89.376 -13.130   9.114  1.00  0.00     0.111 A
HETATM    3  C6  UNL     1     -90.608 -13.080   8.514  1.00  0.00     0.014 A
HETATM    4  C16 UNL     1     -90.358 -12.708   7.215  1.00  0.00     0.050 A
HETATM    5  C17 UNL     1     -88.975 -12.542   7.049  1.00  0.00     0.124 A
ENDROOT
BRANCH   3   6
HETATM    6  C7  UNL     1     -91.982 -13.348   9.091  1.00  0.00     0.109 C
BRANCH   6   7
HETATM    7  N2  UNL     1     -92.350 -14.673   9.083  1.00  0.00    -0.377 N
ATOM      8  H2  UNL     1     -93.235 -14.850   8.609  1.00  0.00     0.160 HD
BRANCH   7   9
HETATM    9  C8  UNL     1     -91.768 -15.787   9.583  1.00  0.00     0.019 C
HETATM   10  C9  UNL     1     -91.298 -16.718   8.449  1.00  0.00     0.037 C
HETATM   11  C10 UNL     1     -90.693 -15.807  10.595  1.00  0.00     0.037 C
HETATM   12  C11 UNL     1     -92.909 -16.670  10.185  1.00  0.00     0.037 C
ENDBRANCH   7   9
ENDBRANCH   6   7
BRANCH   6  13
HETATM   13  C12 UNL     1     -92.351 -12.454  10.184  1.00  0.00     0.274 C
HETATM   14  O1  UNL     1     -92.472 -11.213   9.965  1.00  0.00    -0.266 OA
HETATM   15  N3  UNL     1     -92.612 -12.779  11.523  1.00  0.00    -0.302 N
ATOM     16  H3  UNL     1     -93.575 -12.985  11.788  1.00  0.00     0.171 HD
BRANCH  15  17
HETATM   17  C13 UNL     1     -91.689 -12.832  12.451  1.00  0.00     0.151 A
HETATM   18  N4  UNL     1     -91.592 -13.708  13.450  1.00  0.00    -0.346 N
HETATM   19  C14 UNL     1     -90.588 -13.609  14.283  1.00  0.00     0.097 A
ATOM     20  H4  UNL     1     -92.289 -14.444  13.564  1.00  0.00     0.167 HD
HETATM   21  C15 UNL     1     -89.690 -12.600  14.083  1.00  0.00     0.070 A
HETATM   22  S1  UNL     1     -90.326 -11.834  12.695  1.00  0.00    -0.064 SA
ENDBRANCH  15  17
ENDBRANCH   6  13
ENDBRANCH   3   6
BRANCH   1  23
HETATM   23  C4  UNL     1     -86.998 -12.731   8.466  1.00  0.00     0.044 A
HETATM   24  C3  UNL     1     -86.404 -13.399   9.528  1.00  0.00     0.054 A
HETATM   25  C2  UNL     1     -85.044 -13.283   9.704  1.00  0.00     0.009 A
HETATM   26  C1  UNL     1     -84.365 -13.972  10.831  1.00  0.00     0.068 C
HETATM   27  N6  UNL     1     -84.287 -12.552   8.881  1.00  0.00    -0.346 N
HETATM   28  C20 UNL     1     -84.816 -11.886   7.836  1.00  0.00     0.103 A
ATOM     29  H6  UNL     1     -83.283 -12.497   9.048  1.00  0.00     0.167 HD
HETATM   30  C19 UNL     1     -86.173 -11.984   7.643  1.00  0.00     0.078 A
BRANCH  28  31
HETATM   31  N5  UNL     1     -84.016 -11.221   7.085  1.00  0.00    -0.374 N
ATOM     32  H5  UNL     1     -84.045 -10.203   7.134  1.00  0.00     0.161 HD
BRANCH  31  33
HETATM   33  C21 UNL     1     -83.076 -11.831   6.174  1.00  0.00     0.152 C
BRANCH  33  34
HETATM   34  C22 UNL     1     -83.257 -11.144   4.825  1.00  0.00     0.132 C
HETATM   35  C23 UNL     1     -82.152 -11.568   3.915  1.00  0.00     0.041 C
BRANCH  34  36
HETATM   36  O2  UNL     1     -84.527 -11.347   4.300  1.00  0.00    -0.394 OA
ATOM     37  H2  UNL     1     -85.175 -10.774   4.693  1.00  0.00     0.210 HD
ENDBRANCH  34  36
ENDBRANCH  33  34
ENDBRANCH  31  33
ENDBRANCH  28  31
ENDBRANCH   1  23
BRANCH   5  38
HETATM   38  C18 UNL     1     -88.440 -12.155   5.728  1.00  0.00     0.433 C
HETATM   39  F1  UNL     1     -89.520 -12.160   4.821  1.00  0.00    -0.165 F
HETATM   40  F2  UNL     1     -87.525 -13.098   5.294  1.00  0.00    -0.165 F
HETATM   41  F3  UNL     1     -87.876 -10.937   5.641  1.00  0.00    -0.165 F
ENDBRANCH   5  38
TORSDOF 11
ENDMDL