MODEL 5
REMARK VINA RESULT: -8.927028814      1.046      1.536
REMARK  9 active torsions:
REMARK  status: ('A' for Active; 'I' for Inactive)
REMARK    1  A    between atoms: N1_7  and  C7_8
REMARK    2  A    between atoms: N2_11  and  C10_12
REMARK    3  A    between atoms: C11_15  and  N4_16
REMARK    4  A    between atoms: N4_16  and  C12_18
REMARK    5  A    between atoms: C14_20  and  C15_21
REMARK    6  A    between atoms: C19_29  and  N7_30
REMARK    7  A    between atoms: N7_30  and  C20_32
REMARK    8  A    between atoms: C20_32  and  C21_33
REMARK    9  A    between atoms: C21_33  and  C22_34
ROOT
HETATM    1  C10 UNL     1     -89.340 -12.340  10.443  1.00  0.00     0.683 A
HETATM    2  N3  UNL     1     -88.705 -12.442   9.281  1.00  0.00    -0.176 N
ATOM      3  H3  UNL     1     -87.719 -12.184   9.245  1.00  0.00     0.186 HD
HETATM    4  C11 UNL     1     -89.294 -12.867   8.149  1.00  0.00     0.126 A
HETATM    5  C18 UNL     1     -90.631 -13.210   8.238  1.00  0.00     0.097 A
HETATM    6  C19 UNL     1     -91.314 -13.116   9.427  1.00  0.00     0.120 A
HETATM    7  N8  UNL     1     -90.630 -12.673  10.523  1.00  0.00    -0.177 N
ATOM      8  H8  UNL     1     -91.113 -12.595  11.418  1.00  0.00     0.185 HD
ENDROOT
BRANCH   1   9
HETATM    9  N2  UNL     1     -88.623 -11.863  11.590  1.00  0.00    -0.217 N
HETATM   10  C9  UNL     1     -87.803 -12.815  12.293  1.00  0.00     0.143 C
HETATM   11  C8  UNL     1     -86.498 -12.149  12.654  1.00  0.00     0.047 C
HETATM   12  C7  UNL     1     -86.767 -10.909  13.519  1.00  0.00     0.106 C
HETATM   13  C24 UNL     1     -87.587  -9.913  12.740  1.00  0.00     0.047 C
HETATM   14  C23 UNL     1     -88.744 -10.515  12.041  1.00  0.00     0.143 C
BRANCH  12  15
HETATM   15  N1  UNL     1     -85.617 -10.398  14.020  1.00  0.00    -0.313 N
HETATM   16  C6  UNL     1     -85.506 -10.333  15.515  1.00  0.00     0.222 C
HETATM   17  C5  UNL     1     -84.356  -9.542  15.752  1.00  0.00    -0.162 C
HETATM   18  C4  UNL     1     -83.166  -8.807  15.850  1.00  0.00     0.087 C
HETATM   19  C3  UNL     1     -82.753  -8.430  14.384  1.00  0.00     0.065 C
HETATM   20  C2  UNL     1     -83.537  -9.219  13.351  1.00  0.00     0.000 C
HETATM   21  C1  UNL     1     -82.684 -10.358  12.760  1.00  0.00     0.065 C
HETATM   22  N9  UNL     1     -84.862  -9.488  13.388  1.00  0.00    -0.310 N
ATOM     23  H9  UNL     1     -85.410  -8.857  12.803  1.00  0.00     0.186 HD
ENDBRANCH  12  15
ENDBRANCH   1   9
BRANCH   4  24
HETATM   24  N4  UNL     1     -88.621 -12.983   6.916  1.00  0.00    -0.327 N
ATOM     25  H4  UNL     1     -88.968 -13.676   6.252  1.00  0.00     0.169 HD
BRANCH  24  26
HETATM   26  C12 UNL     1     -87.609 -12.286   6.568  1.00  0.00     0.123 A
HETATM   27  C13 UNL     1     -86.383 -12.316   7.174  1.00  0.00     0.076 A
HETATM   28  C14 UNL     1     -85.536 -11.437   6.536  1.00  0.00     0.033 A
HETATM   29  N5  UNL     1     -86.273 -10.893   5.554  1.00  0.00    -0.303 N
HETATM   30  N6  UNL     1     -87.495 -11.395   5.573  1.00  0.00    -0.285 N
ATOM     31  H5  UNL     1     -85.937 -10.195   4.890  1.00  0.00     0.186 HD
ATOM     32  H6  UNL     1     -88.242 -11.141   4.926  1.00  0.00     0.188 HD
BRANCH  28  33
HETATM   33  C15 UNL     1     -84.100 -11.156   6.866  1.00  0.00     0.037 A
HETATM   34  C16 UNL     1     -83.063 -11.878   6.019  1.00  0.00     0.011 A
HETATM   35  C17 UNL     1     -83.267 -12.210   7.470  1.00  0.00     0.011 A
ENDBRANCH  28  33
ENDBRANCH  24  26
ENDBRANCH   4  24
BRANCH   6  36
HETATM   36  N7  UNL     1     -92.556 -13.422   9.549  1.00  0.00    -0.376 N
ATOM     37  H7  UNL     1     -93.122 -13.540   8.708  1.00  0.00     0.161 HD
BRANCH  36  38
HETATM   38  C20 UNL     1     -93.177 -13.604  10.844  1.00  0.00     0.130 C
BRANCH  38  39
HETATM   39  C21 UNL     1     -93.902 -14.939  10.887  1.00  0.00     0.137 C
BRANCH  39  40
HETATM   40  C22 UNL     1     -92.923 -16.042  11.257  1.00  0.00     0.389 C
HETATM   41  F1  UNL     1     -92.461 -16.626  10.073  1.00  0.00    -0.171 F
HETATM   42  F2  UNL     1     -91.870 -15.517  11.958  1.00  0.00    -0.171 F
HETATM   43  F3  UNL     1     -93.607 -16.989  11.998  1.00  0.00    -0.171 F
ENDBRANCH  39  40
ENDBRANCH  38  39
ENDBRANCH  36  38
ENDBRANCH   6  36
TORSDOF 9
ENDMDL