MODEL 1
REMARK VINA RESULT: -8.326836947      0.000      0.000
REMARK  12 active torsions:
REMARK  status: ('A' for Active; 'I' for Inactive)
REMARK    1  A    between atoms: N1_2  and  C3_4
REMARK    2  A    between atoms: C3_4  and  C4_5
REMARK    3  A    between atoms: C4_5  and  N2_6
REMARK    4  A    between atoms: N2_6  and  C5_8
REMARK    5  A    between atoms: C7_12  and  N4_13
REMARK    6  A    between atoms: N4_13  and  C8_15
REMARK    7  A    between atoms: C8_15  and  C9_16
REMARK    8  A    between atoms: C11_18  and  C12_19
REMARK    9  A    between atoms: C17_24  and  C18_25
REMARK   10  A    between atoms: C20_30  and  N5_31
REMARK   11  A    between atoms: N5_31  and  C21_33
REMARK   12  A    between atoms: C24_36  and  N6_37
ROOT
HETATM    1  C5  UNL     1     -84.344  -9.811  13.070  1.00  0.00     0.122 A
HETATM    2  C6  UNL     1     -83.643 -10.380  12.067  1.00  0.00     0.138 A
HETATM    3  N3  UNL     1     -84.143 -11.449  11.357  1.00  0.00    -0.346 N
ATOM      4  H3  UNL     1     -83.584 -11.851  10.605  1.00  0.00     0.167 HD
HETATM    5  C7  UNL     1     -85.335 -11.969  11.625  1.00  0.00     0.149 A
HETATM    6  C20 UNL     1     -86.070 -11.416  12.633  1.00  0.00     0.148 A
HETATM    7  N7  UNL     1     -85.580 -10.343  13.354  1.00  0.00    -0.325 N
ATOM      8  H7  UNL     1     -86.141  -9.941  14.105  1.00  0.00     0.169 HD
ENDROOT
BRANCH   5   9
HETATM    9  N4  UNL     1     -85.762 -12.967  11.001  1.00  0.00    -0.348 N
ATOM     10  H4  UNL     1     -86.167 -13.700  11.583  1.00  0.00     0.167 HD
BRANCH   9  11
HETATM   11  C8  UNL     1     -85.767 -13.227   9.639  1.00  0.00     0.101 C
BRANCH  11  12
HETATM   12  C9  UNL     1     -87.079 -13.232   8.940  1.00  0.00    -0.019 A
HETATM   13  C10 UNL     1     -88.074 -13.973   9.545  1.00  0.00     0.020 A
HETATM   14  C11 UNL     1     -89.336 -14.038   8.990  1.00  0.00    -0.049 A
HETATM   15  C16 UNL     1     -89.563 -13.353   7.834  1.00  0.00     0.024 A
HETATM   16  C17 UNL     1     -88.591 -12.589   7.180  1.00  0.00     0.049 A
HETATM   17  C19 UNL     1     -87.333 -12.553   7.778  1.00  0.00     0.028 A
BRANCH  14  18
HETATM   18  C12 UNL     1     -90.423 -14.831   9.620  1.00  0.00    -0.024 C
HETATM   19  C13 UNL     1     -89.963 -15.446  10.926  1.00  0.00     0.019 C
HETATM   20  C14 UNL     1     -90.741 -15.971   8.660  1.00  0.00     0.019 C
HETATM   21  C15 UNL     1     -91.648 -13.995   9.877  1.00  0.00     0.019 C
ENDBRANCH  14  18
BRANCH  16  22
HETATM   22  C18 UNL     1     -88.885 -11.864   5.919  1.00  0.00     0.417 C
HETATM   23  F1  UNL     1     -88.431 -12.559   4.842  1.00  0.00    -0.166 F
HETATM   24  F2  UNL     1     -90.217 -11.547   5.876  1.00  0.00    -0.166 F
HETATM   25  F3  UNL     1     -88.184 -10.658   5.991  1.00  0.00    -0.166 F
ENDBRANCH  16  22
ENDBRANCH  11  12
ENDBRANCH   9  11
ENDBRANCH   5   9
BRANCH   6  26
HETATM   26  N5  UNL     1     -87.234 -11.761  13.031  1.00  0.00    -0.369 N
ATOM     27  H5  UNL     1     -87.252 -12.703  13.422  1.00  0.00     0.161 HD
BRANCH  26  28
HETATM   28  C21 UNL     1     -88.487 -11.149  13.054  1.00  0.00     0.083 C
HETATM   29  C22 UNL     1     -89.502 -11.929  12.193  1.00  0.00     0.027 C
HETATM   30  C23 UNL     1     -90.874 -11.853  12.854  1.00  0.00     0.035 C
HETATM   31  C24 UNL     1     -90.918 -12.679  14.128  1.00  0.00     0.183 C
HETATM   32  C25 UNL     1     -89.496 -12.611  14.698  1.00  0.00     0.035 C
HETATM   33  C26 UNL     1     -88.984 -11.199  14.504  1.00  0.00     0.027 C
BRANCH  31  34
HETATM   34  N6  UNL     1     -91.193 -14.070  13.847  1.00  0.00    -0.075 N
ATOM     35  H63 UNL     1     -92.045 -14.179  13.299  1.00  0.00     0.274 HD
ATOM     36  H62 UNL     1     -90.526 -14.455  13.179  1.00  0.00     0.274 HD
ATOM     37  H61 UNL     1     -91.225 -14.625  14.703  1.00  0.00     0.274 HD
ENDBRANCH  31  34
ENDBRANCH  26  28
ENDBRANCH   6  26
BRANCH   1  38
HETATM   38  N2  UNL     1     -83.919  -8.756  13.846  1.00  0.00    -0.353 N
ATOM     39  H2  UNL     1     -84.679  -8.362  14.401  1.00  0.00     0.166 HD
BRANCH  38  40
HETATM   40  C4  UNL     1     -82.715  -8.091  14.066  1.00  0.00     0.092 C
BRANCH  40  41
HETATM   41  C3  UNL     1     -81.726  -8.619  15.006  1.00  0.00     0.315 C
BRANCH  41  42
HETATM   42  N1  UNL     1     -82.168  -8.195  16.367  1.00  0.00     0.084 N
HETATM   43  C1  UNL     1     -81.194  -7.310  16.894  1.00  0.00     0.309 C
HETATM   44  C2  UNL     1     -82.497  -9.347  17.115  1.00  0.00     0.309 C
ENDBRANCH  41  42
ENDBRANCH  40  41
ENDBRANCH  38  40
ENDBRANCH   1  38
TORSDOF 12
ENDMDL