MODEL 3
REMARK VINA RESULT: -9.429558502      1.437      1.612
REMARK  8 active torsions:
REMARK  status: ('A' for Active; 'I' for Inactive)
REMARK    1  A    between atoms: C3_3  and  C4_4
REMARK    2  A    between atoms: C4_4  and  N1_5
REMARK       I    between atoms: N1_5  and  C5_7
REMARK    3  A    between atoms: C5_7  and  C6_9
REMARK    4  A    between atoms: N2_13  and  C10_14
REMARK    5  A    between atoms: C15_21  and  O2_22
REMARK    6  A    between atoms: N4_26  and  C18_27
REMARK    7  A    between atoms: C18_27  and  C20_29
REMARK    8  A    between atoms: C20_29  and  O3_30
ROOT
HETATM    1  C6  UNL     1     -86.503 -12.052   9.166  1.00  0.00     0.104 A
HETATM    2  C7  UNL     1     -85.282 -11.386   9.480  1.00  0.00     0.054 A
HETATM    3  C8  UNL     1     -84.643 -11.108   8.319  1.00  0.00     0.058 A
HETATM    4  C9  UNL     1     -85.389 -11.559   7.280  1.00  0.00     0.034 A
HETATM    5  N2  UNL     1     -86.537 -12.135   7.855  1.00  0.00    -0.341 N
HETATM    6  C13 UNL     1     -85.151 -11.546   5.811  1.00  0.00     0.117 C
HETATM    7  C14 UNL     1     -83.731 -11.675   5.400  1.00  0.00     0.044 A
HETATM    8  N3  UNL     1     -83.400 -12.309   4.214  1.00  0.00    -0.338 N
ATOM      9  H3  UNL     1     -84.070 -12.729   3.569  1.00  0.00     0.168 HD
HETATM   10  C15 UNL     1     -82.081 -12.290   4.038  1.00  0.00     0.142 A
HETATM   11  C16 UNL     1     -81.525 -11.642   5.111  1.00  0.00     0.087 A
HETATM   12  C17 UNL     1     -82.544 -11.264   5.950  1.00  0.00     0.065 A
HETATM   13  N4  UNL     1     -82.349 -10.568   7.175  1.00  0.00    -0.305 N
HETATM   14  C21 UNL     1     -83.348 -10.418   8.216  1.00  0.00     0.261 C
HETATM   15  O4  UNL     1     -83.126  -9.624   9.154  1.00  0.00    -0.267 OA
ENDROOT
BRANCH   1  16
HETATM   16  C5  UNL     1     -87.390 -12.463  10.265  1.00  0.00     0.268 C
HETATM   17  N1  UNL     1     -88.455 -11.541  10.630  1.00  0.00    -0.351 N
ATOM     18  H1  UNL     1     -88.567 -10.660  10.129  1.00  0.00     0.163 HD
HETATM   19  O1  UNL     1     -87.364 -13.498  10.934  1.00  0.00    -0.266 OA
BRANCH  17  20
HETATM   20  C4  UNL     1     -89.337 -11.881  11.690  1.00  0.00     0.162 C
BRANCH  20  21
HETATM   21  C3  UNL     1     -90.529 -12.655  11.335  1.00  0.00    -0.028 A
HETATM   22  C2  UNL     1     -90.829 -13.768  12.090  1.00  0.00    -0.012 A
HETATM   23  C1  UNL     1     -89.977 -14.156  13.265  1.00  0.00     0.052 C
HETATM   24  C25 UNL     1     -91.939 -14.522  11.736  1.00  0.00     0.164 A
HETATM   25  C24 UNL     1     -92.744 -14.210  10.674  1.00  0.00     0.193 A
HETATM   26  F3  UNL     1     -92.197 -15.614  12.511  1.00  0.00    -0.202 F
HETATM   27  C23 UNL     1     -92.427 -13.095   9.933  1.00  0.00     0.158 A
HETATM   28  F2  UNL     1     -93.797 -15.009  10.418  1.00  0.00    -0.200 F
HETATM   29  C22 UNL     1     -91.310 -12.311  10.266  1.00  0.00     0.055 A
HETATM   30  F1  UNL     1     -93.218 -12.767   8.873  1.00  0.00    -0.203 F
ENDBRANCH  20  21
ENDBRANCH  17  20
ENDBRANCH   1  16
BRANCH   5  31
HETATM   31  C10 UNL     1     -87.556 -12.617   6.955  1.00  0.00     0.082 C
HETATM   32  C11 UNL     1     -88.200 -11.384   6.240  1.00  0.00     0.032 C
HETATM   33  C12 UNL     1     -88.722 -13.334   7.523  1.00  0.00     0.032 C
ENDBRANCH   5  31
BRANCH  13  34
HETATM   34  C18 UNL     1     -81.091  -9.955   7.420  1.00  0.00     0.113 C
HETATM   35  C19 UNL     1     -79.902 -10.903   7.394  1.00  0.00     0.035 C
BRANCH  34  36
HETATM   36  C20 UNL     1     -80.844  -8.664   6.705  1.00  0.00     0.189 C
BRANCH  36  37
HETATM   37  O3  UNL     1     -81.364  -7.578   7.447  1.00  0.00    -0.399 OA
ATOM     38  H3  UNL     1     -80.871  -6.785   7.269  1.00  0.00     0.209 HD
ENDBRANCH  36  37
ENDBRANCH  34  36
ENDBRANCH  13  34
BRANCH  10  39
HETATM   39  O2  UNL     1     -81.404 -12.828   2.971  1.00  0.00    -0.346 OA
ATOM     40  H2  UNL     1     -81.774 -13.393   2.304  1.00  0.00     0.219 HD
ENDBRANCH  10  39
TORSDOF 8
ENDMDL