MODEL 1
REMARK VINA RESULT: -8.295085734      0.000      0.000
REMARK  8 active torsions:
REMARK  status: ('A' for Active; 'I' for Inactive)
REMARK    1  A    between atoms: O1_2  and  C2_3
REMARK    2  A    between atoms: C4_5  and  N1_6
REMARK    3  A    between atoms: N1_6  and  C5_8
REMARK    4  A    between atoms: C15_25  and  N4_26
REMARK    5  A    between atoms: N4_26  and  C16_28
REMARK    6  A    between atoms: C16_28  and  C17_29
REMARK    7  A    between atoms: C17_29  and  O2_30
REMARK    8  A    between atoms: C19_33  and  O3_34
ROOT
HETATM    1  C5  UNL     1     -87.084 -13.254   9.159  1.00  0.00     0.124 A
HETATM    2  N2  UNL     1     -87.463 -13.716  10.394  1.00  0.00    -0.350 N
ATOM      3  H2  UNL     1     -86.741 -13.967  11.070  1.00  0.00     0.166 HD
HETATM    4  C6  UNL     1     -88.747 -13.846  10.741  1.00  0.00     0.102 A
HETATM    5  C7  UNL     1     -89.743 -13.520   9.862  1.00  0.00     0.003 A
HETATM    6  C8  UNL     1     -91.052 -13.653  10.210  1.00  0.00     0.008 A
HETATM    7  C9  UNL     1     -92.065 -13.331   9.332  1.00  0.00     0.041 A
HETATM    8  C10 UNL     1     -91.717 -12.858   8.071  1.00  0.00     0.054 A
HETATM    9  C11 UNL     1     -90.391 -12.720   7.712  1.00  0.00     0.044 A
HETATM   10 CL1  UNL     1     -89.940 -12.120   6.108  1.00  0.00    -0.106 Cl
HETATM   11  C12 UNL     1     -89.403 -13.053   8.614  1.00  0.00     0.019 A
HETATM   12  C13 UNL     1     -88.053 -12.917   8.255  1.00  0.00     0.071 A
HETATM   13 BR1  UNL     1     -87.648 -12.255   6.496  1.00  0.00    -0.022 Br
HETATM   14  N3  UNL     1     -93.339 -13.591   9.962  1.00  0.00    -0.357 N
ATOM     15  H3  UNL     1     -94.240 -13.144   9.788  1.00  0.00     0.162 HD
HETATM   16  C14 UNL     1     -93.012 -14.665  10.917  1.00  0.00     0.296 C
HETATM   17  F1  UNL     1     -94.002 -14.962  11.775  1.00  0.00    -0.224 F
HETATM   18  C15 UNL     1     -91.741 -14.107  11.487  1.00  0.00     0.167 C
ENDROOT
BRANCH   1  19
HETATM   19  N1  UNL     1     -85.875 -13.173   8.932  1.00  0.00    -0.341 N
ATOM     20  H1  UNL     1     -85.519 -14.045   8.539  1.00  0.00     0.167 HD
BRANCH  19  21
HETATM   21  C4  UNL     1     -84.870 -12.248   9.055  1.00  0.00     0.038 A
HETATM   22  C3  UNL     1     -84.511 -11.658  10.268  1.00  0.00     0.066 A
HETATM   23  C2  UNL     1     -83.491 -10.740  10.388  1.00  0.00     0.073 A
HETATM   24  C21 UNL     1     -82.768 -10.362   9.270  1.00  0.00     0.073 A
HETATM   25  C19 UNL     1     -83.107 -10.933   8.066  1.00  0.00     0.073 A
HETATM   26  C18 UNL     1     -84.131 -11.857   7.930  1.00  0.00     0.066 A
BRANCH  23  27
HETATM   27  O1  UNL     1     -83.134 -10.153  11.598  1.00  0.00    -0.356 OA
HETATM   28  C1  UNL     1     -84.114 -10.046  12.613  1.00  0.00     0.210 C
ENDBRANCH  23  27
BRANCH  25  29
HETATM   29  O3  UNL     1     -82.406 -10.582   6.916  1.00  0.00    -0.356 OA
HETATM   30  C20 UNL     1     -82.637 -11.238   5.701  1.00  0.00     0.210 C
ENDBRANCH  25  29
ENDBRANCH  19  21
ENDBRANCH   1  19
BRANCH  18  31
HETATM   31  N4  UNL     1     -91.924 -12.948  12.255  1.00  0.00    -0.407 N
ATOM     32  H4  UNL     1     -92.769 -12.392  12.122  1.00  0.00     0.154 HD
BRANCH  31  33
HETATM   33  C16 UNL     1     -90.972 -12.535  13.204  1.00  0.00     0.140 C
BRANCH  33  34
HETATM   34  C17 UNL     1     -90.738 -13.697  14.187  1.00  0.00     0.183 C
BRANCH  34  35
HETATM   35  O2  UNL     1     -91.388 -13.444  15.393  1.00  0.00    -0.399 OA
ATOM     36  H2  UNL     1     -91.746 -14.249  15.748  1.00  0.00     0.209 HD
ENDBRANCH  34  35
ENDBRANCH  33  34
ENDBRANCH  31  33
ENDBRANCH  18  31
TORSDOF 8
ENDMDL