MODEL 3
REMARK VINA RESULT: -9.055137845      2.643      5.105
REMARK  9 active torsions:
REMARK  status: ('A' for Active; 'I' for Inactive)
REMARK    1  A    between atoms: C2_2  and  C3_3
REMARK    2  A    between atoms: C5_5  and  N1_6
REMARK    3  A    between atoms: N1_6  and  C6_7
REMARK    4  A    between atoms: C6_7  and  C7_11
REMARK    5  A    between atoms: C9_14  and  O2_15
REMARK    6  A    between atoms: C10_17  and  C11_18
REMARK    7  A    between atoms: C15_24  and  N3_25
REMARK       I    between atoms: N3_25  and  C16_27
REMARK    8  A    between atoms: C16_27  and  C17_29
REMARK    9  A    between atoms: C17_29  and  N4_30
ROOT
HETATM    1  C7  UNL     1     -91.923 -14.295  11.080  1.00  0.00     0.146 A
HETATM    2  O1  UNL     1     -92.872 -15.235  11.182  1.00  0.00    -0.314 OA
HETATM    3  C8  UNL     1     -92.622 -16.227  10.371  1.00  0.00     0.180 A
HETATM    4  C9  UNL     1     -91.454 -15.946   9.691  1.00  0.00     0.102 A
HETATM    5  C10 UNL     1     -91.024 -14.698  10.165  1.00  0.00     0.054 A
ENDROOT
BRANCH   1   6
HETATM    6  C6  UNL     1     -91.988 -13.070  11.901  1.00  0.00     0.208 C
HETATM    7  N2  UNL     1     -93.148 -12.398  11.872  1.00  0.00    -0.372 N
ATOM      8  H22 UNL     1     -93.193 -11.551  12.439  1.00  0.00     0.158 HD
ATOM      9  H21 UNL     1     -93.904 -12.769  11.296  1.00  0.00     0.158 HD
BRANCH   6  10
HETATM   10  N1  UNL     1     -91.018 -12.594  12.640  1.00  0.00    -0.384 NA
BRANCH  10  11
HETATM   11  C5  UNL     1     -90.149 -12.151  13.306  1.00  0.00     0.127 A
HETATM   12  C4  UNL     1     -89.917 -12.648  14.606  1.00  0.00     0.070 A
HETATM   13  C3  UNL     1     -88.915 -12.137  15.395  1.00  0.00     0.013 A
HETATM   14  N7  UNL     1     -88.130 -11.151  14.941  1.00  0.00    -0.344 N
HETATM   15  C24 UNL     1     -88.302 -10.630  13.698  1.00  0.00     0.135 A
ATOM     16  H7  UNL     1     -87.390 -10.784  15.539  1.00  0.00     0.167 HD
HETATM   17  C22 UNL     1     -89.305 -11.135  12.901  1.00  0.00     0.067 A
HETATM   18  N6  UNL     1     -87.683  -9.663  12.994  1.00  0.00    -0.285 N
HETATM   19  C23 UNL     1     -89.265 -10.438  11.697  1.00  0.00     0.126 A
HETATM   20  N5  UNL     1     -88.256  -9.543  11.793  1.00  0.00    -0.309 N
ATOM     21  H5  UNL     1     -87.976  -8.883  11.067  1.00  0.00     0.186 HD
ATOM     22  H6  UNL     1     -86.896  -9.106  13.328  1.00  0.00     0.188 HD
BRANCH  13  23
HETATM   23  C2  UNL     1     -88.688 -12.688  16.761  1.00  0.00     0.052 C
HETATM   24  C1  UNL     1     -87.624 -11.882  17.485  1.00  0.00     0.011 C
ENDBRANCH  13  23
ENDBRANCH  10  11
ENDBRANCH   6  10
ENDBRANCH   1   6
BRANCH   5  25
HETATM   25  C11 UNL     1     -89.825 -14.032   9.706  1.00  0.00     0.062 A
HETATM   26  C12 UNL     1     -89.853 -13.343   8.488  1.00  0.00     0.169 A
HETATM   27  F1  UNL     1     -91.031 -13.307   7.808  1.00  0.00    -0.202 F
HETATM   28  C13 UNL     1     -88.712 -12.737   8.027  1.00  0.00     0.158 A
HETATM   29  F2  UNL     1     -88.781 -12.078   6.838  1.00  0.00    -0.203 F
HETATM   30  C14 UNL     1     -87.530 -12.805   8.764  1.00  0.00     0.078 A
HETATM   31  C15 UNL     1     -87.449 -13.469   9.965  1.00  0.00     0.077 A
HETATM   32  C21 UNL     1     -88.638 -14.066  10.387  1.00  0.00     0.157 A
HETATM   33  F3  UNL     1     -88.640 -14.742  11.566  1.00  0.00    -0.203 F
BRANCH  31  34
HETATM   34  N3  UNL     1     -86.299 -13.566  10.772  1.00  0.00    -0.323 N
HETATM   35  C16 UNL     1     -85.595 -12.567  11.420  1.00  0.00     0.248 C
HETATM   36  O3  UNL     1     -85.911 -11.370  11.361  1.00  0.00    -0.271 OA
ATOM     37  H3  UNL     1     -85.932 -14.509  10.897  1.00  0.00     0.169 HD
BRANCH  35  38
HETATM   38  C17 UNL     1     -84.405 -12.916  12.231  1.00  0.00     0.338 C
BRANCH  38  39
HETATM   39  N4  UNL     1     -84.615 -13.099  13.618  1.00  0.00    -0.070 N
HETATM   40  C18 UNL     1     -85.825 -13.804  13.951  1.00  0.00     0.272 C
HETATM   41  C19 UNL     1     -84.583 -11.866  14.393  1.00  0.00     0.272 C
HETATM   42  C20 UNL     1     -83.441 -13.859  14.111  1.00  0.00     0.272 C
ENDBRANCH  38  39
ENDBRANCH  35  38
ENDBRANCH  31  34
ENDBRANCH   5  25
BRANCH   4  43
HETATM   43  O2  UNL     1     -90.771 -16.659   8.739  1.00  0.00    -0.358 OA
ATOM     44  H2  UNL     1     -90.112 -16.389   8.110  1.00  0.00     0.217 HD
ENDBRANCH   4  43
TORSDOF 9
ENDMDL