MODEL 4
REMARK VINA RESULT: -9.172178300      4.606      7.007
REMARK  7 active torsions:
REMARK  status: ('A' for Active; 'I' for Inactive)
REMARK    1  A    between atoms: N1_1  and  C1_4
REMARK    2  A    between atoms: N4_14  and  C7_15
REMARK    3  A    between atoms: C7_15  and  C8_16
REMARK    4  A    between atoms: N5_27  and  O1_29
REMARK    5  A    between atoms: O1_29  and  C17_30
REMARK    6  A    between atoms: C17_30  and  C18_31
REMARK    7  A    between atoms: C21_35  and  O2_36
ROOT
HETATM    1  C1  UNL     1     -86.207 -12.370  14.643  1.00  0.00     0.123 A
HETATM    2  N2  UNL     1     -86.357 -11.684  15.769  1.00  0.00    -0.285 N
ATOM      3  H2  UNL     1     -85.900 -11.903  16.654  1.00  0.00     0.188 HD
HETATM    4  N3  UNL     1     -87.174 -10.690  15.574  1.00  0.00    -0.299 N
ATOM      5  H3  UNL     1     -87.450 -10.015  16.287  1.00  0.00     0.186 HD
HETATM    6  C2  UNL     1     -87.606 -10.679  14.296  1.00  0.00     0.076 A
HETATM    7  C3  UNL     1     -86.981 -11.771  13.676  1.00  0.00     0.029 A
HETATM    8  C4  UNL     1     -87.445 -11.791  12.307  1.00  0.00     0.040 C
HETATM    9  C5  UNL     1     -87.631 -13.157  11.716  1.00  0.00     0.051 C
HETATM   10  C6  UNL     1     -86.407 -13.748  11.139  1.00  0.00     0.274 C
HETATM   11  N4  UNL     1     -85.243 -12.980  10.934  1.00  0.00     0.092 N
HETATM   12  C14 UNL     1     -85.348 -11.575  10.936  1.00  0.00     0.274 C
HETATM   13  C15 UNL     1     -86.642 -10.992  11.279  1.00  0.00     0.051 C
HETATM   14  C16 UNL     1     -88.740 -11.077  12.328  1.00  0.00     0.063 C
HETATM   15  N5  UNL     1     -89.794 -11.169  11.761  1.00  0.00    -0.270 N
ATOM     16  H5  UNL     1     -90.359 -10.423  12.167  1.00  0.00     0.194 HD
HETATM   17  C23 UNL     1     -88.475  -9.950  13.317  1.00  0.00     0.270 C
HETATM   18  F1  UNL     1     -89.626  -9.619  14.034  1.00  0.00    -0.236 F
ENDROOT
BRANCH   1  19
HETATM   19  N1  UNL     1     -85.436 -13.417  14.450  1.00  0.00    -0.384 N
ATOM     20  H12 UNL     1     -84.446 -13.467  14.692  1.00  0.00     0.157 HD
ATOM     21  H11 UNL     1     -85.711 -14.321  14.065  1.00  0.00     0.157 HD
ENDBRANCH   1  19
BRANCH  15  22
HETATM   22  O1  UNL     1     -90.591 -11.731  10.894  1.00  0.00    -0.275 OA
BRANCH  22  23
HETATM   23  C17 UNL     1     -91.763 -12.447  11.472  1.00  0.00     0.245 C
BRANCH  23  24
HETATM   24  C18 UNL     1     -91.153 -13.868  11.522  1.00  0.00     0.086 C
HETATM   25  N6  UNL     1     -91.753 -14.881  10.881  1.00  0.00    -0.389 N
HETATM   26  C19 UNL     1     -92.924 -15.542  11.057  1.00  0.00     0.124 C
HETATM   27  C22 UNL     1     -91.541 -14.819   9.420  1.00  0.00     0.153 C
HETATM   28  C20 UNL     1     -92.850 -16.662  10.002  1.00  0.00     0.053 C
HETATM   29  C21 UNL     1     -91.682 -16.278   9.079  1.00  0.00     0.137 C
BRANCH  29  30
HETATM   30  O2  UNL     1     -91.967 -16.366   7.744  1.00  0.00    -0.394 OA
ATOM     31  H2  UNL     1     -91.280 -16.041   7.175  1.00  0.00     0.210 HD
ENDBRANCH  29  30
ENDBRANCH  23  24
ENDBRANCH  22  23
ENDBRANCH  15  22
BRANCH  11  32
HETATM   32  C7  UNL     1     -84.494 -13.451   9.749  1.00  0.00     0.311 C
BRANCH  32  33
HETATM   33  C8  UNL     1     -84.828 -12.731   8.504  1.00  0.00    -0.027 A
HETATM   34  C9  UNL     1     -86.084 -12.495   8.043  1.00  0.00     0.032 A
HETATM   35  C10 UNL     1     -86.276 -11.793   6.858  1.00  0.00     0.036 A
HETATM   36 CL1  UNL     1     -87.872 -11.543   6.253  1.00  0.00    -0.084 Cl
HETATM   37  C11 UNL     1     -85.178 -11.345   6.161  1.00  0.00     0.047 A
HETATM   38  C12 UNL     1     -83.909 -11.579   6.633  1.00  0.00     0.036 A
HETATM   39 CL2  UNL     1     -82.561 -10.935   5.690  1.00  0.00    -0.084 Cl
HETATM   40  C13 UNL     1     -83.706 -12.263   7.789  1.00  0.00     0.032 A
ENDBRANCH  32  33
ENDBRANCH  11  32
TORSDOF 7
ENDMDL