MODEL 3
REMARK VINA RESULT: -8.110987397      3.760      4.851
REMARK  10 active torsions:
REMARK  status: ('A' for Active; 'I' for Inactive)
REMARK    1  A    between atoms: C2_2  and  N1_3
REMARK       I    between atoms: N1_3  and  C3_5
REMARK    2  A    between atoms: C3_5  and  C4_7
REMARK    3  A    between atoms: C13_16  and  O2_17
REMARK    4  A    between atoms: O2_17  and  C14_18
REMARK    5  A    between atoms: C14_18  and  C15_19
REMARK    6  A    between atoms: C15_19  and  N2_20
REMARK    7  A    between atoms: C15_19  and  C16_24
REMARK    8  A    between atoms: C16_24  and  O3_25
REMARK    9  A    between atoms: C16_24  and  O4_27
REMARK   10  A    between atoms: C17_29  and  C18_30
ROOT
HETATM    1  C4  UNL     1     -82.080 -11.019   8.416  1.00  0.00     0.086 C
HETATM    2  C5  UNL     1     -81.495 -11.579   9.675  1.00  0.00     0.015 C
HETATM    3  C6  UNL     1     -82.575 -11.233  10.706  1.00  0.00     0.007 C
HETATM    4  C7  UNL     1     -83.729 -10.718   9.970  1.00  0.00    -0.001 C
HETATM    5  C8  UNL     1     -85.099 -10.988  10.432  1.00  0.00     0.003 C
HETATM    6  C9  UNL     1     -85.428 -10.259  11.734  1.00  0.00     0.010 C
HETATM    7  C10 UNL     1     -86.902 -10.215  11.879  1.00  0.00     0.039 C
HETATM    8  C11 UNL     1     -87.617 -11.317  11.229  1.00  0.00    -0.048 A
HETATM    9  C12 UNL     1     -89.011 -11.302  11.317  1.00  0.00     0.045 A
HETATM   10  C13 UNL     1     -89.816 -12.265  10.760  1.00  0.00     0.084 A
HETATM   11  C17 UNL     1     -89.245 -13.313  10.072  1.00  0.00     0.081 A
HETATM   12  C19 UNL     1     -87.853 -13.338   9.978  1.00  0.00     0.027 A
HETATM   13  C20 UNL     1     -87.064 -12.363  10.543  1.00  0.00    -0.042 A
HETATM   14  C21 UNL     1     -85.570 -12.396  10.439  1.00  0.00    -0.012 C
HETATM   15  C22 UNL     1     -85.121 -13.197  11.651  1.00  0.00     0.021 C
HETATM   16  C23 UNL     1     -85.130 -13.172   9.236  1.00  0.00     0.015 C
HETATM   17  C24 UNL     1     -83.899 -12.768   8.547  1.00  0.00     0.011 C
HETATM   18  C25 UNL     1     -83.546 -11.323   8.593  1.00  0.00    -0.028 C
HETATM   19  C26 UNL     1     -84.377 -10.516   7.621  1.00  0.00     0.016 C
ENDROOT
BRANCH  10  20
HETATM   20  O2  UNL     1     -91.197 -12.233  10.858  1.00  0.00    -0.348 OA
BRANCH  20  21
HETATM   21  C14 UNL     1     -91.888 -12.407  12.075  1.00  0.00     0.213 C
BRANCH  21  22
HETATM   22  C15 UNL     1     -91.256 -13.466  12.948  1.00  0.00     0.262 C
BRANCH  22  23
HETATM   23  N2  UNL     1     -91.946 -14.739  12.861  1.00  0.00    -0.068 N
ATOM     24  H23 UNL     1     -92.005 -15.060  11.894  1.00  0.00     0.275 HD
ATOM     25  H22 UNL     1     -91.377 -15.491  13.248  1.00  0.00     0.275 HD
ATOM     26  H21 UNL     1     -92.868 -14.715  13.298  1.00  0.00     0.275 HD
ENDBRANCH  22  23
BRANCH  22  27
HETATM   27  C16 UNL     1     -91.015 -13.014  14.355  1.00  0.00     0.286 C
BRANCH  27  28
HETATM   28  O3  UNL     1     -89.721 -12.595  14.571  1.00  0.00    -0.369 OA
ATOM     29  H3  UNL     1     -89.433 -12.723  15.468  1.00  0.00     0.212 HD
ENDBRANCH  27  28
BRANCH  27  30
HETATM   30  O4  UNL     1     -91.371 -14.082  15.194  1.00  0.00    -0.369 OA
ATOM     31  H4  UNL     1     -91.907 -13.721  15.890  1.00  0.00     0.212 HD
ENDBRANCH  27  30
ENDBRANCH  22  27
ENDBRANCH  21  22
ENDBRANCH  20  21
ENDBRANCH  10  20
BRANCH  11  32
HETATM   32  C18 UNL     1     -90.056 -14.386   9.445  1.00  0.00     0.420 C
HETATM   33  F1  UNL     1     -90.268 -15.454  10.298  1.00  0.00    -0.166 F
HETATM   34  F2  UNL     1     -91.252 -13.944   8.944  1.00  0.00    -0.166 F
HETATM   35  F3  UNL     1     -89.347 -14.893   8.358  1.00  0.00    -0.166 F
ENDBRANCH  11  32
BRANCH   1  36
HETATM   36  C3  UNL     1     -81.477 -11.437   7.179  1.00  0.00     0.222 C
HETATM   37  N1  UNL     1     -80.795 -12.672   7.089  1.00  0.00    -0.361 N
ATOM     38  H1  UNL     1     -80.734 -13.268   7.915  1.00  0.00     0.162 HD
HETATM   39  O1  UNL     1     -81.530 -10.734   6.147  1.00  0.00    -0.273 OA
BRANCH  37  40
HETATM   40  C2  UNL     1     -80.171 -13.120   5.838  1.00  0.00     0.118 C
HETATM   41  C1  UNL     1     -79.007 -14.030   6.078  1.00  0.00     0.026 C
ENDBRANCH  37  40
ENDBRANCH   1  36
TORSDOF 10
ENDMDL