MODEL 5
REMARK VINA RESULT: -7.063337245      2.551      3.216
REMARK  9 active torsions:
REMARK  status: ('A' for Active; 'I' for Inactive)
REMARK    1  A    between atoms: N1_2  and  C3_4
REMARK    2  A    between atoms: C4_5  and  C5_6
REMARK    3  A    between atoms: C5_6  and  C6_7
REMARK    4  A    between atoms: C6_7  and  C7_8
REMARK    5  A    between atoms: C9_12  and  O3_13
REMARK    6  A    between atoms: C10_15  and  C11_16
REMARK    7  A    between atoms: C11_16  and  O4_17
REMARK    8  A    between atoms: C11_16  and  C12_19
REMARK    9  A    between atoms: C17_26  and  O5_27
ROOT
HETATM    1  C3  UNL     1     -90.383 -12.385  11.142  1.00  0.00     0.075 A
HETATM    2  C4  UNL     1     -89.581 -12.651  10.032  1.00  0.00    -0.025 A
HETATM    3  C8  UNL     1     -88.349 -12.049  10.031  1.00  0.00     0.046 A
HETATM    4  C9  UNL     1     -87.855 -11.229  11.007  1.00  0.00     0.078 A
HETATM    5  C10 UNL     1     -88.686 -10.984  12.106  1.00  0.00     0.049 A
HETATM    6  C18 UNL     1     -89.929 -11.564  12.153  1.00  0.00     0.155 A
HETATM    7  F1  UNL     1     -90.732 -11.333  13.214  1.00  0.00    -0.203 F
ENDROOT
BRANCH   5   8
HETATM    8  C11 UNL     1     -88.154 -10.112  13.187  1.00  0.00     0.193 C
BRANCH   8   9
HETATM    9  O4  UNL     1     -89.193  -9.429  13.813  1.00  0.00    -0.386 OA
ATOM     10  H4  UNL     1     -89.842 -10.042  14.139  1.00  0.00     0.210 HD
ENDBRANCH   8   9
BRANCH   8  11
HETATM   11  C12 UNL     1     -87.315 -10.846  14.149  1.00  0.00     0.011 A
HETATM   12  C13 UNL     1     -87.868 -11.805  14.951  1.00  0.00     0.032 A
HETATM   13  C14 UNL     1     -87.126 -12.507  15.867  1.00  0.00     0.013 A
HETATM   14 BR1  UNL     1     -87.902 -13.852  17.002  1.00  0.00    -0.051 Br
HETATM   15  C15 UNL     1     -85.766 -12.269  16.015  1.00  0.00     0.041 A
HETATM   16  C16 UNL     1     -85.195 -11.303  15.211  1.00  0.00     0.046 A
HETATM   17 BR2  UNL     1     -83.318 -10.934  15.380  1.00  0.00    -0.048 Br
HETATM   18  C17 UNL     1     -85.948 -10.593  14.285  1.00  0.00     0.092 A
BRANCH  18  19
HETATM   19  O5  UNL     1     -85.404  -9.620  13.463  1.00  0.00    -0.359 OA
ATOM     20  H5  UNL     1     -84.885  -9.919  12.726  1.00  0.00     0.217 HD
ENDBRANCH  18  19
ENDBRANCH   8  11
ENDBRANCH   5   8
BRANCH   4  21
HETATM   21  O3  UNL     1     -86.593 -10.646  10.948  1.00  0.00    -0.360 OA
ATOM     22  H3  UNL     1     -86.182 -10.215  11.689  1.00  0.00     0.217 HD
ENDBRANCH   4  21
BRANCH   1  23
HETATM   23  N1  UNL     1     -91.669 -12.971  11.256  1.00  0.00    -0.387 N
HETATM   24  C1  UNL     1     -92.776 -12.332  10.590  1.00  0.00     0.149 C
HETATM   25  C2  UNL     1     -91.867 -14.174  12.015  1.00  0.00     0.149 C
ENDBRANCH   1  23
BRANCH   2  26
HETATM   26  C5  UNL     1     -90.107 -13.543   8.992  1.00  0.00     0.051 C
BRANCH  26  27
HETATM   27  C6  UNL     1     -89.729 -14.979   9.110  1.00  0.00     0.118 C
BRANCH  27  28
HETATM   28  C7  UNL     1     -90.856 -15.827   8.643  1.00  0.00     0.172 C
HETATM   29  O1  UNL     1     -92.005 -15.390   8.642  1.00  0.00    -0.648 OA
HETATM   30  O2  UNL     1     -90.592 -17.130   8.205  1.00  0.00    -0.648 OA
ENDBRANCH  27  28
ENDBRANCH  26  27
ENDBRANCH   2  26
TORSDOF 9
ENDMDL