MODEL 3
REMARK VINA RESULT: -8.856781653      2.253      2.725
REMARK  8 active torsions:
REMARK  status: ('A' for Active; 'I' for Inactive)
REMARK    1  A    between atoms: N1_1  and  C1_4
REMARK    2  A    between atoms: C3_8  and  N3_9
REMARK       I    between atoms: N3_9  and  C4_11
REMARK       I    between atoms: C4_11  and  N4_13
REMARK    3  A    between atoms: N4_13  and  C5_14
REMARK    4  A    between atoms: N4_13  and  C8_17
REMARK    5  A    between atoms: N5_21  and  C12_22
REMARK    6  A    between atoms: C12_22  and  C13_23
REMARK       I    between atoms: C13_23  and  N6_25
REMARK       I    between atoms: N6_25  and  C14_27
REMARK    7  A    between atoms: C14_27  and  C15_29
REMARK    8  A    between atoms: C24_38  and  C25_39
ROOT
HETATM    1  N3  UNL     1     -88.624 -12.853  12.510  1.00  0.00    -0.307 N
ATOM      2  H3  UNL     1     -87.780 -12.434  12.120  1.00  0.00     0.170 HD
HETATM    3  C4  UNL     1     -88.804 -12.676  13.895  1.00  0.00     0.327 C
HETATM    4  O1  UNL     1     -89.849 -13.178  14.384  1.00  0.00    -0.246 OA
HETATM    5  N4  UNL     1     -87.871 -11.970  14.735  1.00  0.00    -0.301 N
ENDROOT
BRANCH   5   6
HETATM    6  C5  UNL     1     -88.207 -11.880  16.148  1.00  0.00     0.094 A
HETATM    7  C6  UNL     1     -88.216 -13.015  17.068  1.00  0.00     0.028 A
HETATM    8  C7  UNL     1     -87.255 -11.799  17.237  1.00  0.00     0.028 A
ENDBRANCH   5   6
BRANCH   5   9
HETATM    9  C8  UNL     1     -86.646 -11.360  14.224  1.00  0.00     0.012 C
HETATM   10  C9  UNL     1     -86.192 -10.149  14.924  1.00  0.00     0.056 C
HETATM   11  C10 UNL     1     -84.742  -9.883  14.986  1.00  0.00     0.025 C
HETATM   12  C11 UNL     1     -83.830 -11.060  14.755  1.00  0.00     0.118 C
HETATM   13  N5  UNL     1     -84.304 -11.911  13.729  1.00  0.00    -0.399 N
HETATM   14  C22 UNL     1     -85.634 -12.387  13.848  1.00  0.00     0.170 C
BRANCH  13  15
HETATM   15  C12 UNL     1     -83.966 -11.532  12.383  1.00  0.00     0.220 C
BRANCH  15  16
HETATM   16  C13 UNL     1     -83.881 -12.670  11.453  1.00  0.00     0.241 C
HETATM   17  O2  UNL     1     -83.095 -13.608  11.693  1.00  0.00    -0.271 OA
HETATM   18  N6  UNL     1     -84.679 -12.702  10.297  1.00  0.00    -0.296 N
HETATM   19  C14 UNL     1     -85.604 -11.719   9.893  1.00  0.00     0.228 C
ATOM     20  H6  UNL     1     -84.579 -13.517   9.691  1.00  0.00     0.171 HD
HETATM   21  O3  UNL     1     -85.832 -10.687  10.565  1.00  0.00    -0.273 OA
BRANCH  19  22
HETATM   22  C15 UNL     1     -86.360 -11.870   8.629  1.00  0.00     0.078 C
HETATM   23  C16 UNL     1     -86.924 -13.258   8.457  1.00  0.00     0.014 C
HETATM   24  C17 UNL     1     -88.353 -13.221   7.947  1.00  0.00     0.001 C
HETATM   25  C18 UNL     1     -88.521 -12.345   6.743  1.00  0.00     0.000 C
HETATM   26  C19 UNL     1     -87.300 -12.333   5.871  1.00  0.00     0.000 C
HETATM   27  C20 UNL     1     -86.433 -11.141   6.262  1.00  0.00     0.001 C
HETATM   28  C21 UNL     1     -85.526 -11.556   7.403  1.00  0.00     0.014 C
ENDBRANCH  19  22
ENDBRANCH  15  16
ENDBRANCH  13  15
ENDBRANCH   5   9
BRANCH   1  29
HETATM   29  C3  UNL     1     -89.448 -13.527  11.588  1.00  0.00     0.052 A
HETATM   30  C2  UNL     1     -89.375 -14.865  11.313  1.00  0.00     0.119 A
HETATM   31  N2  UNL     1     -90.226 -15.458  10.419  1.00  0.00    -0.350 N
HETATM   32  C1  UNL     1     -91.166 -14.757   9.773  1.00  0.00     0.114 A
ATOM     33  H2  UNL     1     -90.141 -16.459  10.240  1.00  0.00     0.166 HD
HETATM   34  C24 UNL     1     -91.301 -13.404   9.997  1.00  0.00     0.093 A
HETATM   35  C23 UNL     1     -90.447 -12.824  10.891  1.00  0.00     0.051 A
BRANCH  32  36
HETATM   36  N1  UNL     1     -91.983 -15.303   8.922  1.00  0.00    -0.385 N
ATOM     37  H12 UNL     1     -92.879 -15.630   9.283  1.00  0.00     0.157 HD
ATOM     38  H11 UNL     1     -91.755 -15.408   7.934  1.00  0.00     0.157 HD
ENDBRANCH  32  36
BRANCH  34  39
HETATM   39  C25 UNL     1     -92.351 -12.603   9.275  1.00  0.00     0.421 C
HETATM   40  F1  UNL     1     -92.358 -11.322   9.770  1.00  0.00    -0.166 F
HETATM   41  F2  UNL     1     -93.601 -13.154   9.407  1.00  0.00    -0.166 F
HETATM   42  F3  UNL     1     -92.006 -12.504   7.931  1.00  0.00    -0.166 F
ENDBRANCH  34  39
ENDBRANCH   1  29
TORSDOF 8
ENDMDL