MODEL 2
REMARK VINA RESULT: -9.111681029      5.725      8.498
REMARK  7 active torsions:
REMARK  status: ('A' for Active; 'I' for Inactive)
REMARK    1  A    between atoms: O1_2  and  C2_3
REMARK    2  A    between atoms: C5_7  and  C6_8
REMARK    3  A    between atoms: C8_12  and  N2_13
REMARK    4  A    between atoms: C9_16  and  C10_17
REMARK    5  A    between atoms: C14_25  and  C15_26
REMARK    6  A    between atoms: C18_29  and  N5_30
REMARK    7  A    between atoms: C25_39  and  O2_40
ROOT
HETATM    1  C6  UNL     1     -87.905 -18.014  15.303  1.00  0.00     0.064 A
HETATM    2  C7  UNL     1     -87.572 -16.863  15.998  1.00  0.00     0.120 A
HETATM    3  N1  UNL     1     -87.967 -15.666  15.533  1.00  0.00    -0.349 N
ATOM      4  H1  UNL     1     -87.730 -14.810  16.034  1.00  0.00     0.167 HD
HETATM    5  C8  UNL     1     -88.690 -15.614  14.381  1.00  0.00     0.126 A
HETATM    6  C9  UNL     1     -89.031 -16.744  13.674  1.00  0.00     0.087 A
HETATM    7  N6  UNL     1     -88.619 -17.940  14.168  1.00  0.00    -0.351 N
ATOM      8  H6  UNL     1     -88.857 -18.797  13.668  1.00  0.00     0.166 HD
ENDROOT
BRANCH   6   9
HETATM    9  C10 UNL     1     -89.807 -16.702  12.441  1.00  0.00    -0.005 A
HETATM   10  C11 UNL     1     -91.139 -17.114  12.459  1.00  0.00     0.016 A
HETATM   11  C12 UNL     1     -91.942 -17.112  11.338  1.00  0.00     0.033 A
HETATM   12  C13 UNL     1     -91.436 -16.687  10.130  1.00  0.00     0.060 A
HETATM   13  N3  UNL     1     -91.981 -16.580   8.905  1.00  0.00    -0.299 N
HETATM   14  C23 UNL     1     -90.121 -16.275  10.094  1.00  0.00     0.022 A
HETATM   15  N4  UNL     1     -91.049 -16.113   8.101  1.00  0.00    -0.299 N
ATOM     16  H3  UNL     1     -92.939 -16.817   8.647  1.00  0.00     0.187 HD
HETATM   17  C14 UNL     1     -89.887 -15.910   8.785  1.00  0.00     0.070 A
ATOM     18  H4  UNL     1     -91.178 -15.929   7.106  1.00  0.00     0.187 HD
HETATM   19  C24 UNL     1     -89.318 -16.280  11.224  1.00  0.00     0.030 A
BRANCH  17  20
HETATM   20  C15 UNL     1     -88.648 -15.399   8.210  1.00  0.00    -0.007 A
HETATM   21  C16 UNL     1     -88.620 -14.778   6.978  1.00  0.00     0.016 A
HETATM   22  C17 UNL     1     -87.462 -14.286   6.412  1.00  0.00     0.030 A
HETATM   23  C18 UNL     1     -86.249 -14.405   7.084  1.00  0.00     0.029 A
HETATM   24  C21 UNL     1     -86.279 -15.030   8.320  1.00  0.00     0.030 A
HETATM   25  C22 UNL     1     -87.446 -15.519   8.881  1.00  0.00     0.016 A
BRANCH  23  26
HETATM   26  N5  UNL     1     -85.044 -13.919   6.548  1.00  0.00    -0.390 N
HETATM   27  C19 UNL     1     -84.845 -13.848   5.122  1.00  0.00     0.149 C
HETATM   28  C20 UNL     1     -83.991 -13.483   7.429  1.00  0.00     0.149 C
ENDBRANCH  23  26
ENDBRANCH  17  20
ENDBRANCH   6   9
BRANCH   5  29
HETATM   29  N2  UNL     1     -89.071 -14.472  13.942  1.00  0.00    -0.384 N
ATOM     30  H22 UNL     1     -88.371 -13.826  13.576  1.00  0.00     0.157 HD
ATOM     31  H21 UNL     1     -90.064 -14.241  13.968  1.00  0.00     0.157 HD
ENDBRANCH   5  29
BRANCH   1  32
HETATM   32  C5  UNL     1     -87.449 -19.293  15.859  1.00  0.00     0.064 A
HETATM   33  C4  UNL     1     -88.060 -19.751  16.992  1.00  0.00     0.134 A
HETATM   34  C3  UNL     1     -87.656 -20.958  17.548  1.00  0.00     0.080 A
HETATM   35  F1  UNL     1     -89.054 -19.062  17.597  1.00  0.00    -0.205 F
HETATM   36  C2  UNL     1     -86.650 -21.701  16.973  1.00  0.00     0.073 A
HETATM   37  C27 UNL     1     -86.051 -21.214  15.831  1.00  0.00     0.074 A
HETATM   38  C25 UNL     1     -86.447 -20.017  15.275  1.00  0.00     0.086 A
BRANCH  36  39
HETATM   39  O1  UNL     1     -86.282 -22.899  17.564  1.00  0.00    -0.356 OA
HETATM   40  C1  UNL     1     -86.421 -23.191  18.925  1.00  0.00     0.210 C
ENDBRANCH  36  39
BRANCH  38  41
HETATM   41  O2  UNL     1     -85.854 -19.518  14.128  1.00  0.00    -0.355 OA
HETATM   42  C26 UNL     1     -84.555 -18.988  14.217  1.00  0.00     0.210 C
ENDBRANCH  38  41
ENDBRANCH   1  32
TORSDOF 7
ENDMDL