MODEL 3
REMARK VINA RESULT: -8.041076761      3.739      7.719
REMARK  9 active torsions:
REMARK  status: ('A' for Active; 'I' for Inactive)
REMARK    1  A    between atoms: C2_2  and  C3_3
REMARK    2  A    between atoms: C3_3  and  C4_4
REMARK    3  A    between atoms: C4_4  and  C5_5
REMARK    4  A    between atoms: C5_5  and  C6_6
REMARK       I    between atoms: C6_6  and  N1_8
REMARK    5  A    between atoms: N1_8  and  N2_10
REMARK    6  A    between atoms: C7_11  and  O2_12
REMARK    7  A    between atoms: C9_17  and  S1_18
REMARK    8  A    between atoms: S1_18  and  C10_19
REMARK    9  A    between atoms: C21_33  and  O3_34
ROOT
HETATM    1  N2  UNL     1     -90.846 -14.452  13.399  1.00  0.00    -0.206 N
HETATM    2  C7  UNL     1     -90.677 -14.991  14.647  1.00  0.00     0.192 A
HETATM    3  C8  UNL     1     -89.435 -14.637  15.132  1.00  0.00     0.103 A
HETATM    4  N3  UNL     1     -88.790 -14.900  16.283  1.00  0.00    -0.346 N
ATOM      5  H3  UNL     1     -89.250 -15.471  16.993  1.00  0.00     0.167 HD
HETATM    6  C9  UNL     1     -87.541 -14.421  16.521  1.00  0.00     0.084 A
HETATM    7  C12 UNL     1     -86.949 -13.649  15.545  1.00  0.00     0.038 A
HETATM    8  C13 UNL     1     -85.724 -12.975  15.441  1.00  0.00     0.006 A
HETATM    9  C14 UNL     1     -84.685 -12.878  16.316  1.00  0.00     0.016 A
HETATM   10  C15 UNL     1     -83.580 -12.109  15.935  1.00  0.00     0.020 A
HETATM   11  C16 UNL     1     -83.515 -11.460  14.724  1.00  0.00     0.013 A
HETATM   12 BR1  UNL     1     -81.964 -10.430  14.288  1.00  0.00    -0.051 Br
HETATM   13  C17 UNL     1     -84.580 -11.577  13.861  1.00  0.00     0.049 A
HETATM   14  C18 UNL     1     -85.685 -12.325  14.201  1.00  0.00     0.045 A
HETATM   15  N4  UNL     1     -86.827 -12.577  13.559  1.00  0.00    -0.354 N
ATOM     16  H4  UNL     1     -87.079 -12.234  12.632  1.00  0.00     0.166 HD
HETATM   17  C19 UNL     1     -87.598 -13.366  14.346  1.00  0.00     0.064 A
HETATM   18  C20 UNL     1     -88.873 -13.877  14.142  1.00  0.00     0.075 A
HETATM   19  C21 UNL     1     -89.755 -13.766  13.068  1.00  0.00     0.179 A
ENDROOT
BRANCH   1  20
HETATM   20  N1  UNL     1     -92.000 -14.637  12.659  1.00  0.00    -0.259 N
HETATM   21  C6  UNL     1     -92.194 -14.893  11.310  1.00  0.00     0.236 C
HETATM   22  O1  UNL     1     -91.310 -15.009  10.471  1.00  0.00    -0.272 OA
ATOM     23  H1  UNL     1     -92.861 -14.574  13.202  1.00  0.00     0.190 HD
BRANCH  21  24
HETATM   24  C5  UNL     1     -93.626 -15.042  10.830  1.00  0.00     0.104 C
BRANCH  24  25
HETATM   25  C4  UNL     1     -93.738 -16.380  10.154  1.00  0.00     0.009 C
BRANCH  25  26
HETATM   26  C3  UNL     1     -93.897 -17.430  11.239  1.00  0.00     0.000 C
BRANCH  26  27
HETATM   27  C2  UNL     1     -93.131 -18.683  10.899  1.00  0.00    -0.005 C
HETATM   28  C1  UNL     1     -92.420 -18.575   9.574  1.00  0.00     0.005 C
ENDBRANCH  26  27
ENDBRANCH  25  26
ENDBRANCH  24  25
ENDBRANCH  21  24
ENDBRANCH   1  20
BRANCH   2  29
HETATM   29  O2  UNL     1     -91.584 -15.778  15.359  1.00  0.00    -0.343 OA
ATOM     30  H2  UNL     1     -91.487 -16.692  15.600  1.00  0.00     0.219 HD
ENDBRANCH   2  29
BRANCH  19  31
HETATM   31  O3  UNL     1     -89.426 -13.043  11.928  1.00  0.00    -0.344 OA
ATOM     32  H3  UNL     1     -89.643 -12.160  11.653  1.00  0.00     0.219 HD
ENDBRANCH  19  31
BRANCH   6  33
HETATM   33  S1  UNL     1     -86.732 -14.760  18.071  1.00  0.00    -0.112 SA
BRANCH  33  34
HETATM   34  C10 UNL     1     -85.571 -16.113  17.856  1.00  0.00     0.076 C
HETATM   35  C11 UNL     1     -85.803 -17.011  16.702  1.00  0.00     0.016 C
ENDBRANCH  33  34
ENDBRANCH   6  33
TORSDOF 9
ENDMDL