MODEL 2
REMARK VINA RESULT: -8.272387229      1.761      1.959
REMARK  8 active torsions:
REMARK  status: ('A' for Active; 'I' for Inactive)
REMARK    1  A    between atoms: C2_2  and  N1_3
REMARK    2  A    between atoms: C3_4  and  O1_5
REMARK    3  A    between atoms: C6_9  and  O2_10
REMARK    4  A    between atoms: C13_20  and  O3_21
REMARK    5  A    between atoms: C15_23  and  O4_24
REMARK    6  A    between atoms: C19_28  and  C20_29
REMARK    7  A    between atoms: C21_30  and  C22_31
REMARK    8  A    between atoms: C22_31  and  C23_32
ROOT
HETATM    1  N1  UNL     1     -87.011 -14.869  15.912  1.00  0.00    -0.308 N
HETATM    2  C3  UNL     1     -88.341 -14.704  15.907  1.00  0.00     0.153 A
HETATM    3  C4  UNL     1     -88.710 -13.894  14.839  1.00  0.00     0.034 A
HETATM    4  C5  UNL     1     -87.521 -13.585  14.205  1.00  0.00     0.039 A
HETATM    5  C6  UNL     1     -86.509 -14.186  14.873  1.00  0.00     0.153 A
HETATM    6  C7  UNL     1     -87.903 -12.720  13.063  1.00  0.00     0.266 C
HETATM    7  C8  UNL     1     -86.861 -12.581  12.038  1.00  0.00     0.082 C
HETATM    8  C9  UNL     1     -86.690 -13.656  11.074  1.00  0.00    -0.020 A
HETATM    9  C10 UNL     1     -87.360 -14.820  10.920  1.00  0.00     0.026 A
HETATM   10  N2  UNL     1     -86.817 -15.467   9.882  1.00  0.00    -0.358 N
ATOM     11  H2  UNL     1     -87.127 -16.377   9.540  1.00  0.00     0.166 HD
HETATM   12  C11 UNL     1     -85.809 -14.756   9.351  1.00  0.00     0.046 A
HETATM   13  C12 UNL     1     -84.943 -14.964   8.298  1.00  0.00     0.070 A
HETATM   14  C13 UNL     1     -83.984 -14.048   7.971  1.00  0.00     0.103 A
HETATM   15  C15 UNL     1     -83.870 -12.885   8.703  1.00  0.00     0.102 A
HETATM   16  C17 UNL     1     -84.733 -12.676   9.754  1.00  0.00     0.054 A
HETATM   17  C18 UNL     1     -85.718 -13.606  10.099  1.00  0.00     0.002 A
HETATM   18  C19 UNL     1     -88.501 -15.298  11.757  1.00  0.00     0.091 C
HETATM   19  C25 UNL     1     -89.514 -14.240  12.009  1.00  0.00     0.233 C
HETATM   20  C26 UNL     1     -90.013 -13.775  10.627  1.00  0.00     0.044 C
HETATM   21  N3  UNL     1     -89.184 -13.126  12.743  1.00  0.00     0.107 N
HETATM   22  C27 UNL     1     -89.796 -13.211  14.070  1.00  0.00     0.317 C
ENDROOT
BRANCH  18  23
HETATM   23  C20 UNL     1     -89.160 -16.377  10.961  1.00  0.00    -0.018 C
HETATM   24  C21 UNL     1     -90.102 -17.160  11.465  1.00  0.00    -0.027 C
BRANCH  24  25
HETATM   25  C22 UNL     1     -90.748 -18.219  10.679  1.00  0.00     0.063 C
BRANCH  25  26
HETATM   26  C23 UNL     1     -92.240 -17.950  10.490  1.00  0.00     0.169 C
HETATM   27  C24 UNL     1     -92.770 -17.011  11.542  1.00  0.00     0.045 C
HETATM   28  F1  UNL     1     -92.962 -19.114  10.494  1.00  0.00    -0.250 F
ENDBRANCH  25  26
ENDBRANCH  24  25
ENDBRANCH  18  23
BRANCH  15  29
HETATM   29  O4  UNL     1     -82.914 -11.921   8.414  1.00  0.00    -0.353 OA
HETATM   30  C16 UNL     1     -81.822 -11.704   9.287  1.00  0.00     0.210 C
ENDBRANCH  15  29
BRANCH  14  31
HETATM   31  O3  UNL     1     -83.109 -14.243   6.917  1.00  0.00    -0.353 OA
HETATM   32  C14 UNL     1     -83.506 -14.198   5.564  1.00  0.00     0.210 C
ENDBRANCH  14  31
BRANCH   5  33
HETATM   33  O2  UNL     1     -85.154 -14.088  14.506  1.00  0.00    -0.345 OA
ATOM     34  H2  UNL     1     -84.531 -13.434  14.800  1.00  0.00     0.219 HD
ENDBRANCH   5  33
BRANCH   2  35
HETATM   35  O1  UNL     1     -89.258 -15.236  16.805  1.00  0.00    -0.345 OA
ATOM     36  H1  UNL     1     -90.205 -15.184  16.759  1.00  0.00     0.219 HD
ENDBRANCH   2  35
BRANCH   1  37
HETATM   37  C2  UNL     1     -86.229 -15.632  16.844  1.00  0.00     0.129 C
HETATM   38  C1  UNL     1     -85.712 -14.734  17.975  1.00  0.00     0.027 C
ENDBRANCH   1  37
TORSDOF 8
ENDMDL