MODEL 3
REMARK VINA RESULT: -6.733544272      0.125      1.045
REMARK  12 active torsions:
REMARK  status: ('A' for Active; 'I' for Inactive)
REMARK    1  A    between atoms: N1_2  and  C2_5
REMARK    2  A    between atoms: C2_5  and  C3_6
REMARK    3  A    between atoms: N3_9  and  C4_10
REMARK    4  A    between atoms: C8_16  and  C9_17
REMARK    5  A    between atoms: C10_18  and  C11_19
REMARK    6  A    between atoms: C11_19  and  O1_20
REMARK    7  A    between atoms: C11_19  and  N5_22
REMARK    8  A    between atoms: N5_22  and  C12_24
REMARK    9  A    between atoms: C12_24  and  C13_25
REMARK   10  A    between atoms: C17_29  and  C18_30
REMARK   11  A    between atoms: C22_34  and  O2_35
REMARK   12  A    between atoms: C23_37  and  C24_38
ROOT
HETATM    1  C9  UNL     1     -88.333 -15.900  12.611  1.00  0.00     0.018 A
HETATM    2  C10 UNL     1     -89.390 -16.367  13.360  1.00  0.00     0.028 A
HETATM    3  C16 UNL     1     -90.500 -16.882  12.661  1.00  0.00     0.027 A
HETATM    4  C17 UNL     1     -90.563 -16.930  11.306  1.00  0.00    -0.016 A
HETATM    5  C22 UNL     1     -89.494 -16.453  10.602  1.00  0.00     0.080 A
HETATM    6  C23 UNL     1     -88.340 -15.919  11.222  1.00  0.00    -0.003 A
ENDROOT
BRANCH   1   7
HETATM    7  C8  UNL     1     -87.159 -15.468  13.356  1.00  0.00     0.087 A
HETATM    8  C3  UNL     1     -86.232 -16.383  13.866  1.00  0.00     0.082 A
HETATM    9  N2  UNL     1     -85.306 -15.646  14.500  1.00  0.00    -0.284 N
HETATM   10  N3  UNL     1     -85.596 -14.365  14.415  1.00  0.00    -0.225 N
ATOM     11  H2  UNL     1     -84.492 -16.025  14.982  1.00  0.00     0.188 HD
HETATM   12  N4  UNL     1     -86.709 -14.269  13.729  1.00  0.00    -0.281 N
ATOM     13  H4  UNL     1     -87.173 -13.387  13.507  1.00  0.00     0.189 HD
BRANCH   8  14
HETATM   14  C2  UNL     1     -86.185 -17.862  13.775  1.00  0.00     0.292 C
BRANCH  14  15
HETATM   15  N1  UNL     1     -86.628 -18.453  15.050  1.00  0.00    -0.074 N
HETATM   16  C1  UNL     1     -86.788 -19.882  14.855  1.00  0.00     0.267 C
ATOM     17  H12 UNL     1     -87.469 -18.009  15.419  1.00  0.00     0.277 HD
ATOM     18  H11 UNL     1     -86.004 -18.229  15.825  1.00  0.00     0.277 HD
ENDBRANCH  14  15
ENDBRANCH   8  14
BRANCH  10  19
HETATM   19  C4  UNL     1     -84.747 -13.335  15.006  1.00  0.00     0.060 C
HETATM   20  C5  UNL     1     -84.339 -12.352  13.907  1.00  0.00     0.041 C
HETATM   21  C6  UNL     1     -85.445 -12.536  16.072  1.00  0.00     0.041 C
HETATM   22  C7  UNL     1     -83.479 -13.900  15.565  1.00  0.00     0.041 C
ENDBRANCH  10  19
ENDBRANCH   1   7
BRANCH   2  23
HETATM   23  C11 UNL     1     -89.555 -16.338  14.780  1.00  0.00     0.147 C
BRANCH  23  24
HETATM   24  O1  UNL     1     -89.467 -17.490  15.391  1.00  0.00    -0.346 OA
ATOM     25  H1  UNL     1     -88.887 -17.521  16.143  1.00  0.00     0.219 HD
ENDBRANCH  23  24
BRANCH  23  26
HETATM   26  N5  UNL     1     -89.811 -15.269  15.643  1.00  0.00    -0.370 N
ATOM     27  H5  UNL     1     -90.769 -14.952  15.793  1.00  0.00     0.161 HD
BRANCH  26  28
HETATM   28  C12 UNL     1     -88.690 -14.595  16.338  1.00  0.00     0.125 C
BRANCH  28  29
HETATM   29  C13 UNL     1     -88.373 -15.254  17.648  1.00  0.00    -0.005 C
HETATM   30  C14 UNL     1     -88.323 -14.229  18.779  1.00  0.00     0.011 C
HETATM   31  C15 UNL     1     -87.027 -15.944  17.571  1.00  0.00     0.011 C
ENDBRANCH  28  29
ENDBRANCH  26  28
ENDBRANCH  23  26
ENDBRANCH   2  23
BRANCH   6  32
HETATM   32  C24 UNL     1     -87.274 -15.366  10.424  1.00  0.00    -0.021 C
HETATM   33  C25 UNL     1     -85.896 -16.001  10.610  1.00  0.00     0.019 C
HETATM   34  C26 UNL     1     -87.191 -13.852  10.637  1.00  0.00     0.019 C
HETATM   35  C27 UNL     1     -87.473 -15.480   8.903  1.00  0.00     0.019 C
ENDBRANCH   6  32
BRANCH   5  36
HETATM   36  O2  UNL     1     -89.516 -16.482   9.249  1.00  0.00    -0.359 OA
ATOM     37  H2  UNL     1     -88.699 -16.450   8.765  1.00  0.00     0.217 HD
ENDBRANCH   5  36
BRANCH   4  38
HETATM   38  C18 UNL     1     -91.760 -17.475  10.649  1.00  0.00    -0.021 C
HETATM   39  C19 UNL     1     -92.466 -16.316   9.915  1.00  0.00     0.019 C
HETATM   40  C20 UNL     1     -91.308 -18.482   9.596  1.00  0.00     0.019 C
HETATM   41  C21 UNL     1     -92.788 -18.051  11.571  1.00  0.00     0.019 C
ENDBRANCH   4  38
TORSDOF 12
ENDMDL