MODEL 4
REMARK VINA RESULT: -8.376533570      2.562      7.895
REMARK  9 active torsions:
REMARK  status: ('A' for Active; 'I' for Inactive)
REMARK    1  A    between atoms: C2_2  and  N1_3
REMARK    2  A    between atoms: C3_4  and  C4_5
REMARK    3  A    between atoms: C8_9  and  O1_10
REMARK    4  A    between atoms: C15_20  and  O2_21
REMARK    5  A    between atoms: C17_24  and  C18_25
REMARK    6  A    between atoms: C22_29  and  N3_30
REMARK    7  A    between atoms: C26_36  and  C27_37
REMARK    8  A    between atoms: C27_37  and  C28_38
REMARK    9  A    between atoms: C28_38  and  O3_39
ROOT
HETATM    1  N1  UNL     1     -82.615 -13.988   7.894  1.00  0.00    -0.330 N
HETATM    2  C3  UNL     1     -82.895 -13.776   6.606  1.00  0.00     0.031 A
HETATM    3  C7  UNL     1     -84.286 -13.943   6.415  1.00  0.00     0.036 A
HETATM    4  C8  UNL     1     -85.110 -13.834   5.316  1.00  0.00     0.081 A
HETATM    5  C9  UNL     1     -86.444 -14.041   5.435  1.00  0.00     0.067 A
HETATM    6  C10 UNL     1     -86.967 -14.363   6.667  1.00  0.00     0.047 A
HETATM    7  N2  UNL     1     -88.230 -14.604   7.037  1.00  0.00    -0.357 N
ATOM      8  H2  UNL     1     -89.040 -14.587   6.417  1.00  0.00     0.166 HD
HETATM    9  C11 UNL     1     -88.268 -14.878   8.372  1.00  0.00     0.039 A
HETATM   10  C12 UNL     1     -86.987 -14.808   8.857  1.00  0.00    -0.018 A
HETATM   11  C13 UNL     1     -86.172 -14.482   7.792  1.00  0.00     0.015 A
HETATM   12  C14 UNL     1     -84.800 -14.268   7.674  1.00  0.00     0.043 A
HETATM   13  C15 UNL     1     -83.769 -14.292   8.566  1.00  0.00     0.154 A
HETATM   14  C16 UNL     1     -86.680 -15.099  10.272  1.00  0.00     0.071 C
HETATM   15  C17 UNL     1     -87.839 -15.629  11.081  1.00  0.00     0.115 C
HETATM   16  N4  UNL     1     -89.032 -15.877  10.391  1.00  0.00    -0.403 N
ATOM     17  H4  UNL     1     -89.651 -16.611  10.733  1.00  0.00     0.154 HD
HETATM   18  C26 UNL     1     -89.403 -15.166   9.265  1.00  0.00     0.130 C
ENDROOT
BRANCH  15  19
HETATM   19  C18 UNL     1     -87.983 -14.843  12.358  1.00  0.00    -0.033 A
HETATM   20  C19 UNL     1     -88.036 -13.477  12.375  1.00  0.00     0.009 A
HETATM   21  C20 UNL     1     -88.156 -12.822  13.602  1.00  0.00     0.003 A
HETATM   22  C21 UNL     1     -88.220 -13.534  14.781  1.00  0.00     0.029 A
HETATM   23  C22 UNL     1     -88.168 -14.912  14.776  1.00  0.00     0.029 A
HETATM   24  C25 UNL     1     -88.050 -15.554  13.566  1.00  0.00     0.038 A
BRANCH  23  25
HETATM   25  N3  UNL     1     -88.235 -15.586  16.015  1.00  0.00    -0.390 N
HETATM   26  C23 UNL     1     -88.088 -17.019  16.065  1.00  0.00     0.149 C
HETATM   27  C24 UNL     1     -88.452 -14.834  17.224  1.00  0.00     0.149 C
ENDBRANCH  23  25
ENDBRANCH  15  19
BRANCH  18  28
HETATM   28  C27 UNL     1     -90.499 -15.925   8.508  1.00  0.00     0.057 C
BRANCH  28  29
HETATM   29  C28 UNL     1     -91.608 -14.992   8.072  1.00  0.00     0.166 C
BRANCH  29  30
HETATM   30  O3  UNL     1     -91.429 -14.622   6.753  1.00  0.00    -0.401 OA
ATOM     31  H3  UNL     1     -91.474 -13.677   6.667  1.00  0.00     0.209 HD
ENDBRANCH  29  30
ENDBRANCH  28  29
ENDBRANCH  18  28
BRANCH  13  32
HETATM   32  O2  UNL     1     -83.753 -14.547   9.893  1.00  0.00    -0.345 OA
ATOM     33  H2  UNL     1     -84.091 -15.366  10.236  1.00  0.00     0.219 HD
ENDBRANCH  13  32
BRANCH   4  34
HETATM   34  O1  UNL     1     -84.551 -13.505   4.068  1.00  0.00    -0.360 OA
ATOM     35  H1  UNL     1     -83.652 -13.200   4.027  1.00  0.00     0.217 HD
ENDBRANCH   4  34
BRANCH   2  36
HETATM   36  C4  UNL     1     -82.049 -13.416   5.469  1.00  0.00     0.028 C
HETATM   37  C5  UNL     1     -80.836 -14.250   5.200  1.00  0.00     0.016 C
HETATM   38  C6  UNL     1     -81.475 -11.995   5.685  1.00  0.00     0.016 C
ENDBRANCH   2  36
BRANCH   1  39
HETATM   39  C2  UNL     1     -81.345 -13.895   8.550  1.00  0.00     0.126 C
HETATM   40  C1  UNL     1     -81.159 -12.510   9.195  1.00  0.00     0.027 C
ENDBRANCH   1  39
TORSDOF 9
ENDMDL