MODEL 3
REMARK VINA RESULT: -8.844981418      1.995      2.624
REMARK  9 active torsions:
REMARK  status: ('A' for Active; 'I' for Inactive)
REMARK    1  A    between atoms: C2_2  and  C3_3
REMARK    2  A    between atoms: C5_5  and  C6_6
REMARK    3  A    between atoms: C7_7  and  C8_8
REMARK    4  A    between atoms: C15_15  and  O1_16
REMARK    5  A    between atoms: C16_18  and  O2_19
REMARK    6  A    between atoms: C19_25  and  C20_26
REMARK    7  A    between atoms: C20_26  and  C22_28
REMARK    8  A    between atoms: C24_30  and  C25_31
REMARK    9  A    between atoms: C25_31  and  O3_32
ROOT
HETATM    1  C8  UNL     1     -89.279 -14.114  13.751  1.00  0.00    -0.039 C
HETATM    2  C9  UNL     1     -88.362 -13.982  12.786  1.00  0.00    -0.004 C
HETATM    3  C10 UNL     1     -88.478 -14.264  11.363  1.00  0.00     0.062 C
HETATM    4  C11 UNL     1     -89.827 -14.599  10.936  1.00  0.00    -0.058 C
HETATM    5  C12 UNL     1     -90.031 -15.476   9.730  1.00  0.00     0.076 C
HETATM    6  C13 UNL     1     -89.283 -15.043   8.524  1.00  0.00    -0.025 A
HETATM    7  C14 UNL     1     -90.059 -14.847   7.395  1.00  0.00     0.049 A
HETATM    8  C15 UNL     1     -89.504 -14.451   6.208  1.00  0.00     0.099 A
HETATM    9  C16 UNL     1     -88.143 -14.247   6.154  1.00  0.00     0.101 A
HETATM   10  C17 UNL     1     -87.341 -14.438   7.278  1.00  0.00     0.069 A
HETATM   11  C18 UNL     1     -87.921 -14.836   8.459  1.00  0.00     0.037 A
HETATM   12  N1  UNL     1     -87.041 -15.003   9.544  1.00  0.00    -0.383 N
ATOM     13  H1  UNL     1     -86.044 -14.929   9.343  1.00  0.00     0.160 HD
HETATM   14  C19 UNL     1     -87.422 -15.278  10.956  1.00  0.00     0.097 C
HETATM   15  C24 UNL     1     -90.825 -14.792  11.980  1.00  0.00    -0.031 C
HETATM   16  C26 UNL     1     -90.564 -14.559  13.249  1.00  0.00     0.020 C
ENDROOT
BRANCH   1  17
HETATM   17  C7  UNL     1     -88.969 -13.791  15.134  1.00  0.00     0.012 C
HETATM   18  C6  UNL     1     -87.905 -13.644  15.809  1.00  0.00     0.013 C
BRANCH  18  19
HETATM   19  C5  UNL     1     -86.500 -13.715  15.637  1.00  0.00    -0.015 A
HETATM   20  C4  UNL     1     -85.807 -12.502  15.482  1.00  0.00     0.042 A
HETATM   21  C3  UNL     1     -84.446 -12.405  15.402  1.00  0.00     0.034 A
HETATM   22  N3  UNL     1     -83.752 -13.558  15.482  1.00  0.00    -0.334 N
HETATM   23  C29 UNL     1     -84.323 -14.751  15.632  1.00  0.00     0.186 A
ATOM     24  H3  UNL     1     -82.735 -13.514  15.424  1.00  0.00     0.168 HD
HETATM   25  C27 UNL     1     -85.712 -14.837  15.712  1.00  0.00     0.085 A
HETATM   26  O4  UNL     1     -83.857 -15.985  15.740  1.00  0.00    -0.216 OA
HETATM   27  C28 UNL     1     -86.005 -16.171  15.877  1.00  0.00     0.223 A
HETATM   28  F1  UNL     1     -87.212 -16.708  16.037  1.00  0.00    -0.183 F
HETATM   29  N2  UNL     1     -84.837 -16.829  15.886  1.00  0.00    -0.232 N
ATOM     30  H2  UNL     1     -84.731 -17.839  15.990  1.00  0.00     0.197 HD
BRANCH  21  31
HETATM   31  C2  UNL     1     -83.753 -11.136  15.239  1.00  0.00     0.019 C
HETATM   32  C1  UNL     1     -83.159 -10.757  14.135  1.00  0.00     0.013 C
ENDBRANCH  21  31
ENDBRANCH  18  19
ENDBRANCH   1  17
BRANCH  15  33
HETATM   33  C25 UNL     1     -92.226 -15.260  11.673  1.00  0.00     0.203 C
BRANCH  33  34
HETATM   34  O3  UNL     1     -93.201 -14.451  12.231  1.00  0.00    -0.396 OA
ATOM     35  H3  UNL     1     -92.841 -13.728  12.732  1.00  0.00     0.209 HD
ENDBRANCH  33  34
ENDBRANCH  15  33
BRANCH  14  36
HETATM   36  C20 UNL     1     -86.160 -15.340  11.692  1.00  0.00     0.005 C
HETATM   37  C21 UNL     1     -85.804 -16.663  12.323  1.00  0.00     0.012 C
BRANCH  36  38
HETATM   38  C22 UNL     1     -84.981 -14.576  11.149  1.00  0.00     0.002 C
HETATM   39  C23 UNL     1     -84.883 -13.208  11.865  1.00  0.00     0.005 C
ENDBRANCH  36  38
ENDBRANCH  14  36
BRANCH   8  40
HETATM   40  O1  UNL     1     -90.294 -14.251   5.057  1.00  0.00    -0.358 OA
ATOM     41  H1  UNL     1     -90.577 -14.980   4.517  1.00  0.00     0.217 HD
ENDBRANCH   8  40
BRANCH   9  42
HETATM   42  O2  UNL     1     -87.596 -13.847   4.951  1.00  0.00    -0.358 OA
ATOM     43  H2  UNL     1     -86.811 -14.290   4.650  1.00  0.00     0.217 HD
ENDBRANCH   9  42
TORSDOF 9
ENDMDL