MODEL 4
REMARK VINA RESULT: -9.658106418      5.048      6.909
REMARK  9 active torsions:
REMARK  status: ('A' for Active; 'I' for Inactive)
REMARK    1  A    between atoms: N1_1  and  C1_4
REMARK    2  A    between atoms: C2_7  and  N3_8
REMARK    3  A    between atoms: N3_8  and  C3_10
REMARK    4  A    between atoms: C6_13  and  O1_14
REMARK    5  A    between atoms: O1_14  and  C7_15
REMARK    6  A    between atoms: C15_25  and  N5_26
REMARK    7  A    between atoms: N5_26  and  C16_28
REMARK    8  A    between atoms: C19_31  and  O2_32
REMARK    9  A    between atoms: O2_32  and  C20_33
ROOT
HETATM    1  C1  UNL     1     -86.028 -12.335  15.374  1.00  0.00     0.705 A
HETATM    2  N2  UNL     1     -87.241 -12.808  15.700  1.00  0.00    -0.021 N
ATOM      3  H2  UNL     1     -87.857 -12.273  16.312  1.00  0.00     0.203 HD
HETATM    4  C2  UNL     1     -87.637 -14.005  15.206  1.00  0.00     0.711 A
HETATM    5  N4  UNL     1     -86.808 -14.692  14.400  1.00  0.00    -0.021 N
ATOM      6  H4  UNL     1     -87.117 -15.592  14.033  1.00  0.00     0.203 HD
HETATM    7  C15 UNL     1     -85.577 -14.235  14.056  1.00  0.00     0.711 A
HETATM    8  N6  UNL     1     -85.219 -13.041  14.567  1.00  0.00    -0.021 N
ATOM      9  H6  UNL     1     -84.303 -12.659  14.333  1.00  0.00     0.203 HD
ENDROOT
BRANCH   4  10
HETATM   10  N3  UNL     1     -88.803 -14.433  15.536  1.00  0.00    -0.191 N
ATOM     11  H3  UNL     1     -89.063 -14.514  16.519  1.00  0.00     0.184 HD
BRANCH  10  12
HETATM   12  C3  UNL     1     -89.717 -14.789  14.527  1.00  0.00     0.049 A
HETATM   13  C4  UNL     1     -90.209 -16.069  14.496  1.00  0.00     0.033 A
HETATM   14  C5  UNL     1     -91.103 -16.419  13.512  1.00  0.00     0.039 A
HETATM   15  C6  UNL     1     -91.488 -15.487  12.578  1.00  0.00     0.076 A
HETATM   16  C13 UNL     1     -91.004 -14.204  12.596  1.00  0.00     0.039 A
HETATM   17  C14 UNL     1     -90.113 -13.843  13.571  1.00  0.00     0.033 A
BRANCH  15  18
HETATM   18  O1  UNL     1     -92.387 -15.828  11.581  1.00  0.00    -0.311 OA
BRANCH  18  19
HETATM   19  C7  UNL     1     -92.203 -16.845  10.678  1.00  0.00     0.076 A
HETATM   20  C8  UNL     1     -91.146 -16.751   9.799  1.00  0.00     0.037 A
HETATM   21  C9  UNL     1     -90.908 -17.738   8.870  1.00  0.00     0.003 A
HETATM   22  C10 UNL     1     -91.715 -18.845   8.786  1.00  0.00     0.000 A
HETATM   23  C11 UNL     1     -92.775 -18.965   9.650  1.00  0.00     0.003 A
HETATM   24  C12 UNL     1     -93.001 -17.962  10.580  1.00  0.00     0.037 A
ENDBRANCH  18  19
ENDBRANCH  15  18
ENDBRANCH  10  12
ENDBRANCH   4  10
BRANCH   1  25
HETATM   25  N1  UNL     1     -85.655 -11.205  15.839  1.00  0.00    -0.234 N
ATOM     26  H12 UNL     1     -85.038 -11.157  16.651  1.00  0.00     0.174 HD
ATOM     27  H11 UNL     1     -85.981 -10.350  15.389  1.00  0.00     0.174 HD
ENDBRANCH   1  25
BRANCH   7  28
HETATM   28  N5  UNL     1     -84.847 -14.954  13.279  1.00  0.00    -0.191 N
ATOM     29  H5  UNL     1     -84.098 -15.524  13.674  1.00  0.00     0.184 HD
BRANCH  28  30
HETATM   30  C16 UNL     1     -85.075 -14.963  11.874  1.00  0.00     0.052 A
HETATM   31  C17 UNL     1     -85.298 -16.127  11.168  1.00  0.00     0.033 A
HETATM   32  C18 UNL     1     -85.515 -16.081   9.810  1.00  0.00     0.043 A
HETATM   33  C19 UNL     1     -85.522 -14.891   9.079  1.00  0.00     0.115 A
HETATM   34  C24 UNL     1     -85.300 -13.742   9.787  1.00  0.00     0.152 A
HETATM   35  F1  UNL     1     -85.281 -12.530   9.180  1.00  0.00    -0.203 F
HETATM   36  C25 UNL     1     -85.082 -13.791  11.159  1.00  0.00     0.075 A
BRANCH  33  37
HETATM   37  O2  UNL     1     -85.742 -14.889   7.715  1.00  0.00    -0.300 OA
BRANCH  37  38
HETATM   38  C20 UNL     1     -87.028 -14.738   7.192  1.00  0.00     0.117 A
HETATM   39  C21 UNL     1     -88.208 -15.228   7.685  1.00  0.00     0.045 A
HETATM   40  C22 UNL     1     -89.325 -14.955   7.008  1.00  0.00     0.010 A
HETATM   41  C23 UNL     1     -89.208 -14.204   5.868  1.00  0.00     0.052 A
HETATM   42  S1  UNL     1     -87.529 -13.907   5.788  1.00  0.00    -0.077 SA
ENDBRANCH  37  38
ENDBRANCH  33  37
ENDBRANCH  28  30
ENDBRANCH   7  28
TORSDOF 9
ENDMDL