MODEL 4
REMARK VINA RESULT: -8.480296905      2.378      5.804
REMARK  9 active torsions:
REMARK  status: ('A' for Active; 'I' for Inactive)
REMARK    1  A    between atoms: O1_2  and  C2_3
REMARK    2  A    between atoms: C4_5  and  O2_6
REMARK    3  A    between atoms: O2_6  and  C5_7
REMARK    4  A    between atoms: C8_12  and  C9_13
REMARK    5  A    between atoms: C12_18  and  N3_19
REMARK    6  A    between atoms: C13_24  and  N5_25
REMARK    7  A    between atoms: N5_25  and  C14_26
REMARK    8  A    between atoms: C21_33  and  N6_34
REMARK    9  A    between atoms: C23_38  and  O5_39
ROOT
HETATM    1  C5  UNL     1     -91.430 -16.159  11.635  1.00  0.00     0.103 A
HETATM    2  C6  UNL     1     -92.478 -17.054  11.905  1.00  0.00     0.125 A
HETATM    3  N1  UNL     1     -92.240 -18.161  11.202  1.00  0.00    -0.372 N
ATOM      4  H1  UNL     1     -92.831 -18.992  11.195  1.00  0.00     0.164 HD
HETATM    5  C7  UNL     1     -91.082 -18.010  10.495  1.00  0.00     0.102 A
HETATM    6  C8  UNL     1     -90.577 -16.765  10.762  1.00  0.00     0.025 A
ENDROOT
BRANCH   6   7
HETATM    7  C9  UNL     1     -89.357 -16.220  10.186  1.00  0.00    -0.014 A
HETATM    8  C10 UNL     1     -88.136 -16.403  10.819  1.00  0.00     0.044 A
HETATM    9  C11 UNL     1     -86.963 -15.891  10.346  1.00  0.00     0.065 A
HETATM   10  N2  UNL     1     -85.775 -16.063  10.969  1.00  0.00    -0.191 N
HETATM   11  C17 UNL     1     -86.961 -15.144   9.172  1.00  0.00     0.050 A
HETATM   12  C12 UNL     1     -84.622 -15.555  10.512  1.00  0.00     0.678 A
ATOM     13  H2  UNL     1     -85.755 -16.608  11.831  1.00  0.00     0.184 HD
HETATM   14  N4  UNL     1     -84.647 -14.841   9.383  1.00  0.00    -0.164 N
HETATM   15  C13 UNL     1     -85.802 -14.605   8.669  1.00  0.00     0.200 A
ATOM     16  H4  UNL     1     -83.772 -14.452   9.032  1.00  0.00     0.187 HD
HETATM   17  C18 UNL     1     -88.185 -14.966   8.543  1.00  0.00     0.026 A
HETATM   18  C19 UNL     1     -89.362 -15.486   9.028  1.00  0.00    -0.050 A
HETATM   19  C20 UNL     1     -90.634 -15.273   8.299  1.00  0.00     0.049 C
BRANCH  12  20
HETATM   20  N3  UNL     1     -83.524 -15.760  11.160  1.00  0.00    -0.234 N
ATOM     21  H32 UNL     1     -83.235 -15.155  11.928  1.00  0.00     0.174 HD
ATOM     22  H31 UNL     1     -82.921 -16.543  10.908  1.00  0.00     0.174 HD
ENDBRANCH  12  20
BRANCH  15  23
HETATM   23  N5  UNL     1     -85.718 -13.948   7.665  1.00  0.00    -0.424 NA
BRANCH  23  24
HETATM   24  C14 UNL     1     -85.709 -13.596   6.366  1.00  0.00     0.157 C
HETATM   25  C15 UNL     1     -84.434 -14.131   5.679  1.00  0.00     0.047 C
HETATM   26  C16 UNL     1     -86.889 -14.168   5.537  1.00  0.00     0.047 C
ENDBRANCH  23  24
ENDBRANCH  15  23
ENDBRANCH   6   7
BRANCH   1  27
HETATM   27  O2  UNL     1     -91.286 -14.856  12.178  1.00  0.00    -0.306 OA
BRANCH  27  28
HETATM   28  C4  UNL     1     -90.147 -14.540  12.888  1.00  0.00     0.112 A
HETATM   29  C3  UNL     1     -89.382 -13.497  12.301  1.00  0.00     0.079 A
HETATM   30  C2  UNL     1     -88.225 -13.107  12.917  1.00  0.00     0.104 A
HETATM   31  C23 UNL     1     -87.840 -13.747  14.101  1.00  0.00     0.104 A
HETATM   32  C22 UNL     1     -88.588 -14.746  14.656  1.00  0.00     0.078 A
HETATM   33  C21 UNL     1     -89.789 -15.161  14.031  1.00  0.00     0.139 A
BRANCH  30  34
HETATM   34  O1  UNL     1     -87.395 -12.117  12.455  1.00  0.00    -0.353 OA
HETATM   35  C1  UNL     1     -86.428 -12.281  11.483  1.00  0.00     0.210 C
ENDBRANCH  30  34
BRANCH  31  36
HETATM   36  O5  UNL     1     -86.663 -13.331  14.696  1.00  0.00    -0.353 OA
HETATM   37  C24 UNL     1     -85.543 -14.186  14.678  1.00  0.00     0.210 C
ENDBRANCH  31  36
BRANCH  33  38
HETATM   38  N6  UNL     1     -90.579 -16.111  14.703  1.00  0.00    -0.113 N
HETATM   39  O3  UNL     1     -91.578 -15.594  15.346  1.00  0.00    -0.532 OA
HETATM   40  O4  UNL     1     -90.476 -17.453  14.781  1.00  0.00    -0.532 OA
ENDBRANCH  33  38
ENDBRANCH  27  28
ENDBRANCH   1  27
TORSDOF 9
ENDMDL