MODEL 5
REMARK VINA RESULT: -8.534601831      5.316      8.959
REMARK  7 active torsions:
REMARK  status: ('A' for Active; 'I' for Inactive)
REMARK    1  A    between atoms: C2_2  and  C3_3
REMARK    2  A    between atoms: C3_3  and  C4_4
REMARK    3  A    between atoms: C6_6  and  C7_7
REMARK    4  A    between atoms: C10_12  and  C11_13
REMARK    5  A    between atoms: C13_15  and  N2_16
REMARK    6  A    between atoms: N2_16  and  C14_18
REMARK    7  A    between atoms: C15_19  and  O1_20
ROOT
HETATM    1  C11 UNL     1     -88.445 -17.346  15.458  1.00  0.00     0.004 A
HETATM    2  C12 UNL     1     -87.929 -18.591  15.720  1.00  0.00     0.062 A
HETATM    3  C13 UNL     1     -87.179 -18.877  16.837  1.00  0.00     0.106 A
HETATM    4  N5  UNL     1     -86.966 -17.838  17.695  1.00  0.00    -0.351 N
ATOM      5  H5  UNL     1     -86.417 -17.999  18.538  1.00  0.00     0.166 HD
HETATM    6  C20 UNL     1     -87.458 -16.612  17.462  1.00  0.00     0.114 A
HETATM    7  C21 UNL     1     -88.211 -16.320  16.343  1.00  0.00     0.060 A
HETATM    8 CL1  UNL     1     -88.863 -14.729  16.021  1.00  0.00    -0.082 Cl
ENDROOT
BRANCH   1   9
HETATM    9  C10 UNL     1     -89.270 -17.087  14.232  1.00  0.00     0.011 A
HETATM   10  C9  UNL     1     -88.757 -16.815  13.002  1.00  0.00     0.062 A
HETATM   11  N1  UNL     1     -87.518 -16.674  12.434  1.00  0.00    -0.363 N
HETATM   12  C23 UNL     1     -89.642 -16.603  11.997  1.00  0.00     0.046 A
HETATM   13  C8  UNL     1     -87.658 -16.383  11.106  1.00  0.00     0.103 A
ATOM     14  H1  UNL     1     -86.629 -16.772  12.925  1.00  0.00     0.165 HD
HETATM   15  C7  UNL     1     -88.989 -16.329  10.787  1.00  0.00     0.027 A
HETATM   16  S1  UNL     1     -91.152 -16.782  12.752  1.00  0.00    -0.098 SA
HETATM   17  C22 UNL     1     -90.634 -17.124  14.341  1.00  0.00     0.065 A
BRANCH  15  18
HETATM   18  C6  UNL     1     -89.658 -16.052   9.526  1.00  0.00     0.065 A
HETATM   19  C5  UNL     1     -89.234 -15.085   8.607  1.00  0.00     0.058 A
HETATM   20  C4  UNL     1     -90.081 -15.087   7.517  1.00  0.00     0.028 A
HETATM   21  N7  UNL     1     -90.995 -16.040   7.785  1.00  0.00    -0.303 N
HETATM   22  N6  UNL     1     -90.736 -16.600   8.969  1.00  0.00    -0.296 N
ATOM     23  H7  UNL     1     -91.770 -16.296   7.174  1.00  0.00     0.186 HD
HETATM   24  C24 UNL     1     -91.543 -17.667   9.558  1.00  0.00     0.178 C
BRANCH  20  25
HETATM   25  C3  UNL     1     -89.997 -14.215   6.308  1.00  0.00     0.058 C
BRANCH  25  26
HETATM   26  C2  UNL     1     -88.766 -14.554   5.492  1.00  0.00     0.002 C
HETATM   27  C1  UNL     1     -87.718 -13.502   5.851  1.00  0.00     0.005 C
ENDBRANCH  25  26
ENDBRANCH  20  25
ENDBRANCH  15  18
ENDBRANCH   1   9
BRANCH   3  28
HETATM   28  N2  UNL     1     -86.684 -20.032  17.123  1.00  0.00    -0.337 N
ATOM     29  H2  UNL     1     -85.737 -20.063  17.499  1.00  0.00     0.167 HD
BRANCH  28  30
HETATM   30  C14 UNL     1     -87.368 -21.263  16.950  1.00  0.00     0.111 A
HETATM   31  C15 UNL     1     -87.027 -22.020  15.810  1.00  0.00     0.100 A
HETATM   32  C17 UNL     1     -87.705 -23.241  15.643  1.00  0.00     0.056 A
HETATM   33  C18 UNL     1     -88.633 -23.633  16.557  1.00  0.00     0.092 A
HETATM   34  N3  UNL     1     -88.936 -22.894  17.632  1.00  0.00    -0.351 N
HETATM   35  C19 UNL     1     -88.305 -21.725  17.820  1.00  0.00     0.128 A
ATOM     36  H3  UNL     1     -89.636 -23.216  18.299  1.00  0.00     0.166 HD
HETATM   37  N4  UNL     1     -88.614 -21.016  18.897  1.00  0.00    -0.384 N
ATOM     38  H42 UNL     1     -88.135 -20.127  19.040  1.00  0.00     0.157 HD
ATOM     39  H41 UNL     1     -89.317 -21.363  19.549  1.00  0.00     0.157 HD
BRANCH  31  40
HETATM   40  O1  UNL     1     -86.152 -21.649  14.947  1.00  0.00    -0.353 OA
HETATM   41  C16 UNL     1     -85.491 -21.093  14.005  1.00  0.00     0.210 C
ENDBRANCH  31  40
ENDBRANCH  28  30
ENDBRANCH   3  28
TORSDOF 7
ENDMDL