MODEL 3
REMARK VINA RESULT: -8.297340146      1.780      2.138
REMARK  8 active torsions:
REMARK  status: ('A' for Active; 'I' for Inactive)
REMARK       I    between atoms: N1_2  and  C2_4
REMARK       I    between atoms: C2_4  and  N2_6
REMARK    1  A    between atoms: N3_8  and  C3_10
REMARK    2  A    between atoms: C5_12  and  C6_13
REMARK    3  A    between atoms: C10_19  and  O2_20
REMARK    4  A    between atoms: O2_20  and  C11_21
REMARK    5  A    between atoms: C11_21  and  C12_22
REMARK    6  A    between atoms: C12_22  and  O3_23
REMARK    7  A    between atoms: C12_22  and  C13_25
REMARK    8  A    between atoms: C13_25  and  O4_28
ROOT
HETATM    1  C6  UNL     1     -90.725 -14.818   7.750  1.00  0.00     0.004 A
HETATM    2  C7  UNL     1     -91.243 -14.496   6.487  1.00  0.00     0.101 A
HETATM    3  N4  UNL     1     -90.213 -14.257   5.664  1.00  0.00    -0.364 N
ATOM      4  H4  UNL     1     -90.302 -13.999   4.681  1.00  0.00     0.165 HD
HETATM    5  C8  UNL     1     -89.050 -14.405   6.313  1.00  0.00     0.047 A
HETATM    6  C9  UNL     1     -87.751 -14.278   5.903  1.00  0.00     0.067 A
HETATM    7  C10 UNL     1     -86.704 -14.497   6.767  1.00  0.00     0.072 A
HETATM    8  C16 UNL     1     -87.048 -14.853   8.079  1.00  0.00     0.056 A
HETATM    9  C17 UNL     1     -88.333 -14.983   8.503  1.00  0.00     0.027 A
HETATM   10 BR1  UNL     1     -88.717 -15.523  10.302  1.00  0.00    -0.050 Br
HETATM   11  C18 UNL     1     -89.370 -14.759   7.623  1.00  0.00     0.021 A
ENDROOT
BRANCH   1  12
HETATM   12  C5  UNL     1     -91.573 -15.090   8.941  1.00  0.00    -0.014 A
HETATM   13  C4  UNL     1     -92.077 -16.298   9.254  1.00  0.00     0.051 A
HETATM   14  C3  UNL     1     -92.894 -16.390  10.343  1.00  0.00     0.089 A
HETATM   15  S1  UNL     1     -92.950 -14.789  10.915  1.00  0.00    -0.082 SA
HETATM   16  C19 UNL     1     -91.941 -14.045   9.765  1.00  0.00     0.064 A
BRANCH  14  17
HETATM   17  N3  UNL     1     -93.539 -17.579  10.859  1.00  0.00    -0.290 N
HETATM   18  N2  UNL     1     -92.943 -18.153  11.820  1.00  0.00    -0.251 N
HETATM   19  C2  UNL     1     -91.739 -17.713  12.385  1.00  0.00     0.334 C
ATOM     20  H2  UNL     1     -93.370 -18.993  12.210  1.00  0.00     0.191 HD
HETATM   21  N1  UNL     1     -91.625 -17.185  13.700  1.00  0.00    -0.346 N
HETATM   22  O1  UNL     1     -90.695 -17.788  11.688  1.00  0.00    -0.246 OA
HETATM   23  C1  UNL     1     -90.352 -16.746  14.232  1.00  0.00     0.151 C
ATOM     24  H1  UNL     1     -92.459 -17.115  14.283  1.00  0.00     0.163 HD
ATOM     25  H3  UNL     1     -94.415 -17.932  10.474  1.00  0.00     0.188 HD
ENDBRANCH  14  17
ENDBRANCH   1  12
BRANCH   7  26
HETATM   26  O2  UNL     1     -85.384 -14.394   6.436  1.00  0.00    -0.348 OA
BRANCH  26  27
HETATM   27  C11 UNL     1     -84.692 -13.438   5.754  1.00  0.00     0.210 C
BRANCH  27  28
HETATM   28  C12 UNL     1     -83.975 -13.832   4.507  1.00  0.00     0.175 C
BRANCH  28  29
HETATM   29  O3  UNL     1     -84.104 -12.811   3.524  1.00  0.00    -0.390 OA
ATOM     30  H3  UNL     1     -83.844 -13.142   2.672  1.00  0.00     0.210 HD
ENDBRANCH  28  29
BRANCH  28  31
HETATM   31  C13 UNL     1     -82.462 -13.914   4.726  1.00  0.00     0.078 C
HETATM   32  C14 UNL     1     -81.760 -14.746   3.709  1.00  0.00     0.048 C
HETATM   33  C15 UNL     1     -81.976 -12.473   4.667  1.00  0.00     0.048 C
BRANCH  31  34
HETATM   34  O4  UNL     1     -82.226 -14.368   6.019  1.00  0.00    -0.388 OA
ATOM     35  H4  UNL     1     -82.894 -15.008   6.239  1.00  0.00     0.210 HD
ENDBRANCH  31  34
ENDBRANCH  28  31
ENDBRANCH  27  28
ENDBRANCH  26  27
ENDBRANCH   7  26
TORSDOF 8
ENDMDL