MODEL 4
REMARK VINA RESULT: -8.000528989      2.006      2.415
REMARK  7 active torsions:
REMARK  status: ('A' for Active; 'I' for Inactive)
REMARK    1  A    between atoms: N1_2  and  C2_5
REMARK       I    between atoms: N2_11  and  C8_12
REMARK    2  A    between atoms: C8_12  and  C9_14
REMARK    3  A    between atoms: C9_14  and  C10_15
REMARK    4  A    between atoms: C9_14  and  C16_21
REMARK    5  A    between atoms: C10_15  and  C11_16
REMARK    6  A    between atoms: C18_23  and  O2_24
REMARK    7  A    between atoms: C19_26  and  N3_27
ROOT
HETATM    1  C9  UNL     1     -86.983 -16.243  10.128  1.00  0.00     0.082 C
ENDROOT
BRANCH   1   2
HETATM    2  C8  UNL     1     -87.739 -17.378  10.702  1.00  0.00     0.224 C
HETATM    3  N2  UNL     1     -89.123 -17.620  10.400  1.00  0.00    -0.347 N
HETATM    4  C4  UNL     1     -89.899 -18.702  10.941  1.00  0.00     0.095 C
HETATM    5  C7  UNL     1     -90.002 -16.890   9.533  1.00  0.00     0.127 C
HETATM    6  C3  UNL     1     -91.037 -18.255  11.845  1.00  0.00     0.059 C
HETATM    7  C5  UNL     1     -90.930 -19.087   9.909  1.00  0.00     0.041 C
HETATM    8  C2  UNL     1     -91.983 -18.996  10.955  1.00  0.00     0.193 C
HETATM    9  C6  UNL     1     -90.871 -17.976   8.905  1.00  0.00     0.029 C
HETATM   10  O1  UNL     1     -87.130 -18.149  11.483  1.00  0.00    -0.273 OA
BRANCH   8  11
HETATM   11  N1  UNL     1     -93.198 -18.307  10.591  1.00  0.00    -0.074 N
HETATM   12  C1  UNL     1     -94.317 -19.165  10.992  1.00  0.00     0.267 C
ATOM     13  H12 UNL     1     -93.229 -18.043   9.606  1.00  0.00     0.277 HD
ATOM     14  H11 UNL     1     -93.256 -17.366  10.982  1.00  0.00     0.277 HD
ENDBRANCH   8  11
ENDBRANCH   1   2
BRANCH   1  15
HETATM   15  C10 UNL     1     -86.549 -16.579   8.738  1.00  0.00     0.019 C
BRANCH  15  16
HETATM   16  C11 UNL     1     -87.117 -15.711   7.662  1.00  0.00    -0.014 C
HETATM   17  C12 UNL     1     -86.120 -15.427   6.557  1.00  0.00     0.005 C
HETATM   18  C13 UNL     1     -86.964 -15.269   5.333  1.00  0.00     0.000 C
HETATM   19  C14 UNL     1     -88.316 -15.828   5.623  1.00  0.00     0.000 C
HETATM   20  C15 UNL     1     -88.124 -16.603   6.907  1.00  0.00     0.005 C
ENDBRANCH  15  16
ENDBRANCH   1  15
BRANCH   1  21
HETATM   21  C16 UNL     1     -85.816 -15.985  11.047  1.00  0.00     0.003 C
HETATM   22  C17 UNL     1     -84.611 -15.451  10.346  1.00  0.00     0.039 C
HETATM   23  C18 UNL     1     -83.807 -14.938  11.561  1.00  0.00     0.142 C
HETATM   24  C19 UNL     1     -84.849 -14.078  12.198  1.00  0.00     0.124 C
HETATM   25  C23 UNL     1     -86.070 -15.011  12.142  1.00  0.00     0.034 C
BRANCH  23  26
HETATM   26  O2  UNL     1     -83.439 -16.017  12.352  1.00  0.00    -0.393 OA
ATOM     27  H2  UNL     1     -83.382 -15.735  13.257  1.00  0.00     0.210 HD
ENDBRANCH  23  26
BRANCH  24  28
HETATM   28  N3  UNL     1     -84.581 -13.642  13.526  1.00  0.00    -0.290 N
HETATM   29  C20 UNL     1     -85.394 -13.853  14.578  1.00  0.00     0.232 A
HETATM   30  F1  UNL     1     -86.589 -14.491  14.611  1.00  0.00    -0.182 F
HETATM   31  C21 UNL     1     -84.803 -13.290  15.690  1.00  0.00     0.162 A
HETATM   32 CL1  UNL     1     -85.485 -13.305  17.316  1.00  0.00    -0.059 Cl
HETATM   33  N4  UNL     1     -83.645 -12.744  15.319  1.00  0.00    -0.320 N
HETATM   34  C22 UNL     1     -83.533 -12.974  13.984  1.00  0.00     0.182 A
ATOM     35  H4  UNL     1     -82.979 -12.254  15.915  1.00  0.00     0.169 HD
HETATM   36  S1  UNL     1     -82.235 -12.450  13.157  1.00  0.00    -0.040 SA
ENDBRANCH  24  28
ENDBRANCH   1  21
TORSDOF 7
ENDMDL