MODEL 4
REMARK VINA RESULT: -7.457722148      2.047      2.827
REMARK  10 active torsions:
REMARK  status: ('A' for Active; 'I' for Inactive)
REMARK    1  A    between atoms: C2_2  and  C4_4
REMARK    2  A    between atoms: C10_10  and  C11_11
REMARK    3  A    between atoms: C15_15  and  N1_16
REMARK    4  A    between atoms: C21_25  and  N2_26
REMARK       I    between atoms: N2_26  and  C22_28
REMARK    5  A    between atoms: C22_28  and  C23_30
REMARK    6  A    between atoms: C23_30  and  O3_31
REMARK    7  A    between atoms: C23_30  and  C24_33
REMARK    8  A    between atoms: C24_33  and  N3_35
REMARK    9  A    between atoms: C24_33  and  C26_39
REMARK   10  A    between atoms: C26_39  and  O4_40
ROOT
HETATM    1  C4  UNL     1     -87.755 -16.024  10.087  1.00  0.00     0.038 C
HETATM    2  C5  UNL     1     -86.256 -16.364  10.015  1.00  0.00     0.013 C
HETATM    3  C6  UNL     1     -85.623 -16.163  11.380  1.00  0.00     0.050 C
HETATM    4  C7  UNL     1     -86.380 -17.053  12.344  1.00  0.00     0.124 A
HETATM    5  C8  UNL     1     -86.191 -18.456  12.026  1.00  0.00     0.018 A
HETATM    6  C9  UNL     1     -85.603 -19.017  13.033  1.00  0.00     0.009 A
HETATM    7  C10 UNL     1     -85.354 -18.012  14.122  1.00  0.00    -0.025 A
HETATM    8  C15 UNL     1     -85.814 -16.856  13.716  1.00  0.00     0.053 A
HETATM    9  O1  UNL     1     -87.685 -16.625  12.341  1.00  0.00    -0.345 OA
HETATM   10  C21 UNL     1     -88.355 -16.889  11.136  1.00  0.00     0.229 C
ENDROOT
BRANCH   8  11
HETATM   11  N1  UNL     1     -85.843 -15.605  14.414  1.00  0.00    -0.381 N
HETATM   12  C16 UNL     1     -84.838 -14.595  14.023  1.00  0.00     0.129 C
HETATM   13  C17 UNL     1     -84.165 -13.993  15.212  1.00  0.00     0.099 C
HETATM   14  C18 UNL     1     -85.164 -13.500  16.235  1.00  0.00     0.246 C
HETATM   15  F1  UNL     1     -85.941 -12.518  15.699  1.00  0.00    -0.206 F
HETATM   16  F2  UNL     1     -84.456 -13.025  17.316  1.00  0.00    -0.206 F
HETATM   17  C19 UNL     1     -85.993 -14.660  16.675  1.00  0.00     0.099 C
HETATM   18  C20 UNL     1     -86.717 -15.242  15.476  1.00  0.00     0.129 C
ENDBRANCH   8  11
BRANCH   7  19
HETATM   19  C11 UNL     1     -84.712 -18.433  15.376  1.00  0.00    -0.022 C
HETATM   20  C12 UNL     1     -85.674 -18.472  16.557  1.00  0.00     0.019 C
HETATM   21  C13 UNL     1     -83.393 -17.836  15.710  1.00  0.00     0.019 C
HETATM   22  C14 UNL     1     -84.377 -19.961  15.188  1.00  0.00     0.019 C
ENDBRANCH   7  19
BRANCH  10  23
HETATM   23  N2  UNL     1     -89.749 -16.601  11.421  1.00  0.00    -0.332 N
HETATM   24  C22 UNL     1     -90.688 -17.630  11.719  1.00  0.00     0.251 C
HETATM   25  O2  UNL     1     -90.257 -18.831  11.720  1.00  0.00    -0.271 OA
ATOM     26  H2  UNL     1     -90.066 -15.631  11.408  1.00  0.00     0.165 HD
BRANCH  24  27
HETATM   27  C23 UNL     1     -92.098 -17.344  12.017  1.00  0.00     0.247 C
BRANCH  27  28
HETATM   28  O3  UNL     1     -92.165 -16.186  12.790  1.00  0.00    -0.384 OA
ATOM     29  H3  UNL     1     -93.030 -16.129  13.178  1.00  0.00     0.210 HD
ENDBRANCH  27  28
BRANCH  27  30
HETATM   30  C24 UNL     1     -93.015 -17.352  10.840  1.00  0.00     0.175 C
HETATM   31  C25 UNL     1     -93.856 -16.136  10.665  1.00  0.00     0.052 C
BRANCH  30  32
HETATM   32  N3  UNL     1     -92.206 -17.633   9.658  1.00  0.00    -0.066 N
ATOM     33  H33 UNL     1     -91.204 -17.598   9.844  1.00  0.00     0.275 HD
ATOM     34  H32 UNL     1     -92.252 -18.609   9.366  1.00  0.00     0.275 HD
ATOM     35  H31 UNL     1     -92.498 -16.985   8.927  1.00  0.00     0.275 HD
ENDBRANCH  30  32
BRANCH  30  36
HETATM   36  C26 UNL     1     -93.938 -18.577  10.970  1.00  0.00     0.205 C
BRANCH  36  37
HETATM   37  O4  UNL     1     -93.560 -19.329  12.082  1.00  0.00    -0.398 OA
ATOM     38  H4  UNL     1     -93.915 -20.207  12.007  1.00  0.00     0.209 HD
ENDBRANCH  36  37
ENDBRANCH  30  36
ENDBRANCH  27  30
ENDBRANCH  24  27
ENDBRANCH  10  23
BRANCH   1  39
HETATM   39  C2  UNL     1     -88.266 -16.209   8.701  1.00  0.00    -0.014 C
HETATM   40  C1  UNL     1     -88.598 -17.703   8.566  1.00  0.00     0.010 C
HETATM   41  C3  UNL     1     -87.333 -15.853   7.601  1.00  0.00     0.010 C
ENDBRANCH   1  39
TORSDOF 10
ENDMDL