MODEL 5
REMARK VINA RESULT: -8.149287188      5.800      9.373
REMARK  10 active torsions:
REMARK  status: ('A' for Active; 'I' for Inactive)
REMARK    1  A    between atoms: O1_2  and  C2_3
REMARK    2  A    between atoms: C6_7  and  N1_8
REMARK    3  A    between atoms: C9_11  and  N2_13
REMARK    4  A    between atoms: N2_13  and  C10_16
REMARK    5  A    between atoms: C10_16  and  C11_17
REMARK    6  A    between atoms: C11_17  and  C12_18
REMARK    7  A    between atoms: C12_18  and  O2_19
REMARK    8  A    between atoms: C18_27  and  C19_28
REMARK    9  A    between atoms: C20_29  and  C21_30
REMARK   10  A    between atoms: C25_34  and  N3_35
ROOT
HETATM    1  C2  UNL     1     -83.544 -14.419   7.999  1.00  0.00     0.096 A
HETATM    2  C3  UNL     1     -82.242 -14.026   7.773  1.00  0.00    -0.025 A
HETATM    3  C4  UNL     1     -81.518 -13.169   8.748  1.00  0.00     0.051 C
HETATM    4  C5  UNL     1     -81.648 -14.466   6.604  1.00  0.00     0.042 A
HETATM    5  C6  UNL     1     -82.303 -15.274   5.667  1.00  0.00     0.071 A
HETATM    6  C17 UNL     1     -83.593 -15.634   5.941  1.00  0.00     0.164 A
HETATM    7  F2  UNL     1     -84.280 -16.427   5.088  1.00  0.00    -0.202 F
HETATM    8  C18 UNL     1     -84.229 -15.210   7.112  1.00  0.00     0.092 A
ENDROOT
BRANCH   5   9
HETATM    9  N1  UNL     1     -81.646 -15.672   4.466  1.00  0.00    -0.378 N
HETATM   10  C7  UNL     1     -81.981 -14.956   3.253  1.00  0.00     0.128 C
HETATM   11  C8  UNL     1     -80.868 -14.869   2.248  1.00  0.00     0.094 C
HETATM   12  C9  UNL     1     -79.936 -16.044   2.283  1.00  0.00     0.268 C
HETATM   13  F1  UNL     1     -78.803 -15.698   2.981  1.00  0.00    -0.211 F
HETATM   14  C15 UNL     1     -80.586 -17.230   3.006  1.00  0.00     0.094 C
HETATM   15  C16 UNL     1     -80.716 -16.761   4.459  1.00  0.00     0.128 C
BRANCH  12  16
HETATM   16  N2  UNL     1     -79.616 -16.512   0.952  1.00  0.00    -0.037 N
ATOM     17  H22 UNL     1     -80.069 -15.940   0.239  1.00  0.00     0.281 HD
ATOM     18  H21 UNL     1     -78.643 -16.321   0.716  1.00  0.00     0.281 HD
BRANCH  16  19
HETATM   19  C10 UNL     1     -79.933 -17.917   0.779  1.00  0.00     0.247 C
BRANCH  19  20
HETATM   20  C11 UNL     1     -80.938 -18.113  -0.337  1.00  0.00     0.005 A
HETATM   21  C13 UNL     1     -82.166 -18.905  -0.111  1.00  0.00     0.014 A
HETATM   22  C14 UNL     1     -81.086 -19.395  -1.036  1.00  0.00     0.014 A
BRANCH  20  23
HETATM   23  C12 UNL     1     -81.157 -16.851  -1.177  1.00  0.00     0.175 C
BRANCH  23  24
HETATM   24  O2  UNL     1     -82.279 -16.222  -0.660  1.00  0.00    -0.400 OA
ATOM     25  H2  UNL     1     -82.172 -16.210   0.284  1.00  0.00     0.209 HD
ENDBRANCH  23  24
ENDBRANCH  20  23
ENDBRANCH  19  20
ENDBRANCH  16  19
ENDBRANCH  12  16
ENDBRANCH   5   9
BRANCH   8  26
HETATM   26  C19 UNL     1     -85.576 -15.583   7.407  1.00  0.00    -0.055 C
HETATM   27  C20 UNL     1     -86.707 -15.919   7.650  1.00  0.00    -0.059 C
BRANCH  27  28
HETATM   28  C21 UNL     1     -88.055 -16.349   7.939  1.00  0.00     0.046 A
HETATM   29  C22 UNL     1     -88.458 -16.741   9.200  1.00  0.00    -0.038 A
HETATM   30  C23 UNL     1     -87.467 -16.722  10.314  1.00  0.00     0.050 C
HETATM   31  C24 UNL     1     -89.772 -17.135   9.374  1.00  0.00     0.056 A
HETATM   32  C25 UNL     1     -90.682 -17.152   8.346  1.00  0.00     0.099 A
HETATM   33  N4  UNL     1     -90.261 -16.766   7.137  1.00  0.00    -0.345 N
HETATM   34  C26 UNL     1     -88.999 -16.375   6.917  1.00  0.00     0.026 A
ATOM     35  H4  UNL     1     -90.921 -16.770   6.359  1.00  0.00     0.167 HD
HETATM   36  C27 UNL     1     -88.552 -15.948   5.559  1.00  0.00     0.070 C
BRANCH  32  37
HETATM   37  N3  UNL     1     -91.909 -17.528   8.547  1.00  0.00    -0.385 N
ATOM     38  H32 UNL     1     -92.609 -16.886   8.921  1.00  0.00     0.157 HD
ATOM     39  H31 UNL     1     -92.205 -18.482   8.337  1.00  0.00     0.157 HD
ENDBRANCH  32  37
ENDBRANCH  27  28
ENDBRANCH   8  26
BRANCH   1  40
HETATM   40  O1  UNL     1     -84.187 -14.009   9.147  1.00  0.00    -0.354 OA
HETATM   41  C1  UNL     1     -84.102 -14.707  10.377  1.00  0.00     0.210 C
ENDBRANCH   1  40
TORSDOF 10
ENDMDL