MODEL 2
REMARK VINA RESULT: -8.195256954      2.013      2.296
REMARK  7 active torsions:
REMARK  status: ('A' for Active; 'I' for Inactive)
REMARK    1  A    between atoms: O1_2  and  C2_3
REMARK    2  A    between atoms: C7_10  and  C8_11
REMARK    3  A    between atoms: N3_19  and  C12_21
REMARK    4  A    between atoms: C12_21  and  C13_22
REMARK    5  A    between atoms: C13_22  and  C14_23
REMARK    6  A    between atoms: C14_23  and  C15_24
REMARK    7  A    between atoms: C15_24  and  O2_25
ROOT
HETATM    1  C8  UNL     1     -91.082 -16.587   7.629  1.00  0.00     0.076 A
HETATM    2  N1  UNL     1     -91.418 -16.240   6.358  1.00  0.00    -0.298 N
ATOM      3  H1  UNL     1     -92.366 -16.243   5.982  1.00  0.00     0.187 HD
HETATM    4  N2  UNL     1     -90.340 -15.901   5.685  1.00  0.00    -0.297 N
ATOM      5  H2  UNL     1     -90.329 -15.602   4.710  1.00  0.00     0.187 HD
HETATM    6  C9  UNL     1     -89.240 -16.007   6.480  1.00  0.00     0.092 A
HETATM    7  C10 UNL     1     -89.711 -16.436   7.696  1.00  0.00     0.051 A
HETATM    8  C11 UNL     1     -88.556 -16.567   8.611  1.00  0.00     0.057 A
HETATM    9  N3  UNL     1     -88.683 -16.935   9.790  1.00  0.00    -0.388 N
ATOM     10  H3  UNL     1     -89.651 -17.129  10.043  1.00  0.00     0.159 HD
HETATM   11  C16 UNL     1     -87.398 -16.177   7.821  1.00  0.00     0.039 A
HETATM   12  C17 UNL     1     -86.023 -16.004   7.842  1.00  0.00     0.123 A
HETATM   13  N4  UNL     1     -85.669 -15.587   6.624  1.00  0.00    -0.310 N
ATOM     14  H4  UNL     1     -84.708 -15.378   6.354  1.00  0.00     0.186 HD
HETATM   15  N5  UNL     1     -86.700 -15.474   5.809  1.00  0.00    -0.298 N
ATOM     16  H5  UNL     1     -86.686 -15.175   4.834  1.00  0.00     0.187 HD
HETATM   17  C18 UNL     1     -87.787 -15.839   6.541  1.00  0.00     0.091 A
ENDROOT
BRANCH   1  18
HETATM   18  C7  UNL     1     -91.991 -17.005   8.682  1.00  0.00     0.029 A
HETATM   19  C2  UNL     1     -92.186 -18.352   8.883  1.00  0.00     0.098 A
HETATM   20  C3  UNL     1     -93.021 -18.825   9.870  1.00  0.00     0.046 A
HETATM   21 BR1  UNL     1     -93.288 -20.691  10.145  1.00  0.00    -0.048 Br
HETATM   22  C4  UNL     1     -93.703 -17.952  10.705  1.00  0.00     0.041 A
HETATM   23  C5  UNL     1     -93.512 -16.592  10.508  1.00  0.00     0.013 A
HETATM   24 BR2  UNL     1     -94.450 -15.387  11.665  1.00  0.00    -0.051 Br
HETATM   25  C6  UNL     1     -92.667 -16.137   9.511  1.00  0.00     0.035 A
BRANCH  19  26
HETATM   26  O1  UNL     1     -91.505 -19.244   8.041  1.00  0.00    -0.354 OA
HETATM   27  C1  UNL     1     -90.508 -20.046   8.696  1.00  0.00     0.210 C
ENDBRANCH  19  26
ENDBRANCH   1  18
BRANCH   9  28
HETATM   28  C12 UNL     1     -87.785 -17.144  10.859  1.00  0.00     0.120 C
BRANCH  28  29
HETATM   29  C13 UNL     1     -88.477 -17.769  12.082  1.00  0.00     0.022 C
BRANCH  29  30
HETATM   30  C14 UNL     1     -89.963 -17.617  11.872  1.00  0.00     0.028 C
BRANCH  30  31
HETATM   31  C15 UNL     1     -90.594 -16.712  12.932  1.00  0.00     0.164 C
BRANCH  31  32
HETATM   32  O2  UNL     1     -91.684 -17.380  13.479  1.00  0.00    -0.401 OA
ATOM     33  H2  UNL     1     -91.859 -17.009  14.337  1.00  0.00     0.209 HD
ENDBRANCH  31  32
ENDBRANCH  30  31
ENDBRANCH  29  30
ENDBRANCH  28  29
ENDBRANCH   9  28
TORSDOF 7
ENDMDL