MODEL 3
REMARK VINA RESULT: -7.325903265      1.762      2.152
REMARK  7 active torsions:
REMARK  status: ('A' for Active; 'I' for Inactive)
REMARK    1  A    between atoms: N1_2  and  C2_4
REMARK    2  A    between atoms: C2_4  and  C3_5
REMARK    3  A    between atoms: C3_5  and  C5_7
REMARK    4  A    between atoms: C13_16  and  C14_17
REMARK    5  A    between atoms: C14_17  and  C15_18
REMARK    6  A    between atoms: C21_33  and  C22_34
REMARK    7  A    between atoms: C22_34  and  C24_36
ROOT
HETATM    1  C5  UNL     1     -84.803 -15.423  14.922  1.00  0.00    -0.048 C
HETATM    2  C6  UNL     1     -84.995 -16.810  15.333  1.00  0.00    -0.011 C
HETATM    3  C7  UNL     1     -86.151 -17.638  14.986  1.00  0.00     0.028 C
HETATM    4  C8  UNL     1     -85.973 -18.931  15.849  1.00  0.00     0.018 C
HETATM    5  C9  UNL     1     -87.493 -17.200  15.308  1.00  0.00     0.001 C
HETATM    6  C10 UNL     1     -88.556 -17.498  14.574  1.00  0.00     0.008 C
HETATM    7 CL1  UNL     1     -90.150 -16.895  15.084  1.00  0.00    -0.089 Cl
HETATM    8  C11 UNL     1     -88.554 -18.311  13.334  1.00  0.00     0.051 C
HETATM    9  C12 UNL     1     -89.606 -17.718  12.407  1.00  0.00     0.014 C
HETATM   10  C13 UNL     1     -89.249 -18.112  10.999  1.00  0.00     0.015 C
HETATM   11  C16 UNL     1     -89.193 -16.895  10.112  1.00  0.00    -0.025 C
HETATM   12  C17 UNL     1     -88.118 -16.289   9.711  1.00  0.00    -0.021 C
HETATM   13  C18 UNL     1     -86.708 -16.618  10.005  1.00  0.00     0.129 C
HETATM   14  C19 UNL     1     -85.953 -15.351  10.177  1.00  0.00     0.221 C
HETATM   15  O1  UNL     1     -85.376 -14.819   9.169  1.00  0.00    -0.273 OA
HETATM   16  N6  UNL     1     -85.813 -14.655  11.403  1.00  0.00    -0.357 N
ATOM     17  H6  UNL     1     -85.548 -13.671  11.365  1.00  0.00     0.162 HD
HETATM   18  C20 UNL     1     -86.020 -15.250  12.709  1.00  0.00     0.157 C
HETATM   19  C21 UNL     1     -84.759 -15.072  13.500  1.00  0.00    -0.051 C
ENDROOT
BRANCH  10  20
HETATM   20  C14 UNL     1     -90.349 -19.001  10.460  1.00  0.00     0.087 C
BRANCH  20  21
HETATM   21  C15 UNL     1     -91.482 -18.204   9.953  1.00  0.00     0.107 A
HETATM   22  N2  UNL     1     -91.697 -17.788   8.689  1.00  0.00    -0.274 N
HETATM   23  N3  UNL     1     -92.829 -17.108   8.695  1.00  0.00    -0.007 NA
ATOM     24  H2  UNL     1     -91.100 -17.965   7.881  1.00  0.00     0.185 HD
HETATM   25  N4  UNL     1     -93.351 -17.069   9.909  1.00  0.00    -0.007 NA
HETATM   26  N5  UNL     1     -92.513 -17.747  10.679  1.00  0.00    -0.274 N
ATOM     27  H5  UNL     1     -92.635 -17.900  11.680  1.00  0.00     0.185 HD
ENDBRANCH  20  21
ENDBRANCH  10  20
BRANCH   1  28
HETATM   28  C3  UNL     1     -85.427 -14.379  15.870  1.00  0.00     0.052 C
HETATM   29  C4  UNL     1     -85.283 -14.914  17.276  1.00  0.00     0.020 C
BRANCH  28  30
HETATM   30  C2  UNL     1     -84.632 -13.116  15.768  1.00  0.00     0.064 C
BRANCH  30  31
HETATM   31  N1  UNL     1     -83.485 -12.974  16.574  1.00  0.00    -0.406 N
HETATM   32  C1  UNL     1     -82.288 -12.413  16.106  1.00  0.00     0.145 C
ATOM     33  H1  UNL     1     -83.527 -13.293  17.542  1.00  0.00     0.158 HD
ENDBRANCH  30  31
ENDBRANCH  28  30
ENDBRANCH   1  28
BRANCH  19  34
HETATM   34  C22 UNL     1     -83.569 -15.516  12.699  1.00  0.00     0.026 C
HETATM   35  C23 UNL     1     -83.339 -16.939  12.468  1.00  0.00     0.016 C
BRANCH  34  36
HETATM   36  C24 UNL     1     -82.287 -14.854  13.189  1.00  0.00     0.123 C
HETATM   37 CL2  UNL     1     -82.358 -13.163  12.584  1.00  0.00    -0.130 Cl
ENDBRANCH  34  36
ENDBRANCH  19  34
TORSDOF 7
ENDMDL