MODEL 2
REMARK VINA RESULT: -7.846552695      2.752      5.103
REMARK  10 active torsions:
REMARK  status: ('A' for Active; 'I' for Inactive)
REMARK    1  A    between atoms: O1_1  and  N1_3
REMARK    2  A    between atoms: C1_5  and  O2_6
REMARK    3  A    between atoms: C1_5  and  C2_8
REMARK    4  A    between atoms: C2_8  and  C3_9
REMARK    5  A    between atoms: C3_9  and  C4_10
REMARK    6  A    between atoms: C3_9  and  C10_20
REMARK    7  A    between atoms: C4_10  and  C5_11
REMARK    8  A    between atoms: C5_11  and  O3_12
REMARK    9  A    between atoms: C5_11  and  C6_14
REMARK   10  A    between atoms: C8_16  and  O4_17
ROOT
HETATM    1  C3  UNL     1     -89.450 -16.895   8.351  1.00  0.00     0.025 C
ENDROOT
BRANCH   1   2
HETATM    2  C2  UNL     1     -88.581 -16.956   7.074  1.00  0.00     0.093 C
BRANCH   2   3
HETATM    3  C1  UNL     1     -88.830 -15.986   6.052  1.00  0.00     0.135 C
HETATM    4  N1  UNL     1     -87.911 -15.090   5.752  1.00  0.00    -0.251 N
ATOM      5  H1  UNL     1     -88.115 -14.410   5.020  1.00  0.00     0.196 HD
BRANCH   4   6
HETATM    6  O1  UNL     1     -86.699 -15.031   6.377  1.00  0.00    -0.288 OA
ATOM      7  H1  UNL     1     -85.887 -14.859   5.914  1.00  0.00     0.244 HD
ENDBRANCH   4   6
BRANCH   3   8
HETATM    8  O2  UNL     1     -89.981 -15.863   5.299  1.00  0.00    -0.348 OA
ATOM      9  H2  UNL     1     -90.467 -15.068   5.482  1.00  0.00     0.219 HD
ENDBRANCH   3   8
ENDBRANCH   2   3
ENDBRANCH   1   2
BRANCH   1  10
HETATM   10  C4  UNL     1     -90.466 -17.954   8.350  1.00  0.00     0.039 C
BRANCH  10  11
HETATM   11  C5  UNL     1     -91.229 -18.223   9.617  1.00  0.00     0.122 C
BRANCH  11  12
HETATM   12  O3  UNL     1     -91.493 -19.623   9.616  1.00  0.00    -0.395 OA
ATOM     13  H3  UNL     1     -92.091 -19.771   8.893  1.00  0.00     0.210 HD
ENDBRANCH  11  12
BRANCH  11  14
HETATM   14  C6  UNL     1     -92.636 -17.605   9.545  1.00  0.00     0.019 C
HETATM   15  C7  UNL     1     -92.530 -16.150   9.989  1.00  0.00     0.039 C
HETATM   16  C8  UNL     1     -93.758 -16.369  10.835  1.00  0.00     0.119 C
HETATM   17  C9  UNL     1     -93.472 -17.865  10.754  1.00  0.00     0.039 C
BRANCH  16  18
HETATM   18  O4  UNL     1     -93.609 -15.867  12.140  1.00  0.00    -0.396 OA
ATOM     19  H4  UNL     1     -94.080 -16.383  12.784  1.00  0.00     0.210 HD
ENDBRANCH  16  18
ENDBRANCH  11  14
ENDBRANCH  10  11
ENDBRANCH   1  10
BRANCH   1  20
HETATM   20  C10 UNL     1     -88.517 -16.736   9.470  1.00  0.00     0.127 C
HETATM   21  C11 UNL     1     -88.594 -15.645  10.428  1.00  0.00     0.044 C
HETATM   22  C12 UNL     1     -87.144 -15.480  10.925  1.00  0.00     0.051 C
HETATM   23  C13 UNL     1     -86.944 -16.037  12.265  1.00  0.00    -0.043 A
HETATM   24  C20 UNL     1     -86.389 -16.352  10.000  1.00  0.00     0.135 C
HETATM   25  C14 UNL     1     -87.276 -15.571  13.544  1.00  0.00     0.009 A
HETATM   26  C18 UNL     1     -86.300 -17.251  12.211  1.00  0.00    -0.026 A
HETATM   27  C15 UNL     1     -86.965 -16.305  14.667  1.00  0.00     0.021 A
HETATM   28  C16 UNL     1     -86.320 -17.517  14.595  1.00  0.00     0.033 A
HETATM   29 BR1  UNL     1     -85.904 -18.507  16.176  1.00  0.00    -0.049 Br
HETATM   30  C17 UNL     1     -85.989 -17.984  13.338  1.00  0.00     0.058 A
HETATM   31 CL1  UNL     1     -85.160 -19.537  13.208  1.00  0.00    -0.082 Cl
HETATM   32  C19 UNL     1     -86.039 -17.571  10.805  1.00  0.00     0.073 C
HETATM   33  O5  UNL     1     -87.212 -16.742   8.946  1.00  0.00    -0.379 OA
ENDBRANCH   1  20
TORSDOF 10
ENDMDL