MODEL 3
REMARK VINA RESULT: -7.567331609      2.935      5.597
REMARK  13 active torsions:
REMARK  status: ('A' for Active; 'I' for Inactive)
REMARK    1  A    between atoms: C2_2  and  O1_3
REMARK    2  A    between atoms: C2_2  and  C3_5
REMARK    3  A    between atoms: C3_5  and  O2_6
REMARK    4  A    between atoms: C3_5  and  C4_8
REMARK    5  A    between atoms: C4_8  and  O3_9
REMARK    6  A    between atoms: C4_8  and  C5_11
REMARK    7  A    between atoms: C5_11  and  O4_12
REMARK    8  A    between atoms: C5_11  and  C6_14
REMARK    9  A    between atoms: C6_14  and  C8_16
REMARK   10  A    between atoms: C6_14  and  C22_33
REMARK   11  A    between atoms: C9_17  and  C10_18
REMARK   12  A    between atoms: C15_24  and  O5_25
REMARK   13  A    between atoms: O5_25  and  C16_26
ROOT
HETATM    1  C6  UNL     1     -92.036 -17.408  10.844  1.00  0.00     0.051 C
HETATM    2  C7  UNL     1     -92.853 -16.277  10.268  1.00  0.00     0.032 C
ENDROOT
BRANCH   1   3
HETATM    3  C5  UNL     1     -91.745 -17.358  12.260  1.00  0.00     0.170 C
BRANCH   3   4
HETATM    4  C4  UNL     1     -90.409 -17.216  12.859  1.00  0.00     0.179 C
BRANCH   4   5
HETATM    5  C3  UNL     1     -90.371 -16.323  14.091  1.00  0.00     0.177 C
BRANCH   5   6
HETATM    6  C2  UNL     1     -89.226 -16.661  15.011  1.00  0.00     0.145 C
HETATM    7  C1  UNL     1     -89.796 -17.521  16.125  1.00  0.00     0.042 C
BRANCH   6   8
HETATM    8  O1  UNL     1     -88.749 -15.501  15.639  1.00  0.00    -0.393 OA
ATOM      9  H1  UNL     1     -88.076 -15.158  15.063  1.00  0.00     0.210 HD
ENDBRANCH   6   8
ENDBRANCH   5   6
BRANCH   5  10
HETATM   10  O2  UNL     1     -90.200 -14.983  13.741  1.00  0.00    -0.390 OA
ATOM     11  H2  UNL     1     -90.297 -14.488  14.546  1.00  0.00     0.210 HD
ENDBRANCH   5  10
ENDBRANCH   4   5
BRANCH   4  12
HETATM   12  O3  UNL     1     -89.584 -18.284  12.920  1.00  0.00    -0.390 OA
ATOM     13  H3  UNL     1     -88.840 -18.238  12.332  1.00  0.00     0.210 HD
ENDBRANCH   4  12
ENDBRANCH   3   4
BRANCH   3  14
HETATM   14  O4  UNL     1     -92.546 -16.296  12.795  1.00  0.00    -0.391 OA
ATOM     15  H4  UNL     1     -93.440 -16.617  12.818  1.00  0.00     0.210 HD
ENDBRANCH   3  14
ENDBRANCH   1   3
BRANCH   1  16
HETATM   16  C8  UNL     1     -90.666 -17.125  10.203  1.00  0.00    -0.088 C
HETATM   17  C9  UNL     1     -89.588 -16.889   9.708  1.00  0.00    -0.063 C
BRANCH  17  18
HETATM   18  C10 UNL     1     -88.304 -16.631   9.130  1.00  0.00     0.052 A
HETATM   19  C11 UNL     1     -88.155 -16.228   7.819  1.00  0.00     0.042 A
HETATM   20  C12 UNL     1     -86.925 -15.975   7.249  1.00  0.00     0.012 A
HETATM   21 BR1  UNL     1     -86.758 -15.419   5.434  1.00  0.00    -0.051 Br
HETATM   22  C13 UNL     1     -85.805 -16.128   8.005  1.00  0.00     0.022 A
HETATM   23  C14 UNL     1     -85.925 -16.530   9.314  1.00  0.00     0.040 A
HETATM   24  C15 UNL     1     -87.160 -16.783   9.887  1.00  0.00     0.095 A
BRANCH  24  25
HETATM   25  O5  UNL     1     -87.248 -17.192  11.227  1.00  0.00    -0.309 OA
BRANCH  25  26
HETATM   26  C16 UNL     1     -86.766 -16.356  12.215  1.00  0.00     0.076 A
HETATM   27  C17 UNL     1     -85.926 -16.742  13.237  1.00  0.00     0.040 A
HETATM   28  C18 UNL     1     -85.481 -15.844  14.196  1.00  0.00     0.045 A
HETATM   29  C19 UNL     1     -85.873 -14.524  14.153  1.00  0.00     0.116 A
HETATM   30  F1  UNL     1     -85.458 -13.617  15.073  1.00  0.00    -0.206 F
HETATM   31  C20 UNL     1     -86.709 -14.128  13.139  1.00  0.00     0.045 A
HETATM   32  C21 UNL     1     -87.137 -15.030  12.202  1.00  0.00     0.040 A
ENDBRANCH  25  26
ENDBRANCH  24  25
ENDBRANCH  17  18
ENDBRANCH   1  16
BRANCH   1  33
HETATM   33  C22 UNL     1     -92.410 -18.688  10.213  1.00  0.00     0.000 C
HETATM   34  C23 UNL     1     -93.507 -19.408  11.020  1.00  0.00     0.011 C
HETATM   35  C24 UNL     1     -91.392 -19.711   9.920  1.00  0.00     0.011 C
ENDBRANCH   1  33
TORSDOF 13
ENDMDL