MODEL 4
REMARK VINA RESULT: -7.921195474      1.065      1.247
REMARK  9 active torsions:
REMARK  status: ('A' for Active; 'I' for Inactive)
REMARK    1  A    between atoms: C2_2  and  O1_5
REMARK    2  A    between atoms: O1_5  and  C5_6
REMARK    3  A    between atoms: C5_6  and  C6_7
REMARK    4  A    between atoms: C6_7  and  C7_8
REMARK    5  A    between atoms: C7_8  and  C8_9
REMARK    6  A    between atoms: C8_9  and  O2_12
REMARK    7  A    between atoms: N1_17  and  C12_18
REMARK    8  A    between atoms: C12_18  and  C13_19
REMARK    9  A    between atoms: C17_26  and  N3_27
ROOT
HETATM    1  C7  UNL     1     -85.826 -14.897  13.789  1.00  0.00     0.134 C
HETATM    2  O3  UNL     1     -86.934 -14.156  13.343  1.00  0.00    -0.284 OA
HETATM    3  C11 UNL     1     -88.212 -14.550  13.125  1.00  0.00     0.368 C
HETATM    4  O4  UNL     1     -89.147 -13.722  12.836  1.00  0.00    -0.238 OA
HETATM    5  N1  UNL     1     -88.515 -15.956  13.226  1.00  0.00    -0.289 N
HETATM    6  C20 UNL     1     -87.422 -16.791  13.554  1.00  0.00     0.049 A
HETATM    7  C21 UNL     1     -87.670 -18.145  13.619  1.00  0.00     0.033 A
HETATM    8  C22 UNL     1     -86.683 -19.063  13.893  1.00  0.00     0.044 A
HETATM    9  C23 UNL     1     -85.391 -18.669  14.120  1.00  0.00     0.117 A
HETATM   10  F2  UNL     1     -84.395 -19.517  14.389  1.00  0.00    -0.206 F
HETATM   11  C24 UNL     1     -85.142 -17.284  14.056  1.00  0.00     0.055 A
HETATM   12  C25 UNL     1     -86.131 -16.375  13.782  1.00  0.00     0.010 A
ENDROOT
BRANCH   5  13
HETATM   13  C12 UNL     1     -89.858 -16.391  13.025  1.00  0.00     0.173 C
BRANCH  13  14
HETATM   14  C13 UNL     1     -90.180 -16.986  11.720  1.00  0.00    -0.035 A
HETATM   15  C14 UNL     1     -89.734 -16.433  10.510  1.00  0.00     0.053 A
HETATM   16  C15 UNL     1     -90.032 -16.989   9.284  1.00  0.00     0.146 A
HETATM   17  F1  UNL     1     -89.601 -16.453   8.118  1.00  0.00    -0.204 F
HETATM   18  C16 UNL     1     -90.797 -18.135   9.217  1.00  0.00     0.115 A
HETATM   19  N2  UNL     1     -91.233 -18.882   8.166  1.00  0.00    -0.187 N
HETATM   20  C18 UNL     1     -91.243 -18.694  10.369  1.00  0.00     0.080 A
HETATM   21  C17 UNL     1     -91.948 -19.903   8.653  1.00  0.00     0.677 A
ATOM     22  H2  UNL     1     -91.047 -18.696   7.181  1.00  0.00     0.184 HD
HETATM   23  N4  UNL     1     -91.951 -19.784  10.001  1.00  0.00    -0.190 N
ATOM     24  H4  UNL     1     -92.419 -20.422  10.644  1.00  0.00     0.184 HD
HETATM   25  C19 UNL     1     -90.930 -18.116  11.601  1.00  0.00     0.041 A
BRANCH  21  26
HETATM   26  N3  UNL     1     -92.512 -20.809   7.934  1.00  0.00    -0.234 N
ATOM     27  H32 UNL     1     -93.483 -20.855   7.624  1.00  0.00     0.174 HD
ATOM     28  H31 UNL     1     -92.038 -21.634   7.564  1.00  0.00     0.174 HD
ENDBRANCH  21  26
ENDBRANCH  13  14
ENDBRANCH   5  13
BRANCH   1  29
HETATM   29  C6  UNL     1     -84.636 -14.692  12.908  1.00  0.00     0.073 C
BRANCH  29  30
HETATM   30  C5  UNL     1     -84.866 -14.570  11.456  1.00  0.00     0.172 C
BRANCH  30  31
HETATM   31  O1  UNL     1     -84.496 -15.575  10.653  1.00  0.00    -0.381 OA
BRANCH  31  32
HETATM   32  C2  UNL     1     -85.292 -16.307   9.883  1.00  0.00     0.050 C
HETATM   33  C1  UNL     1     -86.674 -15.577   9.900  1.00  0.00     0.045 C
HETATM   34  C3  UNL     1     -84.923 -16.346   8.413  1.00  0.00     0.045 C
HETATM   35  C4  UNL     1     -85.623 -17.709  10.288  1.00  0.00     0.045 C
ENDBRANCH  31  32
ENDBRANCH  30  31
ENDBRANCH  29  30
ENDBRANCH   1  29
BRANCH   1  36
HETATM   36  C8  UNL     1     -85.651 -14.553  15.253  1.00  0.00     0.087 C
HETATM   37  C9  UNL     1     -84.186 -14.505  15.671  1.00  0.00     0.049 C
HETATM   38  C10 UNL     1     -86.378 -15.377  16.229  1.00  0.00     0.049 C
BRANCH  36  39
HETATM   39  O2  UNL     1     -86.072 -13.193  15.413  1.00  0.00    -0.387 OA
ATOM     40  H2  UNL     1     -85.352 -12.646  15.122  1.00  0.00     0.210 HD
ENDBRANCH  36  39
ENDBRANCH   1  36
TORSDOF 9
ENDMDL