MODEL 3
REMARK VINA RESULT: -7.319027143      2.704      4.192
REMARK  8 active torsions:
REMARK  status: ('A' for Active; 'I' for Inactive)
REMARK    1  A    between atoms: N1_2  and  C2_4
REMARK    2  A    between atoms: C3_7  and  C4_8
REMARK    3  A    between atoms: N3_10  and  C6_11
REMARK    4  A    between atoms: C6_11  and  C7_12
REMARK    5  A    between atoms: C7_12  and  C8_13
REMARK    6  A    between atoms: C8_13  and  N4_14
REMARK    7  A    between atoms: N4_14  and  C9_16
REMARK    8  A    between atoms: C14_27  and  N7_28
ROOT
HETATM    1  C4  UNL     1     -87.491 -16.750  11.000  1.00  0.00     0.053 A
HETATM    2  C5  UNL     1     -88.242 -16.127  11.990  1.00  0.00     0.127 A
HETATM    3  N3  UNL     1     -87.816 -16.486  13.211  1.00  0.00    -0.301 N
HETATM    4  N6  UNL     1     -86.831 -17.306  13.017  1.00  0.00    -0.283 N
ATOM      5  H6  UNL     1     -86.303 -17.749  13.769  1.00  0.00     0.189 HD
HETATM    6  C14 UNL     1     -86.580 -17.511  11.674  1.00  0.00     0.127 A
ENDROOT
BRANCH   1   7
HETATM    7  C3  UNL     1     -87.705 -16.567   9.576  1.00  0.00     0.051 A
HETATM    8  N2  UNL     1     -88.954 -16.865   9.092  1.00  0.00    -0.341 N
HETATM    9  C2  UNL     1     -89.295 -16.744   7.801  1.00  0.00     0.114 A
ATOM     10  H2  UNL     1     -89.660 -17.198   9.748  1.00  0.00     0.167 HD
HETATM   11  C17 UNL     1     -88.324 -16.295   6.932  1.00  0.00     0.036 A
HETATM   12  C16 UNL     1     -87.058 -15.984   7.376  1.00  0.00     0.050 A
HETATM   13  C18 UNL     1     -88.349 -16.062   5.556  1.00  0.00     0.034 A
HETATM   14  C15 UNL     1     -86.727 -16.120   8.733  1.00  0.00     0.061 A
HETATM   15  N8  UNL     1     -86.310 -15.574   6.338  1.00  0.00    -0.360 N
HETATM   16  C19 UNL     1     -87.091 -15.620   5.236  1.00  0.00     0.092 A
HETATM   17  C20 UNL     1     -84.925 -15.155   6.372  1.00  0.00     0.155 C
BRANCH   9  18
HETATM   18  N1  UNL     1     -90.486 -17.041   7.408  1.00  0.00    -0.380 N
HETATM   19  C1  UNL     1     -91.518 -16.026   7.358  1.00  0.00     0.147 C
ATOM     20  H1  UNL     1     -90.704 -17.997   7.129  1.00  0.00     0.160 HD
ENDBRANCH   9  18
ENDBRANCH   1   7
BRANCH   6  21
HETATM   21  N7  UNL     1     -85.684 -18.257  11.251  1.00  0.00    -0.384 N
ATOM     22  H72 UNL     1     -85.534 -18.450  10.260  1.00  0.00     0.157 HD
ATOM     23  H71 UNL     1     -84.972 -18.786  11.753  1.00  0.00     0.157 HD
ENDBRANCH   6  21
BRANCH   3  24
HETATM   24  C6  UNL     1     -88.379 -16.023  14.495  1.00  0.00     0.150 C
BRANCH  24  25
HETATM   25  C7  UNL     1     -89.771 -15.538  14.186  1.00  0.00     0.041 C
BRANCH  25  26
HETATM   26  C8  UNL     1     -90.771 -16.676  14.194  1.00  0.00     0.123 C
BRANCH  26  27
HETATM   27  N4  UNL     1     -91.664 -16.602  13.061  1.00  0.00    -0.375 N
ATOM     28  H4  UNL     1     -92.335 -15.835  13.040  1.00  0.00     0.161 HD
BRANCH  27  29
HETATM   29  C9  UNL     1     -91.677 -17.430  12.078  1.00  0.00     0.123 A
HETATM   30  N5  UNL     1     -90.763 -18.386  11.878  1.00  0.00    -0.350 N
HETATM   31  C10 UNL     1     -90.812 -19.248  10.820  1.00  0.00     0.109 A
ATOM     32  H5  UNL     1     -89.997 -18.476  12.545  1.00  0.00     0.166 HD
HETATM   33  C11 UNL     1     -91.826 -19.170   9.888  1.00  0.00     0.028 A
HETATM   34 BR1  UNL     1     -91.919 -20.359   8.403  1.00  0.00    -0.050 Br
HETATM   35  C12 UNL     1     -92.778 -18.193  10.074  1.00  0.00     0.048 A
HETATM   36  C13 UNL     1     -92.724 -17.316  11.156  1.00  0.00     0.079 A
HETATM   37 CL1  UNL     1     -93.933 -16.097  11.365  1.00  0.00    -0.080 Cl
ENDBRANCH  27  29
ENDBRANCH  26  27
ENDBRANCH  25  26
ENDBRANCH  24  25
ENDBRANCH   3  24
TORSDOF 8
ENDMDL