MODEL 5
REMARK VINA RESULT: -8.988532948      1.536      2.067
REMARK  7 active torsions:
REMARK  status: ('A' for Active; 'I' for Inactive)
REMARK    1  A    between atoms: C3_3  and  C4_4
REMARK    2  A    between atoms: C4_4  and  O1_5
REMARK    3  A    between atoms: N1_10  and  C8_11
REMARK    4  A    between atoms: C8_11  and  C9_12
REMARK    5  A    between atoms: C9_12  and  C10_13
REMARK    6  A    between atoms: C10_13  and  N2_14
REMARK    7  A    between atoms: C16_24  and  C17_25
ROOT
HETATM    1  C1  UNL     1     -94.071 -19.596  11.194  1.00  0.00     0.013 C
HETATM    2  C2  UNL     1     -93.486 -18.549  11.147  1.00  0.00    -0.103 C
HETATM    3  C3  UNL     1     -92.777 -17.279  11.063  1.00  0.00     0.070 C
HETATM    4  C5  UNL     1     -91.858 -17.135  12.232  1.00  0.00     0.028 C
HETATM    5  C6  UNL     1     -90.446 -17.024  11.733  1.00  0.00     0.032 C
HETATM    6  C7  UNL     1     -90.180 -18.197  10.811  1.00  0.00     0.272 C
HETATM    7  N1  UNL     1     -91.023 -18.119   9.655  1.00  0.00     0.090 N
HETATM    8  C24 UNL     1     -92.059 -17.137   9.734  1.00  0.00     0.297 C
ENDROOT
BRANCH   3   9
HETATM    9  C4  UNL     1     -93.820 -16.182  11.114  1.00  0.00     0.188 C
BRANCH   9  10
HETATM   10  O1  UNL     1     -94.146 -15.798  12.393  1.00  0.00    -0.399 OA
ATOM     11  H1  UNL     1     -94.904 -16.254  12.742  1.00  0.00     0.209 HD
ENDBRANCH   9  10
ENDBRANCH   3   9
BRANCH   7  12
HETATM   12  C8  UNL     1     -90.258 -18.020   8.422  1.00  0.00     0.274 C
BRANCH  12  13
HETATM   13  C9  UNL     1     -90.598 -16.792   7.642  1.00  0.00     0.050 C
BRANCH  13  14
HETATM   14  C10 UNL     1     -89.362 -16.319   6.906  1.00  0.00     0.123 C
BRANCH  14  15
HETATM   15  N2  UNL     1     -88.208 -16.225   7.745  1.00  0.00    -0.376 N
HETATM   16  C11 UNL     1     -87.017 -15.967   7.354  1.00  0.00     0.115 A
HETATM   17  N3  UNL     1     -86.691 -15.744   6.060  1.00  0.00    -0.350 N
HETATM   18  C16 UNL     1     -86.027 -15.918   8.312  1.00  0.00     0.053 A
HETATM   19  C12 UNL     1     -85.430 -15.474   5.678  1.00  0.00     0.112 A
ATOM     20  H3  UNL     1     -87.424 -15.781   5.352  1.00  0.00     0.166 HD
HETATM   21  C13 UNL     1     -84.397 -15.412   6.596  1.00  0.00     0.061 A
HETATM   22  C14 UNL     1     -83.043 -15.125   6.198  1.00  0.00     0.101 C
HETATM   23  C15 UNL     1     -84.734 -15.642   7.923  1.00  0.00     0.043 A
HETATM   24  N4  UNL     1     -81.948 -14.902   5.896  1.00  0.00    -0.191 NA
ATOM     25  H2  UNL     1     -88.347 -16.377   8.745  1.00  0.00     0.161 HD
BRANCH  18  26
HETATM   26  C17 UNL     1     -86.370 -16.158   9.719  1.00  0.00     0.120 A
HETATM   27  N5  UNL     1     -86.378 -17.351  10.339  1.00  0.00    -0.340 N
HETATM   28  C18 UNL     1     -86.741 -17.194  11.626  1.00  0.00     0.062 A
ATOM     29  H5  UNL     1     -86.144 -18.241   9.900  1.00  0.00     0.167 HD
HETATM   30  C19 UNL     1     -86.910 -18.055  12.684  1.00  0.00     0.057 A
HETATM   31  C23 UNL     1     -86.973 -15.851  11.832  1.00  0.00     0.062 A
HETATM   32  C20 UNL     1     -87.299 -17.614  13.927  1.00  0.00     0.058 A
HETATM   33 CL1  UNL     1     -87.506 -18.741  15.261  1.00  0.00    -0.082 Cl
HETATM   34  C21 UNL     1     -87.535 -16.273  14.152  1.00  0.00     0.058 A
HETATM   35 CL2  UNL     1     -88.030 -15.722  15.743  1.00  0.00    -0.082 Cl
HETATM   36  C22 UNL     1     -87.365 -15.411  13.091  1.00  0.00     0.057 A
HETATM   37  N6  UNL     1     -86.736 -15.261  10.650  1.00  0.00    -0.340 N
ATOM     38  H6  UNL     1     -86.822 -14.259  10.480  1.00  0.00     0.167 HD
ENDBRANCH  18  26
ENDBRANCH  14  15
ENDBRANCH  13  14
ENDBRANCH  12  13
ENDBRANCH   7  12
TORSDOF 7
ENDMDL