MODEL 2
REMARK VINA RESULT: -9.269677583      2.425      3.338
REMARK  10 active torsions:
REMARK  status: ('A' for Active; 'I' for Inactive)
REMARK    1  A    between atoms: C4_4  and  O1_5
REMARK    2  A    between atoms: C8_10  and  C9_11
REMARK    3  A    between atoms: C9_11  and  C10_12
REMARK    4  A    between atoms: C11_13  and  C12_14
REMARK    5  A    between atoms: C13_15  and  C14_16
REMARK    6  A    between atoms: C14_16  and  C16_18
REMARK    7  A    between atoms: C16_18  and  C17_19
REMARK    8  A    between atoms: C18_20  and  O2_21
REMARK    9  A    between atoms: C22_27  and  O3_28
REMARK   10  A    between atoms: C26_35  and  O6_36
ROOT
HETATM    1  C12 UNL     1     -87.333 -11.939   7.965  1.00  0.00     0.025 C
HETATM    2  C13 UNL     1     -86.135 -12.825   8.210  1.00  0.00     0.027 C
HETATM    3  C26 UNL     1     -85.375 -11.799   7.315  1.00  0.00     0.131 C
HETATM    4  C27 UNL     1     -86.758 -11.646   6.599  1.00  0.00    -0.014 C
HETATM    5  C28 UNL     1     -87.028 -10.286   6.064  1.00  0.00     0.018 C
HETATM    6  C29 UNL     1     -86.812 -12.782   5.591  1.00  0.00     0.018 C
ENDROOT
BRANCH   2   7
HETATM    7  C14 UNL     1     -85.538 -12.747   9.607  1.00  0.00    -0.007 C
HETATM    8  C15 UNL     1     -84.913 -14.059   9.930  1.00  0.00     0.011 C
BRANCH   7   9
HETATM    9  C16 UNL     1     -86.516 -12.203  10.599  1.00  0.00     0.052 C
BRANCH   9  10
HETATM   10  C17 UNL     1     -85.893 -11.673  11.816  1.00  0.00     0.052 A
HETATM   11  C18 UNL     1     -85.038 -10.601  11.794  1.00  0.00     0.091 A
HETATM   12  C19 UNL     1     -84.556 -10.120  13.011  1.00  0.00     0.035 A
HETATM   13  C20 UNL     1     -83.692  -9.040  13.076  1.00  0.00     0.062 A
HETATM   14  C24 UNL     1     -84.972 -10.760  14.153  1.00  0.00     0.095 A
HETATM   15  C21 UNL     1     -83.208  -8.554  14.269  1.00  0.00     0.150 A
HETATM   16  F1  UNL     1     -82.360  -7.496  14.350  1.00  0.00    -0.203 F
HETATM   17  C22 UNL     1     -83.622  -9.194  15.417  1.00  0.00     0.106 A
HETATM   18  C23 UNL     1     -84.481 -10.269  15.364  1.00  0.00     0.078 A
HETATM   19  O4  UNL     1     -85.790 -11.784  14.115  1.00  0.00    -0.274 OA
HETATM   20  C25 UNL     1     -86.277 -12.282  13.014  1.00  0.00     0.297 A
HETATM   21  O5  UNL     1     -87.061 -13.267  13.012  1.00  0.00    -0.259 OA
BRANCH  11  22
HETATM   22  O2  UNL     1     -84.600  -9.953  10.673  1.00  0.00    -0.359 OA
ATOM     23  H2  UNL     1     -83.862  -9.355  10.631  1.00  0.00     0.217 HD
ENDBRANCH  11  22
BRANCH  17  24
HETATM   24  O3  UNL     1     -83.174  -8.761  16.673  1.00  0.00    -0.358 OA
ATOM     25  H3  UNL     1     -83.739  -8.826  17.434  1.00  0.00     0.217 HD
ENDBRANCH  17  24
ENDBRANCH   9  10
ENDBRANCH   7   9
ENDBRANCH   2   7
BRANCH   1  26
HETATM   26  C11 UNL     1     -88.668 -12.465   7.989  1.00  0.00    -0.025 C
HETATM   27  C10 UNL     1     -89.113 -13.681   8.263  1.00  0.00    -0.029 C
BRANCH  27  28
HETATM   28  C9  UNL     1     -90.589 -13.979   8.224  1.00  0.00     0.036 C
BRANCH  28  29
HETATM   29  C8  UNL     1     -91.124 -14.286   9.592  1.00  0.00     0.021 C
HETATM   30  C2  UNL     1     -92.282 -13.389   9.837  1.00  0.00    -0.082 C
HETATM   31  C1  UNL     1     -92.195 -12.117   9.562  1.00  0.00     0.015 C
HETATM   32  C3  UNL     1     -93.561 -13.925  10.404  1.00  0.00     0.065 C
HETATM   33  C4  UNL     1     -93.143 -14.867  11.512  1.00  0.00     0.122 C
HETATM   34  C5  UNL     1     -92.395 -16.011  10.944  1.00  0.00     0.037 C
HETATM   35  C6  UNL     1     -91.500 -15.732   9.774  1.00  0.00    -0.008 C
HETATM   36  C7  UNL     1     -92.078 -16.380   8.558  1.00  0.00     0.011 C
BRANCH  33  37
HETATM   37  O1  UNL     1     -92.427 -14.146  12.464  1.00  0.00    -0.395 OA
ATOM     38  H1  UNL     1     -92.850 -13.304  12.586  1.00  0.00     0.210 HD
ENDBRANCH  33  37
ENDBRANCH  28  29
ENDBRANCH  27  28
ENDBRANCH   1  26
BRANCH   3  39
HETATM   39  O6  UNL     1     -85.090 -10.647   7.988  1.00  0.00    -0.394 OA
ATOM     40  H6  UNL     1     -85.513  -9.893   7.595  1.00  0.00     0.210 HD
ENDBRANCH   3  39
TORSDOF 10
ENDMDL