MODEL 3
REMARK VINA RESULT: -7.047378432      2.823      5.781
REMARK  9 active torsions:
REMARK  status: ('A' for Active; 'I' for Inactive)
REMARK    1  A    between atoms: C2_2  and  C4_4
REMARK    2  A    between atoms: C4_4  and  C5_5
REMARK    3  A    between atoms: C5_5  and  C7_7
REMARK    4  A    between atoms: C8_8  and  O1_9
REMARK    5  A    between atoms: C9_11  and  C10_12
REMARK    6  A    between atoms: C17_21  and  O4_22
REMARK    7  A    between atoms: N1_24  and  C18_25
REMARK    8  A    between atoms: C18_25  and  C19_26
REMARK    9  A    between atoms: C20_28  and  O5_29
ROOT
HETATM    1  C7  UNL     1     -86.307 -12.565  11.470  1.00  0.00    -0.006 A
HETATM    2  C8  UNL     1     -86.427 -12.455  10.057  1.00  0.00     0.090 A
HETATM    3  C9  UNL     1     -87.627 -12.317   9.410  1.00  0.00     0.077 A
HETATM    4  C11 UNL     1     -88.803 -12.290  10.183  1.00  0.00     0.059 A
HETATM    5  C12 UNL     1     -88.697 -12.393  11.528  1.00  0.00     0.082 A
HETATM    6  C13 UNL     1     -87.441 -12.523  12.189  1.00  0.00     0.015 A
HETATM    7  C14 UNL     1     -87.602 -12.403  13.615  1.00  0.00    -0.022 C
HETATM    8  C15 UNL     1     -86.855 -11.619  14.541  1.00  0.00     0.034 A
HETATM    9  C16 UNL     1     -86.786 -12.032  15.861  1.00  0.00     0.016 A
HETATM   10  C17 UNL     1     -86.059 -11.087  16.541  1.00  0.00     0.152 A
HETATM   11  N1  UNL     1     -85.692 -10.119  15.693  1.00  0.00    -0.305 N
HETATM   12  C20 UNL     1     -86.171 -10.438  14.484  1.00  0.00     0.156 A
HETATM   13  C21 UNL     1     -87.468 -13.218  16.411  1.00  0.00    -0.015 C
HETATM   14  C22 UNL     1     -88.329 -12.644  17.573  1.00  0.00     0.020 C
HETATM   15  C23 UNL     1     -86.453 -14.081  17.110  1.00  0.00     0.020 C
HETATM   16  C24 UNL     1     -88.354 -13.954  15.474  1.00  0.00     0.026 C
HETATM   17  C25 UNL     1     -88.381 -13.598  14.063  1.00  0.00     0.056 C
HETATM   18  C26 UNL     1     -89.787 -13.428  13.478  1.00  0.00     0.068 C
HETATM   19  C27 UNL     1     -90.196 -14.711  12.808  1.00  0.00     0.047 C
HETATM   20  C28 UNL     1     -90.800 -12.969  14.480  1.00  0.00     0.047 C
HETATM   21  O6  UNL     1     -89.800 -12.403  12.434  1.00  0.00    -0.339 OA
ENDROOT
BRANCH   1  22
HETATM   22  C5  UNL     1     -84.957 -12.776  12.011  1.00  0.00     0.019 C
HETATM   23  C6  UNL     1     -83.878 -12.138  11.243  1.00  0.00     0.015 C
BRANCH  22  24
HETATM   24  C4  UNL     1     -84.805 -14.276  12.130  1.00  0.00     0.013 C
BRANCH  24  25
HETATM   25  C2  UNL     1     -84.468 -14.870  13.431  1.00  0.00    -0.022 C
HETATM   26  C1  UNL     1     -83.869 -13.988  14.486  1.00  0.00     0.009 C
HETATM   27  C3  UNL     1     -85.475 -15.870  13.979  1.00  0.00     0.009 C
ENDBRANCH  24  25
ENDBRANCH  22  24
ENDBRANCH   1  22
BRANCH   2  28
HETATM   28  O1  UNL     1     -85.292 -12.497   9.320  1.00  0.00    -0.359 OA
ATOM     29  H1  UNL     1     -84.835 -13.327   9.256  1.00  0.00     0.217 HD
ENDBRANCH   2  28
BRANCH   3  30
HETATM   30  C10 UNL     1     -87.808 -12.170   7.985  1.00  0.00     0.212 C
HETATM   31  O2  UNL     1     -86.962 -11.703   7.232  1.00  0.00    -0.644 OA
HETATM   32  O3  UNL     1     -89.010 -12.573   7.369  1.00  0.00    -0.644 OA
ENDBRANCH   3  30
BRANCH  12  33
HETATM   33  O5  UNL     1     -85.988  -9.662  13.358  1.00  0.00    -0.345 OA
ATOM     34  H5  UNL     1     -85.240  -9.695  12.773  1.00  0.00     0.219 HD
ENDBRANCH  12  33
BRANCH  10  35
HETATM   35  O4  UNL     1     -85.734 -11.104  17.901  1.00  0.00    -0.345 OA
ATOM     36  H4  UNL     1     -86.344 -11.127  18.629  1.00  0.00     0.219 HD
ENDBRANCH  10  35
BRANCH  11  37
HETATM   37  C18 UNL     1     -84.948  -8.918  15.983  1.00  0.00     0.164 C
BRANCH  37  38
HETATM   38  C19 UNL     1     -83.521  -8.915  15.574  1.00  0.00     0.242 C
HETATM   39  F1  UNL     1     -83.240  -8.256  14.417  1.00  0.00    -0.254 F
ENDBRANCH  37  38
ENDBRANCH  11  37
TORSDOF 9
ENDMDL