MODEL 2
REMARK VINA RESULT: -8.317352057      2.170      3.141
REMARK  9 active torsions:
REMARK  status: ('A' for Active; 'I' for Inactive)
REMARK    1  A    between atoms: C2_2  and  C3_3
REMARK    2  A    between atoms: C3_3  and  O1_5
REMARK    3  A    between atoms: C3_3  and  C5_7
REMARK    4  A    between atoms: C5_7  and  C6_8
REMARK    5  A    between atoms: C6_8  and  C8_10
REMARK    6  A    between atoms: C15_17  and  O2_18
REMARK    7  A    between atoms: C18_22  and  C19_23
REMARK    8  A    between atoms: C21_26  and  O4_27
REMARK    9  A    between atoms: C29_37  and  O5_38
ROOT
HETATM    1  C8  UNL     1     -83.601 -11.505  10.872  1.00  0.00     0.025 C
HETATM    2  C9  UNL     1     -83.204 -12.696  11.764  1.00  0.00     0.009 C
HETATM    3  C10 UNL     1     -84.503 -13.481  12.015  1.00  0.00     0.013 C
HETATM    4  C11 UNL     1     -85.398 -12.898  10.977  1.00  0.00    -0.008 C
HETATM    5  C12 UNL     1     -84.904 -13.453   9.675  1.00  0.00     0.019 C
HETATM    6  C13 UNL     1     -86.852 -13.138  11.078  1.00  0.00     0.006 C
HETATM    7  C14 UNL     1     -87.516 -13.531   9.778  1.00  0.00     0.038 C
HETATM    8  C15 UNL     1     -88.862 -12.913   9.553  1.00  0.00     0.130 C
HETATM    9  C16 UNL     1     -89.728 -12.973  10.740  1.00  0.00     0.026 C
HETATM   10  C17 UNL     1     -91.026 -12.257  10.437  1.00  0.00     0.022 C
HETATM   11  C18 UNL     1     -90.046 -14.361  11.222  1.00  0.00     0.034 C
HETATM   12  C23 UNL     1     -90.509 -14.073  12.630  1.00  0.00     0.013 C
HETATM   13  C24 UNL     1     -89.520 -13.026  13.093  1.00  0.00     0.045 C
HETATM   14  C25 UNL     1     -89.084 -12.255  11.876  1.00  0.00     0.118 C
HETATM   15  F1  UNL     1     -89.645 -10.976  12.026  1.00  0.00    -0.242 F
HETATM   16  C26 UNL     1     -87.606 -12.032  11.782  1.00  0.00     0.031 C
HETATM   17  C27 UNL     1     -87.255 -10.655  11.267  1.00  0.00     0.011 C
HETATM   18  C28 UNL     1     -85.981 -10.652  10.401  1.00  0.00     0.039 C
HETATM   19  C29 UNL     1     -85.005 -11.415  11.178  1.00  0.00     0.069 C
ENDROOT
BRANCH   1  20
HETATM   20  C6  UNL     1     -82.683 -10.352  10.967  1.00  0.00    -0.009 C
HETATM   21  C7  UNL     1     -82.131  -9.954  12.272  1.00  0.00     0.010 C
BRANCH  20  22
HETATM   22  C5  UNL     1     -81.533 -10.667  10.024  1.00  0.00     0.042 C
BRANCH  22  23
HETATM   23  C3  UNL     1     -81.604 -10.108   8.675  1.00  0.00     0.054 C
HETATM   24  C4  UNL     1     -80.159  -9.818   8.214  1.00  0.00     0.045 C
BRANCH  23  25
HETATM   25  C2  UNL     1     -82.186 -10.991   7.616  1.00  0.00     0.033 C
HETATM   26  C1  UNL     1     -83.660 -10.752   7.389  1.00  0.00     0.008 C
ENDBRANCH  23  25
BRANCH  23  27
HETATM   27  O1  UNL     1     -82.238  -8.873   8.618  1.00  0.00    -0.390 OA
ATOM     28  H1  UNL     1     -82.321  -8.535   9.502  1.00  0.00     0.210 HD
ENDBRANCH  23  27
ENDBRANCH  22  23
ENDBRANCH  20  22
ENDBRANCH   1  20
BRANCH  19  29
HETATM   29  O5  UNL     1     -85.150 -11.061  12.514  1.00  0.00    -0.389 OA
ATOM     30  H5  UNL     1     -85.994 -10.640  12.628  1.00  0.00     0.210 HD
ENDBRANCH  19  29
BRANCH   8  31
HETATM   31  O2  UNL     1     -89.416 -13.585   8.437  1.00  0.00    -0.395 OA
ATOM     32  H2  UNL     1     -90.250 -13.933   8.730  1.00  0.00     0.210 HD
ENDBRANCH   8  31
BRANCH  11  33
HETATM   33  C19 UNL     1     -90.962 -15.138  10.405  1.00  0.00    -0.026 A
HETATM   34  C20 UNL     1     -92.351 -15.240  10.574  1.00  0.00     0.152 A
HETATM   35  O3  UNL     1     -92.856 -16.001   9.660  1.00  0.00    -0.300 OA
HETATM   36  C21 UNL     1     -91.929 -16.445   8.853  1.00  0.00     0.183 A
HETATM   37  C22 UNL     1     -90.712 -15.915   9.300  1.00  0.00     0.073 A
BRANCH  36  38
HETATM   38  O4  UNL     1     -92.116 -17.284   7.762  1.00  0.00    -0.341 OA
ATOM     39  H4  UNL     1     -92.692 -18.038   7.721  1.00  0.00     0.220 HD
ENDBRANCH  36  38
ENDBRANCH  11  33
TORSDOF 9
ENDMDL