MODEL 4
REMARK VINA RESULT: -7.870437322      1.141      1.531
REMARK  8 active torsions:
REMARK  status: ('A' for Active; 'I' for Inactive)
REMARK    1  A    between atoms: C2_2  and  O1_3
REMARK    2  A    between atoms: O1_3  and  N1_4
REMARK    3  A    between atoms: C3_6  and  C5_8
REMARK    4  A    between atoms: C9_16  and  O2_17
REMARK    5  A    between atoms: C14_24  and  C15_25
REMARK    6  A    between atoms: N4_28  and  C18_29
REMARK    7  A    between atoms: C18_29  and  C19_30
REMARK    8  A    between atoms: C24_35  and  O3_36
ROOT
HETATM    1  C5  UNL     1     -90.286 -12.649   9.727  1.00  0.00     0.092 A
HETATM    2  N2  UNL     1     -90.024 -12.813   8.425  1.00  0.00    -0.338 N
ATOM      3  H2  UNL     1     -90.763 -13.169   7.819  1.00  0.00     0.167 HD
HETATM    4  C6  UNL     1     -88.842 -12.531   7.888  1.00  0.00     0.118 A
HETATM    5  N3  UNL     1     -88.394 -12.590   6.602  1.00  0.00    -0.341 N
ATOM      6  H3  UNL     1     -88.922 -12.914   5.792  1.00  0.00     0.167 HD
HETATM    7  C7  UNL     1     -87.142 -12.147   6.603  1.00  0.00     0.047 A
HETATM    8  C8  UNL     1     -86.241 -11.968   5.558  1.00  0.00     0.068 A
HETATM    9  C9  UNL     1     -84.996 -11.451   5.772  1.00  0.00     0.085 A
HETATM   10  C10 UNL     1     -84.646 -11.109   7.036  1.00  0.00     0.045 A
HETATM   11 BR1  UNL     1     -82.902 -10.380   7.341  1.00  0.00    -0.048 Br
HETATM   12  C11 UNL     1     -85.503 -11.267   8.121  1.00  0.00     0.036 A
HETATM   13  C12 UNL     1     -86.742 -11.792   7.886  1.00  0.00     0.007 A
HETATM   14  C13 UNL     1     -87.832 -12.049   8.697  1.00  0.00     0.034 A
HETATM   15  C14 UNL     1     -88.032 -11.859  10.063  1.00  0.00     0.020 A
HETATM   16  C24 UNL     1     -89.317 -12.175  10.579  1.00  0.00     0.106 A
ENDROOT
BRANCH  15  17
HETATM   17  C15 UNL     1     -87.001 -11.632  11.031  1.00  0.00    -0.044 C
HETATM   18  C16 UNL     1     -86.630 -10.459  11.524  1.00  0.00     0.011 C
HETATM   19  C17 UNL     1     -85.545 -10.365  12.532  1.00  0.00     0.300 C
HETATM   20  N4  UNL     1     -85.610 -11.344  13.553  1.00  0.00     0.092 N
HETATM   21  C22 UNL     1     -86.493 -12.443  13.289  1.00  0.00     0.277 C
HETATM   22  C23 UNL     1     -86.370 -12.782  11.794  1.00  0.00     0.069 C
BRANCH  20  23
HETATM   23  C18 UNL     1     -85.950 -10.757  14.834  1.00  0.00     0.276 C
BRANCH  23  24
HETATM   24  C19 UNL     1     -84.747  -9.977  15.313  1.00  0.00     0.006 C
HETATM   25  C20 UNL     1     -85.193  -9.139  16.495  1.00  0.00     0.011 C
HETATM   26  C21 UNL     1     -83.633 -10.919  15.747  1.00  0.00     0.011 C
ENDBRANCH  23  24
ENDBRANCH  20  23
ENDBRANCH  15  17
BRANCH  16  27
HETATM   27  O3  UNL     1     -89.597 -12.023  11.872  1.00  0.00    -0.357 OA
ATOM     28  H3  UNL     1     -88.975 -11.580  12.437  1.00  0.00     0.217 HD
ENDBRANCH  16  27
BRANCH   1  29
HETATM   29  C3  UNL     1     -91.632 -12.986  10.206  1.00  0.00     0.058 C
HETATM   30  N1  UNL     1     -91.759 -13.960  11.051  1.00  0.00    -0.269 N
ATOM     31  H1  UNL     1     -90.914 -14.449  11.348  1.00  0.00     0.194 HD
HETATM   32  C4  UNL     1     -92.809 -12.260   9.754  1.00  0.00     0.072 C
BRANCH  30  33
HETATM   33  O1  UNL     1     -92.942 -14.368  11.563  1.00  0.00    -0.281 OA
BRANCH  33  34
HETATM   34  C2  UNL     1     -93.615 -15.547  11.236  1.00  0.00     0.196 C
HETATM   35  C1  UNL     1     -92.886 -16.289  10.133  1.00  0.00     0.036 C
ENDBRANCH  33  34
ENDBRANCH  30  33
ENDBRANCH   1  29
BRANCH   9  36
HETATM   36  O2  UNL     1     -84.146 -11.300   4.674  1.00  0.00    -0.359 OA
ATOM     37  H2  UNL     1     -83.343 -11.806   4.656  1.00  0.00     0.217 HD
ENDBRANCH   9  36
TORSDOF 8
ENDMDL