MODEL 2
REMARK VINA RESULT: -8.263671372      1.972      4.127
REMARK  10 active torsions:
REMARK  status: ('A' for Active; 'I' for Inactive)
REMARK    1  A    between atoms: C2_2  and  C3_3
REMARK    2  A    between atoms: C3_3  and  N1_4
REMARK    3  A    between atoms: C4_5  and  O1_6
REMARK    4  A    between atoms: C5_8  and  O2_9
REMARK    5  A    between atoms: C6_11  and  C7_12
REMARK    6  A    between atoms: C7_12  and  O3_13
REMARK    7  A    between atoms: C7_12  and  C8_15
REMARK    8  A    between atoms: C15_23  and  C16_24
REMARK    9  A    between atoms: C16_24  and  O4_25
REMARK   10  A    between atoms: C17_27  and  C18_28
ROOT
HETATM    1  N1  UNL     1     -89.956 -13.644   9.555  1.00  0.00    -0.324 N
HETATM    2  C4  UNL     1     -91.255 -14.031   9.794  1.00  0.00     0.177 A
HETATM    3  C5  UNL     1     -91.654 -13.555  11.019  1.00  0.00     0.128 A
HETATM    4  C6  UNL     1     -90.541 -12.852  11.533  1.00  0.00     0.041 A
HETATM    5  C17 UNL     1     -89.523 -12.931  10.636  1.00  0.00     0.066 A
ENDROOT
BRANCH   4   6
HETATM    6  C7  UNL     1     -90.610 -11.963  12.739  1.00  0.00     0.190 C
BRANCH   6   7
HETATM    7  O3  UNL     1     -91.879 -11.938  13.196  1.00  0.00    -0.386 OA
ATOM      8  H3  UNL     1     -91.958 -12.542  13.925  1.00  0.00     0.210 HD
ENDBRANCH   6   7
BRANCH   6   9
HETATM    9  C8  UNL     1     -89.535 -12.079  13.750  1.00  0.00    -0.010 A
HETATM   10  C9  UNL     1     -88.752 -10.984  14.052  1.00  0.00    -0.051 A
HETATM   11  C10 UNL     1     -88.671  -9.700  13.270  1.00  0.00     0.049 C
HETATM   12  C11 UNL     1     -87.764 -11.074  15.066  1.00  0.00     0.027 A
HETATM   13  C12 UNL     1     -87.560 -12.216  15.756  1.00  0.00     0.018 A
HETATM   14 BR1  UNL     1     -86.244 -12.331  17.133  1.00  0.00    -0.051 Br
HETATM   15  C13 UNL     1     -88.325 -13.274  15.442  1.00  0.00    -0.036 A
HETATM   16  C14 UNL     1     -88.202 -14.466  16.375  1.00  0.00     0.050 C
HETATM   17  C15 UNL     1     -89.320 -13.285  14.451  1.00  0.00    -0.018 A
BRANCH  17  18
HETATM   18  C16 UNL     1     -90.002 -14.547  14.177  1.00  0.00     0.204 C
BRANCH  18  19
HETATM   19  O4  UNL     1     -91.330 -14.474  14.845  1.00  0.00    -0.396 OA
ATOM     20  H4  UNL     1     -91.248 -13.844  15.552  1.00  0.00     0.209 HD
ENDBRANCH  18  19
ENDBRANCH  17  18
ENDBRANCH   6   9
ENDBRANCH   4   6
BRANCH   3  21
HETATM   21  O2  UNL     1     -92.877 -13.704  11.656  1.00  0.00    -0.356 OA
ATOM     22  H2  UNL     1     -93.614 -13.104  11.684  1.00  0.00     0.218 HD
ENDBRANCH   3  21
BRANCH   5  23
HETATM   23  C18 UNL     1     -88.047 -12.665  10.875  1.00  0.00     0.033 A
HETATM   24  C19 UNL     1     -87.529 -11.395  10.516  1.00  0.00     0.029 A
HETATM   25  C20 UNL     1     -86.251 -11.188  10.880  1.00  0.00    -0.044 A
HETATM   26  C21 UNL     1     -85.594 -12.169  11.529  1.00  0.00    -0.010 A
HETATM   27  C24 UNL     1     -85.324  -9.968  10.747  1.00  0.00     0.040 C
HETATM   28  S1  UNL     1     -86.790 -13.420  11.646  1.00  0.00    -0.092 SA
HETATM   29  C22 UNL     1     -84.148 -11.735  11.829  1.00  0.00     0.047 C
HETATM   30  C23 UNL     1     -84.288 -10.211  11.781  1.00  0.00     0.010 C
ENDBRANCH   5  23
BRANCH   2  31
HETATM   31  O1  UNL     1     -92.006 -14.775   8.919  1.00  0.00    -0.344 OA
ATOM     32  H1  UNL     1     -92.465 -15.571   9.158  1.00  0.00     0.219 HD
ENDBRANCH   2  31
BRANCH   1  33
HETATM   33  C3  UNL     1     -89.363 -13.730   8.257  1.00  0.00     0.131 C
BRANCH  33  34
HETATM   34  C2  UNL     1     -89.281 -12.548   7.375  1.00  0.00     0.016 C
HETATM   35  C1  UNL     1     -87.763 -12.470   6.939  1.00  0.00     0.006 C
ENDBRANCH  33  34
ENDBRANCH   1  33
TORSDOF 10
ENDMDL