MODEL 2
REMARK VINA RESULT: -8.769281696      0.834      1.183
REMARK  10 active torsions:
REMARK  status: ('A' for Active; 'I' for Inactive)
REMARK    1  A    between atoms: O1_2  and  C2_3
REMARK    2  A    between atoms: C3_4  and  O2_5
REMARK    3  A    between atoms: C6_9  and  C7_10
REMARK    4  A    between atoms: C7_10  and  C8_11
REMARK    5  A    between atoms: C9_12  and  O3_13
REMARK    6  A    between atoms: C11_15  and  O4_16
REMARK    7  A    between atoms: C14_21  and  O5_22
REMARK    8  A    between atoms: C16_25  and  O6_26
REMARK    9  A    between atoms: C17_28  and  C18_29
REMARK   10  A    between atoms: C18_29  and  C19_30
ROOT
HETATM    1  C8  UNL     1     -87.468 -13.045   9.411  1.00  0.00    -0.006 A
HETATM    2  C9  UNL     1     -86.084 -12.799   9.649  1.00  0.00     0.110 A
HETATM    3  C11 UNL     1     -85.259 -12.187   8.745  1.00  0.00     0.118 A
HETATM    4  C12 UNL     1     -85.791 -11.791   7.561  1.00  0.00     0.060 A
HETATM    5 BR1  UNL     1     -84.634 -10.941   6.311  1.00  0.00    -0.047 Br
HETATM    6  C13 UNL     1     -87.127 -12.007   7.293  1.00  0.00     0.029 A
HETATM    7  C14 UNL     1     -87.594 -11.557   6.067  1.00  0.00     0.081 A
HETATM    8  C15 UNL     1     -88.900 -11.713   5.726  1.00  0.00     0.074 A
HETATM    9  C16 UNL     1     -89.750 -12.332   6.635  1.00  0.00     0.075 A
HETATM   10  C17 UNL     1     -89.340 -12.799   7.869  1.00  0.00    -0.010 A
HETATM   11  C23 UNL     1     -88.004 -12.638   8.208  1.00  0.00    -0.003 A
ENDROOT
BRANCH   1  12
HETATM   12  C7  UNL     1     -88.192 -13.726  10.440  1.00  0.00     0.081 C
BRANCH  12  13
HETATM   13  C6  UNL     1     -88.506 -12.620  11.471  1.00  0.00    -0.045 A
HETATM   14  C5  UNL     1     -88.417 -11.326  11.068  1.00  0.00     0.011 A
HETATM   15  C4  UNL     1     -88.724 -10.297  11.972  1.00  0.00     0.040 A
HETATM   16  C3  UNL     1     -89.115 -10.619  13.272  1.00  0.00     0.099 A
HETATM   17  C2  UNL     1     -89.198 -11.928  13.663  1.00  0.00     0.107 A
HETATM   18  C24 UNL     1     -88.893 -12.903  12.756  1.00  0.00    -0.019 A
HETATM   19  C25 UNL     1     -88.963 -14.343  13.180  1.00  0.00     0.052 C
BRANCH  16  20
HETATM   20  O2  UNL     1     -89.416  -9.579  14.157  1.00  0.00    -0.358 OA
ATOM     21  H2  UNL     1     -88.793  -8.882  14.326  1.00  0.00     0.217 HD
ENDBRANCH  16  20
BRANCH  17  22
HETATM   22  O1  UNL     1     -89.581 -12.261  14.937  1.00  0.00    -0.353 OA
HETATM   23  C1  UNL     1     -88.621 -12.314  15.991  1.00  0.00     0.210 C
ENDBRANCH  17  22
ENDBRANCH  12  13
ENDBRANCH   1  12
BRANCH   2  24
HETATM   24  O3  UNL     1     -85.600 -13.220  10.882  1.00  0.00    -0.352 OA
HETATM   25  C10 UNL     1     -84.750 -14.348  11.018  1.00  0.00     0.210 C
ENDBRANCH   2  24
BRANCH   3  26
HETATM   26  O4  UNL     1     -83.913 -11.995   9.074  1.00  0.00    -0.357 OA
ATOM     27  H4  UNL     1     -83.595 -11.112   9.220  1.00  0.00     0.218 HD
ENDBRANCH   3  26
BRANCH  10  28
HETATM   28  C18 UNL     1     -90.274 -13.400   8.779  1.00  0.00     0.070 C
BRANCH  28  29
HETATM   29  C19 UNL     1     -91.346 -12.448   9.197  1.00  0.00    -0.020 C
HETATM   30  C20 UNL     1     -92.155 -12.707  10.213  1.00  0.00    -0.091 C
HETATM   31  C21 UNL     1     -92.019 -13.987  10.994  1.00  0.00     0.042 C
HETATM   32  C22 UNL     1     -93.230 -11.774  10.630  1.00  0.00     0.042 C
ENDBRANCH  28  29
ENDBRANCH  10  28
BRANCH   7  33
HETATM   33  O5  UNL     1     -86.690 -10.936   5.180  1.00  0.00    -0.360 OA
ATOM     34  H5  UNL     1     -87.034 -10.452   4.438  1.00  0.00     0.217 HD
ENDBRANCH   7  33
BRANCH   9  35
HETATM   35  O6  UNL     1     -91.066 -12.427   6.169  1.00  0.00    -0.360 OA
ATOM     36  H6  UNL     1     -91.209 -13.191   5.622  1.00  0.00     0.217 HD
ENDBRANCH   9  35
TORSDOF 10
ENDMDL