MODEL 2
REMARK VINA RESULT: -9.658029176      2.472      5.542
REMARK  8 active torsions:
REMARK  status: ('A' for Active; 'I' for Inactive)
REMARK    1  A    between atoms: N4_24  and  C17_25
REMARK    2  A    between atoms: C17_25  and  C18_26
REMARK    3  A    between atoms: C18_26  and  C19_27
REMARK    4  A    between atoms: C19_27  and  C20_28
REMARK    5  A    between atoms: C20_28  and  C21_29
REMARK    6  A    between atoms: N5_30  and  C22_32
REMARK    7  A    between atoms: C24_34  and  O2_35
REMARK    8  A    between atoms: C27_39  and  O3_40
ROOT
HETATM    1  N1  UNL     1     -85.585 -12.634  16.670  1.00  0.00    -0.191 NA
HETATM    2  C1  UNL     1     -86.400 -13.000  15.923  1.00  0.00     0.099 C
HETATM    3  C2  UNL     1     -87.407 -13.479  15.001  1.00  0.00     0.045 A
HETATM    4  C3  UNL     1     -88.658 -13.850  15.437  1.00  0.00     0.025 A
HETATM    5  C4  UNL     1     -89.582 -14.299  14.520  1.00  0.00     0.032 A
HETATM    6  C5  UNL     1     -89.288 -14.387  13.180  1.00  0.00     0.043 A
HETATM    7  N2  UNL     1     -89.994 -14.786  12.091  1.00  0.00    -0.357 N
ATOM      8  H2  UNL     1     -90.959 -15.116  12.110  1.00  0.00     0.166 HD
HETATM    9  C6  UNL     1     -89.239 -14.683  10.983  1.00  0.00     0.044 A
HETATM   10  C7  UNL     1     -88.003 -14.194  11.429  1.00  0.00     0.069 A
HETATM   11  C8  UNL     1     -88.000 -14.000  12.780  1.00  0.00     0.010 A
HETATM   12  C9  UNL     1     -87.062 -13.551  13.645  1.00  0.00     0.037 A
HETATM   13  C10 UNL     1     -86.753 -13.882  10.715  1.00  0.00     0.259 C
HETATM   14  O1  UNL     1     -85.717 -14.071  11.383  1.00  0.00    -0.267 OA
HETATM   15  N3  UNL     1     -86.575 -13.401   9.380  1.00  0.00    -0.321 N
ATOM     16  H3  UNL     1     -85.599 -13.395   9.085  1.00  0.00     0.169 HD
HETATM   17  C11 UNL     1     -87.471 -12.922   8.361  1.00  0.00     0.064 A
HETATM   18  C12 UNL     1     -86.733 -12.062   7.588  1.00  0.00     0.074 A
HETATM   19  C13 UNL     1     -87.357 -11.413   6.535  1.00  0.00     0.118 A
HETATM   20  F1  UNL     1     -86.649 -10.566   5.766  1.00  0.00    -0.206 F
HETATM   21  C14 UNL     1     -88.694 -11.643   6.287  1.00  0.00     0.044 A
HETATM   22  C15 UNL     1     -89.437 -12.524   7.083  1.00  0.00     0.035 A
HETATM   23  C16 UNL     1     -88.831 -13.176   8.132  1.00  0.00     0.057 A
HETATM   24  N4  UNL     1     -89.867 -13.979   8.687  1.00  0.00    -0.373 N
HETATM   25  C28 UNL     1     -89.736 -15.059   9.674  1.00  0.00     0.181 C
ENDROOT
BRANCH  24  26
HETATM   26  C17 UNL     1     -91.215 -13.736   8.272  1.00  0.00     0.123 C
BRANCH  26  27
HETATM   27  C18 UNL     1     -92.220 -13.433   9.307  1.00  0.00     0.020 C
BRANCH  27  28
HETATM   28  C19 UNL     1     -92.488 -12.045   9.726  1.00  0.00     0.007 C
BRANCH  28  29
HETATM   29  C20 UNL     1     -91.959 -11.740  11.126  1.00  0.00     0.044 C
BRANCH  29  30
HETATM   30  C21 UNL     1     -90.516 -11.444  11.101  1.00  0.00     0.061 C
HETATM   31  N5  UNL     1     -89.961 -10.950  12.134  1.00  0.00    -0.367 N
ATOM     32  H5  UNL     1     -90.574 -10.787  12.933  1.00  0.00     0.165 HD
BRANCH  31  33
HETATM   33  C22 UNL     1     -88.626 -10.602  12.316  1.00  0.00     0.068 A
HETATM   34  C23 UNL     1     -87.771 -10.605  11.242  1.00  0.00     0.068 A
HETATM   35  C24 UNL     1     -86.448 -10.262  11.408  1.00  0.00     0.068 A
HETATM   36  C25 UNL     1     -85.956  -9.911  12.646  1.00  0.00     0.039 A
HETATM   37  C26 UNL     1     -86.808  -9.906  13.726  1.00  0.00     0.041 A
HETATM   38  C27 UNL     1     -88.150 -10.255  13.551  1.00  0.00     0.092 A
BRANCH  35  39
HETATM   39  O2  UNL     1     -85.623 -10.282  10.289  1.00  0.00    -0.361 OA
ATOM     40  H2  UNL     1     -85.541  -9.483   9.781  1.00  0.00     0.217 HD
ENDBRANCH  35  39
BRANCH  38  41
HETATM   41  O3  UNL     1     -88.962 -10.229  14.690  1.00  0.00    -0.358 OA
ATOM     42  H3  UNL     1     -89.376  -9.434  15.005  1.00  0.00     0.217 HD
ENDBRANCH  38  41
ENDBRANCH  31  33
ENDBRANCH  29  30
ENDBRANCH  28  29
ENDBRANCH  27  28
ENDBRANCH  26  27
ENDBRANCH  24  26
TORSDOF 8
ENDMDL