MODEL 5
REMARK VINA RESULT: -7.451608193      3.317      6.053
REMARK  10 active torsions:
REMARK  status: ('A' for Active; 'I' for Inactive)
REMARK    1  A    between atoms: C2_2  and  C3_3
REMARK    2  A    between atoms: C3_3  and  C4_4
REMARK    3  A    between atoms: C4_4  and  C5_5
REMARK    4  A    between atoms: C6_6  and  C7_7
REMARK    5  A    between atoms: C10_11  and  C11_12
REMARK    6  A    between atoms: C12_13  and  O2_14
REMARK    7  A    between atoms: C14_17  and  O3_18
REMARK    8  A    between atoms: C16_21  and  C17_22
REMARK    9  A    between atoms: C17_22  and  O4_25
REMARK   10  A    between atoms: C24_33  and  O6_34
ROOT
HETATM    1  C7  UNL     1     -89.119 -12.166   8.425  1.00  0.00     0.185 C
HETATM    2  O1  UNL     1     -90.305 -12.929   8.257  1.00  0.00    -0.368 OA
HETATM    3  C8  UNL     1     -89.968 -14.225   8.560  1.00  0.00     0.164 C
HETATM    4  C9  UNL     1     -88.565 -14.126   9.279  1.00  0.00     0.084 C
HETATM    5  C10 UNL     1     -88.607 -12.767   9.713  1.00  0.00     0.130 C
HETATM    6  O5  UNL     1     -89.846 -12.742  10.511  1.00  0.00    -0.330 OA
HETATM    7  C20 UNL     1     -90.708 -13.733  10.743  1.00  0.00     0.099 A
HETATM    8  C21 UNL     1     -91.447 -13.946  11.900  1.00  0.00     0.045 A
HETATM    9 BR1  UNL     1     -91.256 -12.730  13.355  1.00  0.00    -0.048 Br
HETATM   10  C22 UNL     1     -92.291 -15.041  11.935  1.00  0.00     0.025 A
HETATM   11  C23 UNL     1     -92.422 -15.925  10.864  1.00  0.00     0.039 A
HETATM   12  C24 UNL     1     -91.681 -15.714   9.699  1.00  0.00     0.077 A
HETATM   13  C25 UNL     1     -90.866 -14.643   9.687  1.00  0.00     0.039 A
ENDROOT
BRANCH   5  14
HETATM   14  C11 UNL     1     -87.764 -11.999  10.541  1.00  0.00     0.022 A
HETATM   15  C12 UNL     1     -88.369 -10.867  11.149  1.00  0.00     0.078 A
HETATM   16  C13 UNL     1     -87.731  -9.971  11.954  1.00  0.00     0.073 A
HETATM   17  C14 UNL     1     -86.414 -10.145  12.222  1.00  0.00     0.069 A
HETATM   18  C15 UNL     1     -85.780 -11.228  11.659  1.00  0.00     0.047 A
HETATM   19  C16 UNL     1     -86.439 -12.166  10.817  1.00  0.00    -0.010 A
BRANCH  15  20
HETATM   20  O2  UNL     1     -89.731 -10.616  10.934  1.00  0.00    -0.360 OA
ATOM     21  H2  UNL     1     -89.990  -9.968  10.290  1.00  0.00     0.217 HD
ENDBRANCH  15  20
BRANCH  17  22
HETATM   22  O3  UNL     1     -85.682  -9.276  13.036  1.00  0.00    -0.361 OA
ATOM     23  H3  UNL     1     -86.018  -8.925  13.852  1.00  0.00     0.217 HD
ENDBRANCH  17  22
BRANCH  19  24
HETATM   24  C17 UNL     1     -85.670 -13.251  10.285  1.00  0.00     0.078 C
HETATM   25  C18 UNL     1     -84.173 -12.742  10.289  1.00  0.00     0.051 C
HETATM   26  C19 UNL     1     -85.429 -14.445  11.172  1.00  0.00     0.051 C
BRANCH  24  27
HETATM   27  O4  UNL     1     -85.678 -13.491   8.927  1.00  0.00    -0.386 OA
ATOM     28  H4  UNL     1     -86.302 -14.108   8.563  1.00  0.00     0.211 HD
ENDBRANCH  24  27
ENDBRANCH  19  24
ENDBRANCH   5  14
BRANCH   1  29
HETATM   29  C6  UNL     1     -88.313 -12.490   7.236  1.00  0.00     0.004 C
HETATM   30  C5  UNL     1     -87.530 -11.593   6.671  1.00  0.00    -0.028 C
BRANCH  30  31
HETATM   31  C4  UNL     1     -86.719 -11.913   5.477  1.00  0.00     0.027 C
BRANCH  31  32
HETATM   32  C3  UNL     1     -85.274 -11.468   5.642  1.00  0.00     0.003 C
BRANCH  32  33
HETATM   33  C2  UNL     1     -85.055 -10.866   7.018  1.00  0.00    -0.004 C
HETATM   34  C1  UNL     1     -83.589 -10.736   7.330  1.00  0.00     0.005 C
ENDBRANCH  32  33
ENDBRANCH  31  32
ENDBRANCH  30  31
ENDBRANCH   1  29
BRANCH  12  35
HETATM   35  O6  UNL     1     -91.742 -16.531   8.589  1.00  0.00    -0.360 OA
ATOM     36  H6  UNL     1     -92.209 -16.308   7.793  1.00  0.00     0.217 HD
ENDBRANCH  12  35
TORSDOF 10
ENDMDL