MODEL 1
REMARK VINA RESULT: -9.856655567      0.000      0.000
REMARK  6 active torsions:
REMARK  status: ('A' for Active; 'I' for Inactive)
REMARK    1  A    between atoms: C5_6  and  C6_7
REMARK    2  A    between atoms: C7_8  and  C8_9
REMARK    3  A    between atoms: C12_15  and  C13_16
REMARK    4  A    between atoms: C16_19  and  C17_20
REMARK    5  A    between atoms: C25_33  and  C26_34
REMARK    6  A    between atoms: C26_34  and  N4_35
ROOT
HETATM    1  C1  UNL     1     -84.956  -9.717  12.965  1.00  0.00     0.210 C
HETATM    2  O1  UNL     1     -85.916 -10.401  12.504  1.00  0.00    -0.353 OA
HETATM    3  C2  UNL     1     -86.832 -11.187  12.046  1.00  0.00     0.106 A
HETATM    4  C3  UNL     1     -86.647 -12.590  11.958  1.00  0.00     0.041 A
HETATM    5  C4  UNL     1     -87.641 -13.396  11.469  1.00  0.00     0.015 A
HETATM    6  C5  UNL     1     -88.849 -12.904  11.043  1.00  0.00    -0.017 A
HETATM    7  C28 UNL     1     -89.048 -11.548  11.121  1.00  0.00     0.057 A
HETATM    8  C29 UNL     1     -88.081 -10.712  11.603  1.00  0.00     0.150 A
HETATM    9  F1  UNL     1     -88.273  -9.377  11.681  1.00  0.00    -0.203 F
ENDROOT
BRANCH   6  10
HETATM   10  C6  UNL     1     -89.846 -13.817  10.539  1.00  0.00     0.045 A
HETATM   11  C7  UNL     1     -90.030 -13.942   9.180  1.00  0.00     0.058 A
HETATM   12  N3  UNL     1     -90.967 -14.801   8.748  1.00  0.00    -0.343 N
HETATM   13  C25 UNL     1     -91.718 -15.527   9.578  1.00  0.00     0.109 A
ATOM     14  H3  UNL     1     -91.111 -14.903   7.744  1.00  0.00     0.167 HD
HETATM   15  N5  UNL     1     -91.569 -15.435  10.909  1.00  0.00    -0.330 N
HETATM   16  C27 UNL     1     -90.642 -14.589  11.377  1.00  0.00     0.113 A
ATOM     17  H5  UNL     1     -92.142 -15.991  11.543  1.00  0.00     0.168 HD
HETATM   18  N6  UNL     1     -90.467 -14.469  12.640  1.00  0.00    -0.385 N
ATOM     19  H62 UNL     1     -89.761 -13.825  12.995  1.00  0.00     0.157 HD
ATOM     20  H61 UNL     1     -91.052 -15.035  13.255  1.00  0.00     0.157 HD
BRANCH  11  21
HETATM   21  C8  UNL     1     -89.280 -13.215   8.191  1.00  0.00    -0.006 A
HETATM   22  C9  UNL     1     -89.918 -12.534   7.192  1.00  0.00     0.016 A
HETATM   23  C10 UNL     1     -89.173 -11.847   6.261  1.00  0.00     0.033 A
HETATM   24  C11 UNL     1     -87.796 -11.830   6.312  1.00  0.00     0.060 A
HETATM   25  N1  UNL     1     -86.823 -11.258   5.556  1.00  0.00    -0.340 N
HETATM   26  C23 UNL     1     -87.142 -12.515   7.316  1.00  0.00     0.061 A
HETATM   27  C12 UNL     1     -85.625 -11.556   6.042  1.00  0.00     0.116 A
ATOM     28  H1  UNL     1     -86.990 -10.681   4.731  1.00  0.00     0.167 HD
HETATM   29  N2  UNL     1     -85.810 -12.328   7.125  1.00  0.00    -0.340 N
ATOM     30  H2  UNL     1     -85.069 -12.713   7.711  1.00  0.00     0.167 HD
HETATM   31  C24 UNL     1     -87.910 -13.199   8.244  1.00  0.00     0.045 A
BRANCH  27  32
HETATM   32  C13 UNL     1     -84.353 -11.112   5.484  1.00  0.00     0.008 A
HETATM   33  C14 UNL     1     -84.175 -10.916   4.132  1.00  0.00     0.016 A
HETATM   34  C15 UNL     1     -82.976 -10.497   3.606  1.00  0.00     0.015 A
HETATM   35  C16 UNL     1     -81.887 -10.251   4.427  1.00  0.00    -0.002 A
HETATM   36  C21 UNL     1     -82.054 -10.444   5.784  1.00  0.00     0.015 A
HETATM   37  C22 UNL     1     -83.258 -10.862   6.286  1.00  0.00     0.016 A
BRANCH  35  38
HETATM   38  C17 UNL     1     -80.607  -9.802   3.872  1.00  0.00     0.085 A
HETATM   39  C18 UNL     1     -80.336  -8.519   3.469  1.00  0.00     0.040 A
HETATM   40  C19 UNL     1     -79.014  -8.532   3.009  1.00  0.00     0.027 A
HETATM   41  C20 UNL     1     -78.610  -9.845   3.183  1.00  0.00     0.142 A
HETATM   42  O2  UNL     1     -79.574 -10.574   3.696  1.00  0.00    -0.322 OA
ENDBRANCH  35  38
ENDBRANCH  27  32
ENDBRANCH  11  21
BRANCH  13  43
HETATM   43  C26 UNL     1     -92.748 -16.467   9.023  1.00  0.00     0.305 C
BRANCH  43  44
HETATM   44  N4  UNL     1     -92.259 -17.054   7.788  1.00  0.00    -0.073 N
ATOM     45  H43 UNL     1     -92.994 -17.145   7.087  1.00  0.00     0.274 HD
ATOM     46  H42 UNL     1     -91.647 -16.418   7.276  1.00  0.00     0.274 HD
ATOM     47  H41 UNL     1     -91.806 -17.945   7.988  1.00  0.00     0.274 HD
ENDBRANCH  43  44
ENDBRANCH  13  43
ENDBRANCH   6  10
TORSDOF 6
ENDMDL