MODEL 4
REMARK VINA RESULT: -8.530252423      1.204      1.719
REMARK  10 active torsions:
REMARK  status: ('A' for Active; 'I' for Inactive)
REMARK    1  A    between atoms: C3_3  and  O1_4
REMARK    2  A    between atoms: C4_6  and  O2_7
REMARK    3  A    between atoms: C7_11  and  C8_12
REMARK    4  A    between atoms: C11_17  and  O3_18
REMARK    5  A    between atoms: C12_20  and  O4_21
REMARK    6  A    between atoms: O4_21  and  C13_22
REMARK    7  A    between atoms: C18_28  and  O5_29
REMARK    8  A    between atoms: O5_29  and  C19_30
REMARK    9  A    between atoms: C22_33  and  C23_34
REMARK   10  A    between atoms: C26_37  and  O6_38
ROOT
HETATM    1  C13 UNL     1      90.445  13.227   8.246  1.00  0.00     0.110 A
HETATM    2  C14 UNL     1      89.173  13.472   8.796  1.00  0.00     0.043 A
HETATM    3  C15 UNL     1      88.921  14.563   9.593  1.00  0.00     0.045 A
HETATM    4  C16 UNL     1      89.949  15.433   9.851  1.00  0.00     0.119 A
HETATM    5  F1  UNL     1      89.692  16.503  10.647  1.00  0.00    -0.206 F
HETATM    6  C17 UNL     1      91.199  15.202   9.317  1.00  0.00     0.082 A
HETATM    7  C18 UNL     1      91.460  14.121   8.526  1.00  0.00     0.112 A
ENDROOT
BRANCH   1   8
HETATM    8  O4  UNL     1      90.724  12.149   7.440  1.00  0.00    -0.306 OA
BRANCH   8   9
HETATM    9  C12 UNL     1      90.003  11.807   6.295  1.00  0.00     0.100 A
HETATM   10  C2  UNL     1      89.438  10.511   6.356  1.00  0.00     0.025 A
HETATM   11  C1  UNL     1      89.654   9.759   7.442  1.00  0.00     0.029 C
HETATM   12  C3  UNL     1      88.711  10.109   5.277  1.00  0.00     0.112 A
HETATM   13  C4  UNL     1      88.535  10.948   4.154  1.00  0.00     0.110 A
HETATM   14  C5  UNL     1      89.084  12.190   4.110  1.00  0.00     0.004 A
HETATM   15  C6  UNL     1      88.959  13.030   3.107  1.00  0.00     0.027 C
HETATM   16  C7  UNL     1      89.842  12.631   5.221  1.00  0.00     0.025 A
BRANCH  12  17
HETATM   17  O1  UNL     1      88.121   8.869   5.242  1.00  0.00    -0.357 OA
ATOM     18  H1  UNL     1      88.162   8.329   4.462  1.00  0.00     0.217 HD
ENDBRANCH  12  17
BRANCH  13  19
HETATM   19  O2  UNL     1      87.780  10.465   3.101  1.00  0.00    -0.357 OA
ATOM     20  H2  UNL     1      86.961  10.905   2.907  1.00  0.00     0.217 HD
ENDBRANCH  13  19
BRANCH  16  21
HETATM   21  C8  UNL     1      90.392  13.968   5.094  1.00  0.00     0.028 A
HETATM   22  C9  UNL     1      89.754  15.190   5.347  1.00  0.00     0.102 A
HETATM   23  N1  UNL     1      90.605  16.211   5.069  1.00  0.00    -0.372 N
HETATM   24  C10 UNL     1      91.772  15.702   4.645  1.00  0.00     0.125 A
ATOM     25  H1  UNL     1      90.392  17.204   5.166  1.00  0.00     0.164 HD
HETATM   26  C11 UNL     1      91.650  14.311   4.656  1.00  0.00     0.093 A
BRANCH  26  27
HETATM   27  O3  UNL     1      92.680  13.479   4.269  1.00  0.00    -0.358 OA
ATOM     28  H3  UNL     1      93.370  13.647   3.638  1.00  0.00     0.217 HD
ENDBRANCH  26  27
ENDBRANCH  16  21
ENDBRANCH   8   9
ENDBRANCH   1   8
BRANCH   7  29
HETATM   29  O5  UNL     1      92.719  13.930   8.009  1.00  0.00    -0.308 OA
BRANCH  29  30
HETATM   30  C19 UNL     1      93.841  14.628   8.417  1.00  0.00     0.076 A
HETATM   31  C20 UNL     1      94.390  14.414   9.688  1.00  0.00     0.038 A
HETATM   32  C21 UNL     1      95.501  15.123  10.071  1.00  0.00     0.015 A
HETATM   33  C22 UNL     1      96.128  16.059   9.256  1.00  0.00    -0.026 A
HETATM   34  C30 UNL     1      95.597  16.270   8.010  1.00  0.00     0.015 A
HETATM   35  C31 UNL     1      94.462  15.547   7.620  1.00  0.00     0.038 A
BRANCH  33  36
HETATM   36  C23 UNL     1      97.295  16.796   9.789  1.00  0.00    -0.026 A
HETATM   37  C24 UNL     1      98.489  16.919   9.138  1.00  0.00     0.015 A
HETATM   38  C25 UNL     1      99.516  17.627   9.718  1.00  0.00     0.037 A
HETATM   39  C26 UNL     1      99.367  18.233  10.975  1.00  0.00     0.068 A
HETATM   40  C28 UNL     1      98.157  18.114  11.638  1.00  0.00     0.037 A
HETATM   41  C29 UNL     1      97.151  17.403  11.042  1.00  0.00     0.015 A
BRANCH  39  42
HETATM   42  O6  UNL     1     100.386  18.943  11.574  1.00  0.00    -0.356 OA
HETATM   43  C27 UNL     1     101.625  18.472  12.018  1.00  0.00     0.210 C
ENDBRANCH  39  42
ENDBRANCH  33  36
ENDBRANCH  29  30
ENDBRANCH   7  29
TORSDOF 10
ENDMDL