MODEL 5
REMARK VINA RESULT: -7.190298729      4.418     10.067
REMARK  11 active torsions:
REMARK  status: ('A' for Active; 'I' for Inactive)
REMARK    1  A    between atoms: C3_3  and  C4_4
REMARK    2  A    between atoms: C10_11  and  C12_13
REMARK    3  A    between atoms: C12_13  and  O2_14
REMARK    4  A    between atoms: C12_13  and  C13_16
REMARK    5  A    between atoms: C13_16  and  C15_18
REMARK    6  A    between atoms: C16_19  and  C17_20
REMARK    7  A    between atoms: C17_20  and  O3_21
REMARK    8  A    between atoms: C17_20  and  C18_23
REMARK    9  A    between atoms: C18_23  and  C19_24
REMARK   10  A    between atoms: C19_24  and  O4_26
REMARK   11  A    between atoms: C27_35  and  O6_36
ROOT
HETATM    1  C4  UNL     1      96.803  16.606  12.411  1.00  0.00     0.054 C
HETATM    2  C5  UNL     1      95.721  17.408  11.730  1.00  0.00     0.019 C
HETATM    3  C6  UNL     1      94.329  16.985  11.886  1.00  0.00     0.080 C
HETATM    4  C7  UNL     1      94.307  15.481  11.755  1.00  0.00     0.136 C
HETATM    5  O1  UNL     1      93.587  15.151  10.888  1.00  0.00    -0.297 OA
HETATM    6  C8  UNL     1      95.186  14.850  12.738  1.00  0.00     0.035 C
HETATM    7  C9  UNL     1      95.105  15.560  14.069  1.00  0.00     0.025 C
HETATM    8  C10 UNL     1      94.840  13.468  13.126  1.00  0.00    -0.003 C
HETATM    9  C11 UNL     1      95.329  13.089  14.565  1.00  0.00     0.019 C
HETATM   10  C21 UNL     1      95.529  12.425  12.296  1.00  0.00     0.013 C
HETATM   11  C22 UNL     1      96.954  12.725  12.309  1.00  0.00     0.006 C
HETATM   12  C23 UNL     1      97.468  14.115  12.564  1.00  0.00    -0.009 C
HETATM   13  C24 UNL     1      98.877  13.971  12.014  1.00  0.00     0.011 C
HETATM   14  C25 UNL     1      96.577  15.107  12.079  1.00  0.00    -0.016 C
HETATM   15  C26 UNL     1      96.482  15.083  10.584  1.00  0.00     0.018 C
ENDROOT
BRANCH   8  16
HETATM   16  C12 UNL     1      93.381  13.140  13.198  1.00  0.00     0.134 C
BRANCH  16  17
HETATM   17  O2  UNL     1      92.871  12.392  12.126  1.00  0.00    -0.394 OA
ATOM     18  H2  UNL     1      92.186  11.770  12.345  1.00  0.00     0.210 HD
ENDBRANCH  16  17
BRANCH  16  19
HETATM   19  C13 UNL     1      92.756  12.492  14.351  1.00  0.00     0.033 C
HETATM   20  C14 UNL     1      91.596  13.582  14.685  1.00  0.00     0.017 C
BRANCH  19  21
HETATM   21  C15 UNL     1      91.776  11.375  14.081  1.00  0.00    -0.021 C
HETATM   22  C16 UNL     1      90.929  11.012  15.060  1.00  0.00     0.001 C
BRANCH  22  23
HETATM   23  C17 UNL     1      89.925   9.917  14.888  1.00  0.00     0.143 C
BRANCH  23  24
HETATM   24  O3  UNL     1      89.695   9.227  16.072  1.00  0.00    -0.392 OA
ATOM     25  H3  UNL     1      88.966   8.622  15.998  1.00  0.00     0.210 HD
ENDBRANCH  23  24
BRANCH  23  26
HETATM   26  C18 UNL     1      88.617  10.510  14.428  1.00  0.00     0.067 C
BRANCH  26  27
HETATM   27  C19 UNL     1      87.734   9.633  13.632  1.00  0.00     0.116 C
HETATM   28  C20 UNL     1      86.310   9.511  14.012  1.00  0.00     0.039 C
BRANCH  27  29
HETATM   29  O4  UNL     1      88.326   8.327  13.628  1.00  0.00    -0.396 OA
ATOM     30  H4  UNL     1      87.886   7.822  12.955  1.00  0.00     0.210 HD
ENDBRANCH  27  29
ENDBRANCH  26  27
ENDBRANCH  23  26
ENDBRANCH  22  23
ENDBRANCH  19  21
ENDBRANCH  16  19
ENDBRANCH   8  16
BRANCH   1  31
HETATM   31  C3  UNL     1      98.087  17.119  11.820  1.00  0.00     0.068 A
HETATM   32  C2  UNL     1      99.243  17.384  12.591  1.00  0.00    -0.005 A
HETATM   33  C1  UNL     1      99.425  17.332  14.061  1.00  0.00     0.052 C
HETATM   34  C28 UNL     1     100.177  17.807  11.690  1.00  0.00     0.100 A
HETATM   35  C27 UNL     1      99.633  17.805  10.423  1.00  0.00     0.206 A
HETATM   36 CL1  UNL     1     101.847  18.302  12.057  1.00  0.00    -0.079 Cl
HETATM   37  O5  UNL     1      98.412  17.389  10.612  1.00  0.00    -0.290 OA
BRANCH  35  38
HETATM   38  O6  UNL     1     100.231  18.162   9.195  1.00  0.00    -0.339 OA
ATOM     39  H6  UNL     1     100.828  17.637   8.674  1.00  0.00     0.220 HD
ENDBRANCH  35  38
ENDBRANCH   1  31
TORSDOF 11
ENDMDL