MODEL 4
REMARK VINA RESULT: -8.116677281      3.058      6.996
REMARK  12 active torsions:
REMARK  status: ('A' for Active; 'I' for Inactive)
REMARK    1  A    between atoms: C5_5  and  O1_6
REMARK    2  A    between atoms: O1_6  and  C6_7
REMARK    3  A    between atoms: C6_7  and  C7_9
REMARK    4  A    between atoms: C15_18  and  C16_19
REMARK    5  A    between atoms: C16_19  and  C17_20
REMARK    6  A    between atoms: C17_20  and  C18_21
REMARK    7  A    between atoms: C18_21  and  C19_22
REMARK    8  A    between atoms: C19_22  and  C20_23
REMARK    9  A    between atoms: C20_23  and  O3_24
REMARK   10  A    between atoms: N1_26  and  O4_28
REMARK   11  A    between atoms: N2_30  and  O5_32
REMARK   12  A    between atoms: C23_36  and  O6_37
ROOT
HETATM    1  C1  UNL     1      94.061  13.402  10.652  1.00  0.00     0.016 C
HETATM    2  C2  UNL     1      94.137  14.752   9.917  1.00  0.00    -0.036 C
HETATM    3  C3  UNL     1      92.934  15.528  10.383  1.00  0.00     0.012 C
HETATM    4  C4  UNL     1      91.621  14.969   9.999  1.00  0.00     0.033 C
HETATM    5  C5  UNL     1      91.611  13.893   8.980  1.00  0.00     0.132 C
HETATM    6  C8  UNL     1      92.722  13.945   7.978  1.00  0.00     0.038 C
HETATM    7  C9  UNL     1      94.030  14.408   8.451  1.00  0.00    -0.004 C
HETATM    8  C10 UNL     1      94.496  15.636   7.677  1.00  0.00     0.006 C
HETATM    9  C11 UNL     1      95.999  15.597   7.800  1.00  0.00     0.006 C
HETATM   10  C12 UNL     1      96.462  15.488   9.214  1.00  0.00    -0.005 C
HETATM   11  C13 UNL     1      95.394  15.449  10.259  1.00  0.00    -0.001 C
HETATM   12  C14 UNL     1      95.227  16.869  10.810  1.00  0.00     0.011 C
HETATM   13  C15 UNL     1      96.442  17.256  11.619  1.00  0.00    -0.003 C
HETATM   14  C21 UNL     1      97.709  16.939  10.877  1.00  0.00    -0.010 C
HETATM   15  C22 UNL     1      98.580  15.935  11.544  1.00  0.00     0.018 C
HETATM   16  C23 UNL     1      98.589  18.181  10.657  1.00  0.00     0.127 C
HETATM   17  C24 UNL     1      99.452  17.701   9.492  1.00  0.00     0.033 C
HETATM   18  C25 UNL     1      98.712  16.569   8.821  1.00  0.00     0.008 C
HETATM   19  C26 UNL     1      97.358  16.648   9.464  1.00  0.00     0.001 C
ENDROOT
BRANCH  13  20
HETATM   20  C16 UNL     1      96.407  16.728  12.999  1.00  0.00     0.011 C
BRANCH  20  21
HETATM   21  C17 UNL     1      95.031  16.542  13.580  1.00  0.00     0.055 C
BRANCH  21  22
HETATM   22  C18 UNL     1      94.971  15.428  14.548  1.00  0.00     0.017 C
HETATM   23  N2  UNL     1      95.292  15.646  15.769  1.00  0.00    -0.277 N
ATOM     24  H2  UNL     1      95.582  16.582  16.051  1.00  0.00     0.193 HD
BRANCH  22  25
HETATM   25  C19 UNL     1      94.551  14.074  14.142  1.00  0.00     0.140 C
BRANCH  25  26
HETATM   26  C20 UNL     1      95.684  13.114  14.019  1.00  0.00     0.140 C
HETATM   27  N1  UNL     1      95.807  12.085  14.819  1.00  0.00    -0.251 N
ATOM     28  H1  UNL     1      96.597  11.451  14.703  1.00  0.00     0.196 HD
BRANCH  26  29
HETATM   29  O3  UNL     1      96.681  13.235  13.062  1.00  0.00    -0.348 OA
ATOM     30  H3  UNL     1      97.083  12.489  12.632  1.00  0.00     0.219 HD
ENDBRANCH  26  29
BRANCH  27  31
HETATM   31  O4  UNL     1      94.897  11.848  15.803  1.00  0.00    -0.288 OA
ATOM     32  H4  UNL     1      95.134  11.931  16.719  1.00  0.00     0.244 HD
ENDBRANCH  27  31
ENDBRANCH  25  26
ENDBRANCH  22  25
BRANCH  23  33
HETATM   33  O5  UNL     1      95.252  14.642  16.709  1.00  0.00    -0.290 OA
ATOM     34  H5  UNL     1      94.622  14.655  17.419  1.00  0.00     0.244 HD
ENDBRANCH  23  33
ENDBRANCH  21  22
ENDBRANCH  20  21
ENDBRANCH  13  20
BRANCH  16  35
HETATM   35  O6  UNL     1      99.400  18.410  11.763  1.00  0.00    -0.395 OA
ATOM     36  H6  UNL     1     100.129  17.800  11.775  1.00  0.00     0.210 HD
ENDBRANCH  16  35
BRANCH   5  37
HETATM   37  O1  UNL     1      90.352  13.863   8.332  1.00  0.00    -0.315 OA
BRANCH  37  38
HETATM   38  C6  UNL     1      89.519  12.771   8.337  1.00  0.00     0.273 C
HETATM   39  O2  UNL     1      88.336  12.959   7.957  1.00  0.00    -0.264 OA
BRANCH  38  40
HETATM   40  C7  UNL     1      90.005  11.452   8.769  1.00  0.00     0.225 C
HETATM   41 CL1  UNL     1      89.624  10.276   7.490  1.00  0.00    -0.120 Cl
ENDBRANCH  38  40
ENDBRANCH  37  38
ENDBRANCH   5  37
TORSDOF 12
ENDMDL