MODEL 4
REMARK VINA RESULT: -8.753044554      2.296      3.803
REMARK  8 active torsions:
REMARK  status: ('A' for Active; 'I' for Inactive)
REMARK    1  A    between atoms: O1_2  and  C2_3
REMARK    2  A    between atoms: C4_5  and  C5_6
REMARK    3  A    between atoms: C5_6  and  C6_7
REMARK    4  A    between atoms: C7_8  and  C8_9
REMARK    5  A    between atoms: C9_12  and  C10_13
REMARK    6  A    between atoms: C14_19  and  N3_20
REMARK    7  A    between atoms: C15_25  and  C16_26
REMARK    8  A    between atoms: C22_36  and  C23_37
ROOT
HETATM    1  C6  UNL     1      96.835  16.017  10.177  1.00  0.00    -0.010 A
HETATM    2  C7  UNL     1      95.489  15.895   9.838  1.00  0.00     0.069 A
HETATM    3  N5  UNL     1      95.456  15.663   8.512  1.00  0.00    -0.353 N
ATOM      4  H5  UNL     1      94.595  15.527   7.984  1.00  0.00     0.166 HD
HETATM    5  C19 UNL     1      96.670  15.632   7.966  1.00  0.00     0.047 A
HETATM    6  C20 UNL     1      97.125  15.429   6.680  1.00  0.00     0.047 A
HETATM    7  C21 UNL     1      98.469  15.457   6.434  1.00  0.00     0.090 A
HETATM    8  N6  UNL     1      99.366  15.681   7.405  1.00  0.00    -0.364 N
ATOM      9  H6  UNL     1     100.364  15.699   7.194  1.00  0.00     0.165 HD
HETATM   10  C22 UNL     1      98.915  15.887   8.698  1.00  0.00     0.057 A
HETATM   11  C28 UNL     1      97.580  15.864   9.020  1.00  0.00     0.027 A
ENDROOT
BRANCH   2  12
HETATM   12  C8  UNL     1      94.283  16.067  10.634  1.00  0.00     0.088 A
HETATM   13  N1  UNL     1      94.173  17.113  11.491  1.00  0.00    -0.338 N
HETATM   14  C9  UNL     1      93.007  17.093  12.124  1.00  0.00     0.120 A
ATOM     15  H1  UNL     1      94.893  17.821  11.631  1.00  0.00     0.167 HD
HETATM   16  N4  UNL     1      92.359  15.991  11.644  1.00  0.00    -0.340 N
HETATM   17  C15 UNL     1      93.148  15.354  10.730  1.00  0.00     0.064 A
ATOM     18  H4  UNL     1      91.427  15.688  11.926  1.00  0.00     0.167 HD
BRANCH  14  19
HETATM   19  C10 UNL     1      92.422  17.938  13.161  1.00  0.00     0.052 A
HETATM   20  C11 UNL     1      93.287  18.597  14.035  1.00  0.00     0.020 A
HETATM   21  C12 UNL     1      92.851  19.441  15.031  1.00  0.00     0.018 A
HETATM   22  C13 UNL     1      91.496  19.624  15.150  1.00  0.00     0.089 A
HETATM   23  N2  UNL     1      90.671  19.001  14.323  1.00  0.00    -0.352 N
HETATM   24  C14 UNL     1      91.086  18.139  13.303  1.00  0.00     0.112 A
ATOM     25  H2  UNL     1      89.670  19.160  14.437  1.00  0.00     0.166 HD
BRANCH  24  26
HETATM   26  N3  UNL     1      90.198  17.675  12.605  1.00  0.00    -0.385 N
ATOM     27  H32 UNL     1      90.390  17.644  11.604  1.00  0.00     0.157 HD
ATOM     28  H31 UNL     1      89.308  17.292  12.924  1.00  0.00     0.157 HD
ENDBRANCH  24  26
ENDBRANCH  14  19
BRANCH  17  29
HETATM   29  C16 UNL     1      92.757  14.003  10.195  1.00  0.00    -0.059 C
HETATM   30  C17 UNL     1      92.209  14.045   8.812  1.00  0.00     0.045 C
HETATM   31  C18 UNL     1      93.519  12.840  10.629  1.00  0.00     0.045 C
ENDBRANCH  17  29
ENDBRANCH   2  12
BRANCH   1  32
HETATM   32  C5  UNL     1      97.290  16.131  11.567  1.00  0.00     0.080 C
BRANCH  32  33
HETATM   33  C4  UNL     1      97.105  14.778  12.207  1.00  0.00    -0.048 A
HETATM   34  C3  UNL     1      96.005  14.482  12.963  1.00  0.00     0.063 A
HETATM   35  C2  UNL     1      95.844  13.213  13.522  1.00  0.00     0.141 A
HETATM   36  N8  UNL     1      96.791  12.312  13.295  1.00  0.00    -0.347 N
HETATM   37  C30 UNL     1      97.898  12.523  12.567  1.00  0.00     0.090 A
ATOM     38  H8  UNL     1      96.669  11.387  13.708  1.00  0.00     0.167 HD
HETATM   39  C29 UNL     1      98.039  13.793  12.019  1.00  0.00     0.024 A
BRANCH  35  40
HETATM   40  O1  UNL     1      94.747  12.908  14.278  1.00  0.00    -0.341 OA
HETATM   41  C1  UNL     1      93.626  13.776  14.314  1.00  0.00     0.211 C
ENDBRANCH  35  40
ENDBRANCH  32  33
ENDBRANCH   1  32
BRANCH  10  42
HETATM   42  C23 UNL     1      99.915  16.235   9.679  1.00  0.00     0.010 A
HETATM   43  C24 UNL     1     100.130  17.567  10.084  1.00  0.00     0.101 A
HETATM   44  N7  UNL     1     101.106  17.840  10.985  1.00  0.00    -0.372 N
HETATM   45  C25 UNL     1     101.899  16.906  11.530  1.00  0.00     0.130 A
ATOM     46  H7  UNL     1     101.246  18.812  11.264  1.00  0.00     0.164 HD
HETATM   47  C26 UNL     1     101.703  15.598  11.147  1.00  0.00     0.132 A
HETATM   48  F1  UNL     1     102.472  14.594  11.660  1.00  0.00    -0.205 F
HETATM   49  C27 UNL     1     100.711  15.279  10.223  1.00  0.00     0.058 A
ENDBRANCH  10  42
TORSDOF 8
ENDMDL