MODEL 5
REMARK VINA RESULT: -8.126252074      5.138      6.683
REMARK  10 active torsions:
REMARK  status: ('A' for Active; 'I' for Inactive)
REMARK    1  A    between atoms: C2_2  and  C24_37
REMARK    2  A    between atoms: C3_3  and  C4_4
REMARK    3  A    between atoms: C4_4  and  C5_5
REMARK    4  A    between atoms: C7_8  and  C8_9
REMARK    5  A    between atoms: C17_18  and  C18_19
REMARK    6  A    between atoms: C19_24  and  N3_25
REMARK    7  A    between atoms: C21_30  and  O3_31
REMARK    8  A    between atoms: C22_33  and  C23_34
REMARK    9  A    between atoms: C23_34  and  O4_35
REMARK   10  A    between atoms: C24_37  and  C25_38
ROOT
HETATM    1  C5  UNL     1      96.001  14.770  10.939  1.00  0.00     0.140 C
HETATM    2  O1  UNL     1      94.683  14.735  10.414  1.00  0.00    -0.349 OA
HETATM    3  C6  UNL     1      93.804  13.746  10.848  1.00  0.00     0.049 C
HETATM    4  C7  UNL     1      92.528  13.821  10.395  1.00  0.00     0.032 C
HETATM    5  C20 UNL     1      94.208  12.673  11.749  1.00  0.00     0.096 C
HETATM    6  C21 UNL     1      95.637  12.729  12.145  1.00  0.00     0.133 C
HETATM    7  C22 UNL     1      96.046  14.221  12.318  1.00  0.00     0.068 C
ENDROOT
BRANCH   4   8
HETATM    8  C8  UNL     1      91.606  12.813  10.823  1.00  0.00     0.006 C
HETATM    9  C9  UNL     1      90.754  12.957  11.867  1.00  0.00    -0.075 C
HETATM   10  C10 UNL     1      90.769  14.198  12.614  1.00  0.00     0.034 C
HETATM   11  C15 UNL     1      89.879  11.820  12.099  1.00  0.00     0.024 C
HETATM   12  C11 UNL     1      90.021  14.141  13.899  1.00  0.00     0.005 C
HETATM   13  C12 UNL     1      89.719  12.743  14.384  1.00  0.00     0.011 C
HETATM   14  C13 UNL     1      88.993  11.956  13.354  1.00  0.00    -0.026 C
HETATM   15  C14 UNL     1      87.603  12.466  12.968  1.00  0.00     0.016 C
HETATM   16  C17 UNL     1      89.104  10.485  13.452  1.00  0.00     0.072 C
HETATM   17  C16 UNL     1      90.488  10.613  12.829  1.00  0.00     0.023 C
BRANCH  16  18
HETATM   18  C18 UNL     1      88.994   9.822  14.746  1.00  0.00     0.147 A
HETATM   19  N1  UNL     1      89.822   9.443  15.667  1.00  0.00    -0.280 N
HETATM   20  N2  UNL     1      89.106   8.865  16.673  1.00  0.00    -0.263 N
ATOM     21  H1  UNL     1      90.835   9.556  15.644  1.00  0.00     0.189 HD
HETATM   22  C19 UNL     1      87.921   8.859  16.448  1.00  0.00     0.238 A
ATOM     23  H2  UNL     1      89.524   8.483  17.520  1.00  0.00     0.190 HD
HETATM   24  O2  UNL     1      87.766   9.474  15.198  1.00  0.00    -0.264 OA
BRANCH  22  25
HETATM   25  N3  UNL     1      86.669   8.503  16.886  1.00  0.00    -0.364 N
ATOM     26  H32 UNL     1      86.685   7.500  17.069  1.00  0.00     0.159 HD
ATOM     27  H31 UNL     1      85.724   8.812  17.114  1.00  0.00     0.159 HD
ENDBRANCH  22  25
ENDBRANCH  16  18
ENDBRANCH   4   8
BRANCH   1  28
HETATM   28  C4  UNL     1      96.675  16.033  10.608  1.00  0.00     0.060 C
BRANCH  28  29
HETATM   29  C3  UNL     1      98.043  16.150  11.169  1.00  0.00    -0.022 C
HETATM   30  C2  UNL     1      98.508  16.959  12.088  1.00  0.00    -0.087 C
HETATM   31  C1  UNL     1      97.645  17.958  12.736  1.00  0.00     0.043 C
BRANCH  30  32
HETATM   32  C24 UNL     1      99.922  16.792  12.495  1.00  0.00     0.045 C
BRANCH  32  33
HETATM   33  C25 UNL     1     100.973  17.227  11.565  1.00  0.00    -0.009 C
HETATM   34  C26 UNL     1     101.691  16.066  10.853  1.00  0.00     0.018 C
HETATM   35  C27 UNL     1     102.068  17.957  12.443  1.00  0.00     0.015 C
HETATM   36  C28 UNL     1     101.449  19.238  11.958  1.00  0.00     0.039 C
HETATM   37  C29 UNL     1     100.935  18.429  10.751  1.00  0.00     0.178 C
HETATM   38  F1  UNL     1      99.799  18.942  10.214  1.00  0.00    -0.249 F
ENDBRANCH  32  33
ENDBRANCH  30  32
ENDBRANCH  28  29
ENDBRANCH   1  28
BRANCH   6  39
HETATM   39  O3  UNL     1      95.924  12.091  13.325  1.00  0.00    -0.395 OA
ATOM     40  H3  UNL     1      96.316  11.232  13.222  1.00  0.00     0.210 HD
ENDBRANCH   6  39
BRANCH   7  41
HETATM   41  C23 UNL     1      95.109  14.809  13.321  1.00  0.00     0.173 C
BRANCH  41  42
HETATM   42  O4  UNL     1      95.701  14.981  14.565  1.00  0.00    -0.400 OA
ATOM     43  H4  UNL     1      95.858  15.895  14.770  1.00  0.00     0.209 HD
ENDBRANCH  41  42
ENDBRANCH   7  41
TORSDOF 10
ENDMDL