MODEL 3
REMARK VINA RESULT: -9.274738458      3.771      6.193
REMARK  7 active torsions:
REMARK  status: ('A' for Active; 'I' for Inactive)
REMARK    1  A    between atoms: O1_2  and  C2_3
REMARK    2  A    between atoms: C5_8  and  C6_9
REMARK    3  A    between atoms: C8_11  and  C9_12
REMARK    4  A    between atoms: C13_16  and  S1_17
REMARK    5  A    between atoms: N5_29  and  C18_30
REMARK    6  A    between atoms: C18_30  and  C19_31
REMARK    7  A    between atoms: C19_31  and  C20_32
ROOT
HETATM    1  C6  UNL     1      96.694  15.973   9.326  1.00  0.00     0.065 A
HETATM    2  C7  UNL     1      95.398  16.347   9.461  1.00  0.00     0.064 A
HETATM    3  C8  UNL     1      95.063  16.480  10.817  1.00  0.00     0.063 A
HETATM    4  N5  UNL     1      96.179  16.180  11.465  1.00  0.00    -0.291 N
HETATM    5  N7  UNL     1      97.155  15.877  10.579  1.00  0.00    -0.297 N
ATOM      6  H7  UNL     1      98.107  15.612  10.830  1.00  0.00     0.187 HD
ENDROOT
BRANCH   3   7
HETATM    7  C9  UNL     1      93.705  16.817  11.290  1.00  0.00    -0.007 A
HETATM    8  C10 UNL     1      93.428  17.611  12.357  1.00  0.00     0.014 A
HETATM    9  C11 UNL     1      92.086  17.810  12.762  1.00  0.00     0.016 A
HETATM   10  C12 UNL     1      91.073  17.201  12.073  1.00  0.00     0.013 A
HETATM   11  C13 UNL     1      89.783  17.397  12.472  1.00  0.00     0.095 A
HETATM   12  C16 UNL     1      91.348  16.393  10.987  1.00  0.00     0.023 A
HETATM   13  N2  UNL     1      88.765  16.807  11.813  1.00  0.00    -0.292 N
HETATM   14  N3  UNL     1      89.012  16.037  10.778  1.00  0.00    -0.284 N
ATOM     15  H2  UNL     1      87.804  16.959  12.118  1.00  0.00     0.187 HD
HETATM   16  C15 UNL     1      90.285  15.798  10.326  1.00  0.00     0.124 A
ATOM     17  H3  UNL     1      88.228  15.600  10.293  1.00  0.00     0.188 HD
HETATM   18  N4  UNL     1      90.467  15.042   9.318  1.00  0.00    -0.384 N
ATOM     19  H42 UNL     1      89.685  14.604   8.831  1.00  0.00     0.157 HD
ATOM     20  H41 UNL     1      91.414  14.865   8.982  1.00  0.00     0.157 HD
HETATM   21  C17 UNL     1      92.653  16.205  10.602  1.00  0.00     0.030 A
BRANCH  11  22
HETATM   22  S1  UNL     1      89.441  18.433  13.864  1.00  0.00    -0.115 SA
HETATM   23  C14 UNL     1      87.664  18.884  13.927  1.00  0.00     0.097 C
ENDBRANCH  11  22
ENDBRANCH   3   7
BRANCH   4  24
HETATM   24  C18 UNL     1      96.444  16.139  12.875  1.00  0.00     0.154 C
BRANCH  24  25
HETATM   25  C19 UNL     1      96.938  17.455  13.447  1.00  0.00     0.062 C
BRANCH  25  26
HETATM   26  C20 UNL     1      98.410  17.615  13.276  1.00  0.00    -0.029 A
HETATM   27  C21 UNL     1      99.399  17.170  14.146  1.00  0.00     0.096 A
HETATM   28  N6  UNL     1     100.587  17.505  13.634  1.00  0.00    -0.365 N
HETATM   29  C22 UNL     1     100.413  18.157  12.455  1.00  0.00     0.043 A
ATOM     30  H6  UNL     1     101.490  17.302  14.065  1.00  0.00     0.165 HD
HETATM   31  C23 UNL     1     101.287  18.707  11.535  1.00  0.00     0.033 A
HETATM   32  C27 UNL     1      99.060  18.222  12.237  1.00  0.00     0.001 A
HETATM   33  C24 UNL     1     100.854  19.325  10.394  1.00  0.00     0.044 A
HETATM   34  C25 UNL     1      99.483  19.378  10.197  1.00  0.00     0.117 A
HETATM   35  F1  UNL     1      99.061  19.999   9.052  1.00  0.00    -0.206 F
HETATM   36  C26 UNL     1      98.596  18.838  11.099  1.00  0.00     0.056 A
ENDBRANCH  25  26
ENDBRANCH  24  25
ENDBRANCH   4  24
BRANCH   1  37
HETATM   37  C5  UNL     1      97.475  15.707   8.102  1.00  0.00     0.044 A
HETATM   38  C2  UNL     1      98.809  15.896   7.919  1.00  0.00     0.154 A
HETATM   39  N1  UNL     1      99.157  15.538   6.641  1.00  0.00    -0.346 N
HETATM   40  C3  UNL     1      98.041  15.123   6.021  1.00  0.00     0.091 A
ATOM     41  H1  UNL     1     100.093  15.580   6.236  1.00  0.00     0.167 HD
HETATM   42  C4  UNL     1      96.969  15.219   6.916  1.00  0.00     0.035 A
BRANCH  38  43
HETATM   43  O1  UNL     1      99.786  16.366   8.790  1.00  0.00    -0.340 OA
HETATM   44  C1  UNL     1     100.585  15.477   9.584  1.00  0.00     0.211 C
ENDBRANCH  38  43
ENDBRANCH   1  37
TORSDOF 7
ENDMDL