MODEL 3
REMARK VINA RESULT: -7.684075290      3.184      7.901
REMARK  6 active torsions:
REMARK  status: ('A' for Active; 'I' for Inactive)
REMARK    1  A    between atoms: O1_2  and  C2_3
REMARK    2  A    between atoms: C11_14  and  O2_15
REMARK    3  A    between atoms: C13_17  and  O3_18
REMARK    4  A    between atoms: C16_21  and  C17_22
REMARK    5  A    between atoms: C17_22  and  N2_23
REMARK    6  A    between atoms: N2_23  and  C18_26
ROOT
HETATM    1  C2  UNL     1      87.858  13.591   6.818  1.00  0.00     0.092 A
HETATM    2  C3  UNL     1      89.080  13.533   6.190  1.00  0.00     0.070 A
HETATM    3  C4  UNL     1      90.213  14.015   6.828  1.00  0.00     0.063 A
HETATM    4  N1  UNL     1      91.488  14.080   6.467  1.00  0.00    -0.340 N
ATOM      5  H1  UNL     1      91.847  13.750   5.572  1.00  0.00     0.167 HD
HETATM    6  C5  UNL     1      92.268  14.650   7.452  1.00  0.00     0.121 A
HETATM    7  C6  UNL     1      93.690  14.768   7.293  1.00  0.00     0.063 A
HETATM    8  C7  UNL     1      94.584  15.002   8.272  1.00  0.00     0.002 A
HETATM    9  C8  UNL     1      94.216  15.031   9.669  1.00  0.00    -0.021 A
HETATM   10  C9  UNL     1      93.937  13.846  10.354  1.00  0.00     0.015 A
HETATM   11  C10 UNL     1      93.626  13.889  11.687  1.00  0.00     0.040 A
HETATM   12  C11 UNL     1      93.574  15.076  12.408  1.00  0.00     0.101 A
HETATM   13  C13 UNL     1      93.850  16.263  11.738  1.00  0.00     0.102 A
HETATM   14  C15 UNL     1      94.158  16.211  10.407  1.00  0.00     0.052 A
HETATM   15  C16 UNL     1      95.960  15.148   7.972  1.00  0.00     0.002 A
HETATM   16  C22 UNL     1      96.422  15.061   6.691  1.00  0.00     0.015 A
HETATM   17  C23 UNL     1      97.812  15.244   6.253  1.00  0.00     0.069 C
HETATM   18  N3  UNL     1      95.516  14.823   5.719  1.00  0.00    -0.345 N
ATOM     19  H3  UNL     1      95.840  14.751   4.754  1.00  0.00     0.167 HD
HETATM   20  C24 UNL     1      94.221  14.681   5.969  1.00  0.00     0.114 A
HETATM   21  N4  UNL     1      93.405  14.460   5.013  1.00  0.00    -0.385 N
ATOM     22  H41 UNL     1      93.784  14.398   4.068  1.00  0.00     0.157 HD
ATOM     23  H42 UNL     1      92.409  14.351   5.206  1.00  0.00     0.157 HD
HETATM   24  N5  UNL     1      91.418  14.927   8.420  1.00  0.00    -0.340 N
ATOM     25  H5  UNL     1      91.677  15.362   9.305  1.00  0.00     0.167 HD
HETATM   26  C25 UNL     1      90.146  14.557   8.088  1.00  0.00     0.062 A
HETATM   27  C26 UNL     1      88.918  14.598   8.680  1.00  0.00     0.058 A
HETATM   28  C27 UNL     1      87.774  14.128   8.074  1.00  0.00     0.069 A
HETATM   29 CL1  UNL     1      86.205  14.199   8.872  1.00  0.00    -0.081 Cl
ENDROOT
BRANCH  15  30
HETATM   30  C17 UNL     1      96.825  15.429   9.110  1.00  0.00     0.274 C
BRANCH  30  31
HETATM   31  N2  UNL     1      97.333  16.767   9.121  1.00  0.00    -0.063 N
ATOM     32  H22 UNL     1      97.636  17.067   8.194  1.00  0.00     0.278 HD
ATOM     33  H21 UNL     1      96.593  17.454   9.266  1.00  0.00     0.278 HD
BRANCH  31  34
HETATM   34  C18 UNL     1      98.413  16.896  10.127  1.00  0.00     0.115 C
HETATM   35  C19 UNL     1      98.031  16.069  11.322  1.00  0.00     0.045 C
HETATM   36  C20 UNL     1      99.663  16.367   9.499  1.00  0.00     0.045 C
HETATM   37  C21 UNL     1      98.620  18.332  10.497  1.00  0.00     0.045 C
ENDBRANCH  31  34
ENDBRANCH  30  31
ENDBRANCH  15  30
BRANCH  13  38
HETATM   38  O3  UNL     1      93.823  17.490  12.369  1.00  0.00    -0.353 OA
HETATM   39  C14 UNL     1      92.665  18.273  12.414  1.00  0.00     0.210 C
ENDBRANCH  13  38
BRANCH   1  40
HETATM   40  O1  UNL     1      86.703  13.117   6.207  1.00  0.00    -0.354 OA
HETATM   41  C1  UNL     1      86.669  12.465   4.964  1.00  0.00     0.210 C
ENDBRANCH   1  40
BRANCH  12  42
HETATM   42  O2  UNL     1      93.264  15.128  13.739  1.00  0.00    -0.353 OA
HETATM   43  C12 UNL     1      92.000  14.985  14.314  1.00  0.00     0.210 C
ENDBRANCH  12  42
TORSDOF 6
ENDMDL