MODEL 4
REMARK VINA RESULT: -7.425218887      2.398      7.432
REMARK  12 active torsions:
REMARK  status: ('A' for Active; 'I' for Inactive)
REMARK    1  A    between atoms: C2_2  and  C3_3
REMARK    2  A    between atoms: C3_3  and  C4_4
REMARK    3  A    between atoms: C4_4  and  C5_5
REMARK    4  A    between atoms: C5_5  and  C6_6
REMARK    5  A    between atoms: C6_6  and  O1_7
REMARK    6  A    between atoms: C6_6  and  C7_9
REMARK    7  A    between atoms: C8_10  and  O2_11
REMARK    8  A    between atoms: C9_13  and  C10_14
REMARK    9  A    between atoms: C17_21  and  O3_22
REMARK   10  A    between atoms: C21_27  and  O4_28
REMARK   11  A    between atoms: C25_34  and  C26_35
REMARK   12  A    between atoms: C30_40  and  O6_41
ROOT
HETATM    1  C7  UNL     1      98.444  16.138   8.710  1.00  0.00     0.064 C
HETATM    2  C8  UNL     1      97.328  16.729   9.321  1.00  0.00     0.091 C
HETATM    3  C9  UNL     1      97.284  17.308  10.627  1.00  0.00     0.021 C
HETATM    4  C24 UNL     1      98.343  17.918  11.224  1.00  0.00     0.140 C
HETATM    5  F1  UNL     1      98.048  18.893  12.169  1.00  0.00    -0.204 F
HETATM    6  C25 UNL     1      99.718  17.748  11.102  1.00  0.00     0.058 C
HETATM    7  C29 UNL     1     100.253  16.689  10.410  1.00  0.00     0.219 C
HETATM    8  O5  UNL     1     101.342  16.270  10.861  1.00  0.00    -0.284 OA
HETATM    9  C30 UNL     1      99.715  16.053   9.279  1.00  0.00     0.132 C
ENDROOT
BRANCH   3  10
HETATM   10  C10 UNL     1      96.009  17.285  11.326  1.00  0.00     0.036 C
HETATM   11  C11 UNL     1      96.050  17.721  12.776  1.00  0.00     0.016 C
HETATM   12  C12 UNL     1      94.932  16.766  13.030  1.00  0.00     0.006 C
HETATM   13  C13 UNL     1      94.887  15.956  14.257  1.00  0.00    -0.036 C
HETATM   14  C22 UNL     1      95.373  16.009  11.786  1.00  0.00    -0.006 C
HETATM   15  C14 UNL     1      96.033  16.128  15.218  1.00  0.00     0.016 C
HETATM   16  C15 UNL     1      93.627  16.380  15.029  1.00  0.00     0.012 C
HETATM   17  C19 UNL     1      94.701  14.482  13.972  1.00  0.00    -0.001 C
HETATM   18  C16 UNL     1      93.262  15.499  16.156  1.00  0.00     0.032 C
HETATM   19  C17 UNL     1      93.277  14.030  15.865  1.00  0.00     0.118 C
HETATM   20  C18 UNL     1      94.665  13.726  15.290  1.00  0.00     0.037 C
HETATM   21  C20 UNL     1      95.737  13.895  13.084  1.00  0.00     0.038 C
HETATM   22  C21 UNL     1      96.249  14.838  12.036  1.00  0.00     0.127 C
HETATM   23  C23 UNL     1      94.107  15.647  10.992  1.00  0.00     0.019 C
BRANCH  19  24
HETATM   24  O3  UNL     1      92.323  13.761  14.892  1.00  0.00    -0.396 OA
ATOM     25  H3  UNL     1      92.736  13.820  14.039  1.00  0.00     0.210 HD
ENDBRANCH  19  24
BRANCH  22  26
HETATM   26  O4  UNL     1      97.569  15.135  12.374  1.00  0.00    -0.395 OA
ATOM     27  H4  UNL     1      97.924  14.363  12.799  1.00  0.00     0.210 HD
ENDBRANCH  22  26
ENDBRANCH   3  10
BRANCH   2  28
HETATM   28  O2  UNL     1      96.182  16.790   8.697  1.00  0.00    -0.359 OA
ATOM     29  H2  UNL     1      95.548  17.463   8.914  1.00  0.00     0.217 HD
ENDBRANCH   2  28
BRANCH   1  30
HETATM   30  C6  UNL     1      98.275  15.583   7.408  1.00  0.00     0.059 C
BRANCH  30  31
HETATM   31  C5  UNL     1      97.304  14.662   6.805  1.00  0.00     0.065 C
BRANCH  31  32
HETATM   32  C4  UNL     1      96.578  15.377   5.650  1.00  0.00     0.006 C
BRANCH  32  33
HETATM   33  C3  UNL     1      95.092  15.289   5.839  1.00  0.00     0.000 C
BRANCH  33  34
HETATM   34  C2  UNL     1      94.794  14.264   6.951  1.00  0.00    -0.005 C
HETATM   35  C1  UNL     1      93.462  14.521   7.558  1.00  0.00     0.005 C
ENDBRANCH  33  34
ENDBRANCH  32  33
ENDBRANCH  31  32
ENDBRANCH  30  31
BRANCH  30  36
HETATM   36  O1  UNL     1      99.180  15.974   6.548  1.00  0.00    -0.364 OA
ATOM     37  H1  UNL     1      98.794  16.420   5.803  1.00  0.00     0.217 HD
ENDBRANCH  30  36
ENDBRANCH   1  30
BRANCH   6  38
HETATM   38  C26 UNL     1     100.581  18.832  11.620  1.00  0.00    -0.070 C
HETATM   39  C27 UNL     1     101.270  19.666  10.615  1.00  0.00     0.044 C
HETATM   40  C28 UNL     1     101.288  18.473  12.883  1.00  0.00     0.044 C
ENDBRANCH   6  38
BRANCH   9  41
HETATM   41  O6  UNL     1     100.600  15.214   8.643  1.00  0.00    -0.356 OA
ATOM     42  H6  UNL     1     101.478  15.556   8.518  1.00  0.00     0.218 HD
ENDBRANCH   9  41
TORSDOF 12
ENDMDL