MODEL 1
REMARK VINA RESULT: -8.058930440      0.000      0.000
REMARK  10 active torsions:
REMARK  status: ('A' for Active; 'I' for Inactive)
REMARK    1  A    between atoms: C4_4  and  C5_5
REMARK    2  A    between atoms: C5_5  and  C6_6
REMARK    3  A    between atoms: C6_6  and  C7_7
REMARK    4  A    between atoms: C8_8  and  C9_9
REMARK    5  A    between atoms: C9_9  and  O1_10
REMARK    6  A    between atoms: O1_10  and  C10_11
REMARK    7  A    between atoms: C10_11  and  C11_12
REMARK    8  A    between atoms: C13_15  and  O3_16
REMARK    9  A    between atoms: C16_21  and  O5_22
REMARK   10  A    between atoms: C20_27  and  O6_28
ROOT
HETATM    1  C6  UNL     1      94.214  13.525  11.777  1.00  0.00     0.006 C
HETATM    2  C15 UNL     1      95.156  12.492  12.404  1.00  0.00     0.185 C
HETATM    3  O4  UNL     1      96.056  13.152  13.292  1.00  0.00    -0.360 OA
HETATM    4  C16 UNL     1      97.100  13.645  12.459  1.00  0.00     0.265 C
HETATM    5  C17 UNL     1      96.494  14.289  11.229  1.00  0.00     0.079 C
HETATM    6  C18 UNL     1      97.285  15.485  10.813  1.00  0.00    -0.040 A
HETATM    7  C19 UNL     1      98.534  15.310  10.214  1.00  0.00     0.046 A
HETATM    8  C20 UNL     1      99.308  16.369   9.817  1.00  0.00     0.083 A
HETATM    9  C21 UNL     1      98.893  17.671   9.992  1.00  0.00     0.044 A
HETATM   10 BR1  UNL     1      99.955  19.171   9.462  1.00  0.00    -0.048 Br
HETATM   11  C22 UNL     1      97.663  17.851  10.583  1.00  0.00     0.029 A
HETATM   12  C23 UNL     1      96.854  16.778  10.996  1.00  0.00    -0.050 A
HETATM   13  C24 UNL     1      95.543  17.078  11.635  1.00  0.00     0.039 C
HETATM   14  C25 UNL     1      95.107  15.830  12.452  1.00  0.00     0.011 C
HETATM   15  C26 UNL     1      95.025  14.724  11.481  1.00  0.00     0.014 C
ENDROOT
BRANCH   1  16
HETATM   16  C5  UNL     1      93.020  13.628  12.656  1.00  0.00     0.043 C
BRANCH  16  17
HETATM   17  C4  UNL     1      92.611  12.399  13.329  1.00  0.00    -0.024 C
HETATM   18  C2  UNL     1      91.472  11.751  13.248  1.00  0.00    -0.091 C
HETATM   19  C1  UNL     1      91.326  10.487  14.060  1.00  0.00     0.042 C
HETATM   20  C3  UNL     1      90.355  12.265  12.430  1.00  0.00     0.042 C
ENDBRANCH  16  17
ENDBRANCH   1  16
BRANCH   1  21
HETATM   21  C7  UNL     1      93.715  12.983  10.476  1.00  0.00    -0.016 C
HETATM   22  C8  UNL     1      93.102  13.445   9.470  1.00  0.00    -0.004 C
BRANCH  22  23
HETATM   23  C9  UNL     1      92.577  14.763   9.090  1.00  0.00     0.195 C
BRANCH  23  24
HETATM   24  O1  UNL     1      93.209  15.215   7.920  1.00  0.00    -0.383 OA
BRANCH  24  25
HETATM   25  C10 UNL     1      94.406  15.826   8.188  1.00  0.00     0.208 C
BRANCH  25  26
HETATM   26  C11 UNL     1      95.551  15.309   7.401  1.00  0.00    -0.007 A
HETATM   27  C12 UNL     1      95.669  14.135   6.716  1.00  0.00     0.154 A
HETATM   28  O2  UNL     1      96.839  14.057   6.144  1.00  0.00    -0.300 OA
HETATM   29  C13 UNL     1      97.564  15.145   6.398  1.00  0.00     0.183 A
HETATM   30  C14 UNL     1      96.785  15.950   7.185  1.00  0.00     0.075 A
BRANCH  29  31
HETATM   31  O3  UNL     1      98.865  15.325   5.903  1.00  0.00    -0.341 OA
ATOM     32  H3  UNL     1      99.471  14.604   5.774  1.00  0.00     0.220 HD
ENDBRANCH  29  31
ENDBRANCH  25  26
ENDBRANCH  24  25
ENDBRANCH  23  24
ENDBRANCH  22  23
ENDBRANCH   1  21
BRANCH   4  33
HETATM   33  O5  UNL     1      97.949  14.441  13.178  1.00  0.00    -0.371 OA
ATOM     34  H5  UNL     1      98.851  14.259  12.945  1.00  0.00     0.212 HD
ENDBRANCH   4  33
BRANCH   8  35
HETATM   35  O6  UNL     1     100.559  16.207   9.217  1.00  0.00    -0.359 OA
ATOM     36  H6  UNL     1     101.237  15.652   9.585  1.00  0.00     0.217 HD
ENDBRANCH   8  35
TORSDOF 10
ENDMDL