MODEL 3
REMARK VINA RESULT: -9.551381364      1.101      1.677
REMARK  8 active torsions:
REMARK  status: ('A' for Active; 'I' for Inactive)
REMARK    1  A    between atoms: N1_1  and  C1_4
REMARK    2  A    between atoms: C3_10  and  N4_11
REMARK    3  A    between atoms: C4_12  and  C5_13
REMARK    4  A    between atoms: C5_13  and  C6_14
REMARK    5  A    between atoms: C6_14  and  C7_15
REMARK    6  A    between atoms: C7_15  and  C8_16
REMARK    7  A    between atoms: C8_16  and  C9_17
REMARK    8  A    between atoms: C22_39  and  C23_40
ROOT
HETATM    1  N4  UNL     1      98.363  17.080  11.018  1.00  0.00    -0.282 N
HETATM    2  C4  UNL     1      98.893  16.388  12.058  1.00  0.00     0.090 A
HETATM    3  N7  UNL     1     100.099  16.922  12.319  1.00  0.00    -0.341 N
ATOM      4  H7  UNL     1     100.731  16.604  13.053  1.00  0.00     0.167 HD
HETATM    5  C16 UNL     1     100.350  17.933  11.473  1.00  0.00     0.100 A
HETATM    6  C17 UNL     1     101.431  18.795  11.325  1.00  0.00     0.145 A
HETATM    7  F1  UNL     1     102.526  18.702  12.139  1.00  0.00    -0.204 F
HETATM    8  C18 UNL     1     101.355  19.742  10.327  1.00  0.00     0.045 A
HETATM    9  C19 UNL     1     100.243  19.827   9.510  1.00  0.00     0.005 A
HETATM   10  C20 UNL     1      99.164  18.961   9.666  1.00  0.00     0.032 A
HETATM   11  C21 UNL     1      99.247  18.023  10.657  1.00  0.00     0.072 A
ENDROOT
BRANCH   1  12
HETATM   12  C3  UNL     1      97.085  16.804  10.451  1.00  0.00     0.146 A
HETATM   13  C2  UNL     1      96.987  16.315   9.160  1.00  0.00     0.123 A
HETATM   14  N3  UNL     1      97.903  16.009   8.223  1.00  0.00    -0.293 N
HETATM   15  C29 UNL     1      95.765  16.039   8.592  1.00  0.00     0.111 A
HETATM   16  N2  UNL     1      97.285  15.568   7.131  1.00  0.00    -0.283 N
ATOM     17  H3  UNL     1      98.913  16.101   8.334  1.00  0.00     0.187 HD
HETATM   18  C1  UNL     1      95.964  15.569   7.311  1.00  0.00     0.143 A
ATOM     19  H2  UNL     1      97.756  15.270   6.277  1.00  0.00     0.188 HD
HETATM   20  N9  UNL     1      94.666  16.268   9.348  1.00  0.00    -0.337 N
HETATM   21  C22 UNL     1      94.728  16.741  10.599  1.00  0.00     0.117 A
ATOM     22  H9  UNL     1      93.749  16.071   8.946  1.00  0.00     0.167 HD
HETATM   23  N8  UNL     1      95.935  16.998  11.122  1.00  0.00    -0.325 N
ATOM     24  H8  UNL     1      95.983  17.357  12.075  1.00  0.00     0.169 HD
BRANCH  18  25
HETATM   25  N1  UNL     1      95.039  15.222   6.509  1.00  0.00    -0.383 N
ATOM     26  H12 UNL     1      95.069  15.339   5.496  1.00  0.00     0.157 HD
ATOM     27  H11 UNL     1      94.138  14.787   6.708  1.00  0.00     0.157 HD
ENDBRANCH  18  25
BRANCH  21  28
HETATM   28  C23 UNL     1      93.554  16.990  11.419  1.00  0.00     0.008 A
HETATM   29  C24 UNL     1      93.660  17.089  12.789  1.00  0.00     0.015 A
HETATM   30  C25 UNL     1      92.562  17.325  13.596  1.00  0.00     0.001 A
HETATM   31  C26 UNL     1      91.301  17.474  13.049  1.00  0.00     0.000 A
HETATM   32  C27 UNL     1      91.200  17.376  11.681  1.00  0.00     0.001 A
HETATM   33  C28 UNL     1      92.291  17.140  10.874  1.00  0.00     0.015 A
ENDBRANCH  21  28
ENDBRANCH   1  12
BRANCH   2  34
HETATM   34  C5  UNL     1      98.249  15.240  12.780  1.00  0.00     0.077 C
BRANCH  34  35
HETATM   35  C6  UNL     1      98.615  13.913  12.153  1.00  0.00     0.008 C
BRANCH  35  36
HETATM   36  C7  UNL     1      97.525  12.917  12.173  1.00  0.00     0.008 C
BRANCH  36  37
HETATM   37  C8  UNL     1      96.455  13.069  13.174  1.00  0.00     0.076 C
BRANCH  37  38
HETATM   38  C9  UNL     1      95.082  13.231  12.650  1.00  0.00     0.082 A
HETATM   39  N5  UNL     1      94.739  13.190  11.343  1.00  0.00    -0.344 N
HETATM   40  C10 UNL     1      93.423  13.342  11.205  1.00  0.00     0.060 A
ATOM     41  H5  UNL     1      95.395  13.062  10.572  1.00  0.00     0.167 HD
HETATM   42  C11 UNL     1      92.576  13.375  10.126  1.00  0.00     0.032 A
HETATM   43  C15 UNL     1      92.885  13.484  12.447  1.00  0.00     0.060 A
HETATM   44  C12 UNL     1      91.211  13.552  10.296  1.00  0.00     0.002 A
HETATM   45  C13 UNL     1      90.692  13.694  11.566  1.00  0.00     0.002 A
HETATM   46  C14 UNL     1      91.545  13.658  12.637  1.00  0.00     0.032 A
HETATM   47  N6  UNL     1      93.930  13.412  13.306  1.00  0.00    -0.344 N
ATOM     48  H6  UNL     1      93.849  13.485  14.320  1.00  0.00     0.167 HD
ENDBRANCH  37  38
ENDBRANCH  36  37
ENDBRANCH  35  36
ENDBRANCH  34  35
ENDBRANCH   2  34
TORSDOF 8
ENDMDL