MODEL 1
REMARK VINA RESULT: -9.076978959      0.000      0.000
REMARK  8 active torsions:
REMARK  status: ('A' for Active; 'I' for Inactive)
REMARK    1  A    between atoms: O1_2  and  C2_3
REMARK    2  A    between atoms: C4_5  and  C5_6
REMARK    3  A    between atoms: C15_17  and  O3_18
REMARK    4  A    between atoms: C17_20  and  O4_21
REMARK    5  A    between atoms: C19_23  and  O5_24
REMARK    6  A    between atoms: C22_27  and  O6_28
REMARK    7  A    between atoms: O6_28  and  N1_29
REMARK    8  A    between atoms: C23_33  and  C24_34
ROOT
HETATM    1  C5  UNL     1     -87.313 -16.394  11.911  1.00  0.00     0.113 C
HETATM    2  C6  UNL     1     -86.853 -16.557  10.547  1.00  0.00    -0.034 C
HETATM    3  C7  UNL     1     -85.631 -15.951  10.348  1.00  0.00     0.013 C
HETATM    4  C8  UNL     1     -84.871 -15.816   9.179  1.00  0.00     0.055 C
HETATM    5  C9  UNL     1     -85.209 -16.285   7.930  1.00  0.00     0.172 C
HETATM    6  O2  UNL     1     -84.524 -15.830   6.983  1.00  0.00    -0.289 OA
HETATM    7  C10 UNL     1     -86.214 -17.201   7.573  1.00  0.00     0.055 C
HETATM    8  C11 UNL     1     -87.162 -17.786   8.387  1.00  0.00     0.017 C
HETATM    9  C12 UNL     1     -87.592 -17.247   9.587  1.00  0.00    -0.018 C
HETATM   10  C13 UNL     1     -88.993 -17.501   9.845  1.00  0.00    -0.011 A
HETATM   11  C14 UNL     1     -89.708 -18.228   8.925  1.00  0.00     0.052 A
HETATM   12  C15 UNL     1     -91.039 -18.525   9.207  1.00  0.00     0.105 A
HETATM   13  C17 UNL     1     -91.642 -18.114  10.362  1.00  0.00     0.135 A
HETATM   14  C19 UNL     1     -90.887 -17.371  11.282  1.00  0.00     0.114 A
HETATM   15  C21 UNL     1     -89.574 -17.052  11.050  1.00  0.00     0.022 A
HETATM   16  C22 UNL     1     -88.830 -16.263  12.009  1.00  0.00     0.203 C
ENDROOT
BRANCH   1  17
HETATM   17  C4  UNL     1     -86.780 -17.475  12.777  1.00  0.00     0.068 A
HETATM   18  C3  UNL     1     -85.483 -17.578  13.238  1.00  0.00     0.073 A
HETATM   19  C2  UNL     1     -85.403 -18.748  14.015  1.00  0.00     0.105 A
HETATM   20  C23 UNL     1     -86.655 -19.297  13.987  1.00  0.00     0.119 A
HETATM   21  O7  UNL     1     -87.414 -18.505  13.247  1.00  0.00    -0.310 OA
BRANCH  19  22
HETATM   22  O1  UNL     1     -84.279 -19.205  14.647  1.00  0.00    -0.353 OA
HETATM   23  C1  UNL     1     -83.311 -20.032  14.013  1.00  0.00     0.210 C
ENDBRANCH  19  22
BRANCH  20  24
HETATM   24  C24 UNL     1     -87.127 -20.509  14.623  1.00  0.00     0.001 A
HETATM   25  C25 UNL     1     -88.166 -20.373  15.558  1.00  0.00     0.017 A
HETATM   26  C26 UNL     1     -88.657 -21.490  16.195  1.00  0.00     0.043 A
HETATM   27  C27 UNL     1     -88.132 -22.731  15.913  1.00  0.00     0.116 A
HETATM   28  F1  UNL     1     -88.616 -23.821  16.538  1.00  0.00    -0.206 F
HETATM   29  C28 UNL     1     -87.115 -22.859  14.997  1.00  0.00     0.043 A
HETATM   30  C29 UNL     1     -86.599 -21.735  14.337  1.00  0.00     0.017 A
ENDBRANCH  20  24
ENDBRANCH   1  17
BRANCH  16  31
HETATM   31  O6  UNL     1     -89.138 -14.882  11.948  1.00  0.00    -0.276 OA
BRANCH  31  32
HETATM   32  N1  UNL     1     -89.159 -14.337  13.210  1.00  0.00    -0.310 N
ATOM     33  H12 UNL     1     -89.401 -14.859  14.051  1.00  0.00     0.184 HD
ATOM     34  H11 UNL     1     -88.901 -13.351  13.178  1.00  0.00     0.184 HD
ENDBRANCH  31  32
ENDBRANCH  16  31
BRANCH  14  35
HETATM   35  O5  UNL     1     -91.566 -16.997  12.420  1.00  0.00    -0.352 OA
HETATM   36  C20 UNL     1     -91.180 -17.484  13.681  1.00  0.00     0.210 C
ENDBRANCH  14  35
BRANCH  13  37
HETATM   37  O4  UNL     1     -92.973 -18.434  10.606  1.00  0.00    -0.351 OA
HETATM   38  C18 UNL     1     -93.390 -19.581  11.278  1.00  0.00     0.210 C
ENDBRANCH  13  37
BRANCH  12  39
HETATM   39  O3  UNL     1     -91.792 -19.257   8.303  1.00  0.00    -0.353 OA
HETATM   40  C16 UNL     1     -91.636 -20.662   8.244  1.00  0.00     0.210 C
ENDBRANCH  12  39
TORSDOF 8
ENDMDL