MODEL 4
REMARK VINA RESULT: -9.775995928      2.664      6.516
REMARK  6 active torsions:
REMARK  status: ('A' for Active; 'I' for Inactive)
REMARK    1  A    between atoms: O1_2  and  C2_3
REMARK    2  A    between atoms: C5_6  and  C6_7
REMARK    3  A    between atoms: C8_13  and  S1_14
REMARK    4  A    between atoms: C10_23  and  C11_24
REMARK    5  A    between atoms: C14_27  and  O5_28
REMARK    6  A    between atoms: O5_28  and  C15_29
ROOT
HETATM    1  C11 UNL     1     -86.948 -16.862   9.005  1.00  0.00    -0.020 A
HETATM    2  C12 UNL     1     -87.501 -17.789   9.848  1.00  0.00     0.015 A
HETATM    3  C13 UNL     1     -88.688 -18.407   9.533  1.00  0.00     0.040 A
HETATM    4  C14 UNL     1     -89.390 -18.127   8.351  1.00  0.00     0.097 A
HETATM    5  C21 UNL     1     -88.841 -17.196   7.501  1.00  0.00     0.079 A
HETATM    6  C22 UNL     1     -89.491 -16.838   6.271  1.00  0.00     0.102 C
HETATM    7  N5  UNL     1     -90.000 -16.532   5.290  1.00  0.00    -0.191 NA
HETATM    8  C23 UNL     1     -87.631 -16.581   7.844  1.00  0.00     0.038 A
ENDROOT
BRANCH   4   9
HETATM    9  O5  UNL     1     -90.546 -18.797   8.155  1.00  0.00    -0.306 OA
BRANCH   9  10
HETATM   10  C15 UNL     1     -91.591 -19.073   8.967  1.00  0.00     0.114 A
HETATM   11  C16 UNL     1     -91.833 -20.368   9.364  1.00  0.00     0.040 A
HETATM   12  C17 UNL     1     -92.879 -20.704  10.189  1.00  0.00     0.003 A
HETATM   13  C18 UNL     1     -93.722 -19.713  10.640  1.00  0.00     0.003 A
HETATM   14  C19 UNL     1     -93.486 -18.416  10.248  1.00  0.00     0.045 A
HETATM   15  C20 UNL     1     -92.438 -18.085   9.423  1.00  0.00     0.150 A
HETATM   16  F1  UNL     1     -92.247 -16.770   9.062  1.00  0.00    -0.203 F
ENDBRANCH   9  10
ENDBRANCH   4   9
BRANCH   1  17
HETATM   17  C10 UNL     1     -85.689 -16.178   9.292  1.00  0.00     0.034 A
HETATM   18  C6  UNL     1     -85.318 -15.594  10.477  1.00  0.00     0.057 A
HETATM   19  N1  UNL     1     -84.084 -15.072  10.334  1.00  0.00    -0.339 N
HETATM   20  C7  UNL     1     -83.616 -15.290   9.091  1.00  0.00     0.137 A
ATOM     21  H1  UNL     1     -83.574 -14.579  11.067  1.00  0.00     0.167 HD
HETATM   22  N2  UNL     1     -82.454 -14.973   8.457  1.00  0.00    -0.314 N
HETATM   23  C9  UNL     1     -84.618 -15.982   8.436  1.00  0.00     0.105 A
HETATM   24  C8  UNL     1     -82.288 -15.344   7.174  1.00  0.00     0.241 A
ATOM     25  H2  UNL     1     -81.719 -14.463   8.946  1.00  0.00     0.170 HD
HETATM   26  N3  UNL     1     -83.263 -16.016   6.541  1.00  0.00    -0.273 N
HETATM   27  N4  UNL     1     -84.390 -16.324   7.157  1.00  0.00    -0.294 N
ATOM     28  H3  UNL     1     -83.131 -16.294   5.569  1.00  0.00     0.189 HD
ATOM     29  H4  UNL     1     -85.109 -16.836   6.646  1.00  0.00     0.187 HD
BRANCH  18  30
HETATM   30  C5  UNL     1     -86.084 -15.523  11.692  1.00  0.00    -0.008 A
HETATM   31  C4  UNL     1     -87.111 -14.628  11.832  1.00  0.00     0.016 A
HETATM   32  C3  UNL     1     -87.864 -14.538  12.993  1.00  0.00     0.037 A
HETATM   33  C2  UNL     1     -87.582 -15.373  14.046  1.00  0.00     0.068 A
HETATM   34  C25 UNL     1     -86.557 -16.279  13.928  1.00  0.00     0.037 A
HETATM   35  C24 UNL     1     -85.806 -16.354  12.748  1.00  0.00     0.016 A
BRANCH  33  36
HETATM   36  O1  UNL     1     -88.310 -15.325  15.239  1.00  0.00    -0.356 OA
HETATM   37  C1  UNL     1     -87.998 -16.175  16.301  1.00  0.00     0.210 C
ENDBRANCH  33  36
ENDBRANCH  18  30
BRANCH  24  38
HETATM   38  S1  UNL     1     -80.836 -14.987   6.271  1.00  0.00     0.173 S
HETATM   39  O2  UNL     1     -80.339 -16.228   5.574  1.00  0.00    -0.589 OA
HETATM   40  O3  UNL     1     -81.087 -13.910   5.252  1.00  0.00    -0.589 OA
HETATM   41  O4  UNL     1     -79.649 -14.520   7.358  1.00  0.00    -0.589 OA
ENDBRANCH  24  38
ENDBRANCH   1  17
TORSDOF 6
ENDMDL