MODEL 3
REMARK VINA RESULT: -9.771009472      2.731      8.151
REMARK  6 active torsions:
REMARK  status: ('A' for Active; 'I' for Inactive)
REMARK    1  A    between atoms: C10_15  and  O2_16
REMARK    2  A    between atoms: N3_18  and  C11_19
REMARK    3  A    between atoms: C16_24  and  O3_25
REMARK    4  A    between atoms: O3_25  and  C17_26
REMARK    5  A    between atoms: N4_35  and  C24_36
REMARK    6  A    between atoms: C24_36  and  C25_37
ROOT
HETATM    1  O1  UNL     1     -86.098 -17.178  14.104  1.00  0.00    -0.267 OA
HETATM    2  C1  UNL     1     -87.064 -17.243  13.301  1.00  0.00     0.270 A
HETATM    3  C2  UNL     1     -87.738 -18.478  13.270  1.00  0.00     0.128 A
HETATM    4  C3  UNL     1     -87.314 -19.569  14.116  1.00  0.00     0.126 A
HETATM    5  N1  UNL     1     -86.259 -19.484  14.981  1.00  0.00    -0.340 N
ATOM      6  H1  UNL     1     -85.683 -18.653  15.107  1.00  0.00     0.167 HD
HETATM    7  C4  UNL     1     -86.084 -20.620  15.633  1.00  0.00     0.060 A
HETATM    8  C5  UNL     1     -85.209 -21.103  16.596  1.00  0.00     0.032 A
HETATM    9  C6  UNL     1     -85.315 -22.405  17.080  1.00  0.00     0.002 A
HETATM   10  C7  UNL     1     -86.298 -23.248  16.611  1.00  0.00     0.002 A
HETATM   11  C8  UNL     1     -87.171 -22.775  15.656  1.00  0.00     0.032 A
HETATM   12  C9  UNL     1     -87.049 -21.484  15.189  1.00  0.00     0.060 A
HETATM   13  N2  UNL     1     -87.774 -20.795  14.263  1.00  0.00    -0.340 N
ATOM     14  H2  UNL     1     -88.570 -21.178  13.752  1.00  0.00     0.167 HD
HETATM   15  C10 UNL     1     -88.793 -18.541  12.395  1.00  0.00     0.171 A
HETATM   16  N3  UNL     1     -89.156 -17.492  11.621  1.00  0.00    -0.240 N
HETATM   17  C23 UNL     1     -88.454 -16.354  11.719  1.00  0.00     0.338 A
HETATM   18  O4  UNL     1     -88.805 -15.405  11.002  1.00  0.00    -0.246 OA
HETATM   19  N4  UNL     1     -87.398 -16.187  12.548  1.00  0.00    -0.261 N
ENDROOT
BRANCH  16  20
HETATM   20  C11 UNL     1     -90.266 -17.667  10.749  1.00  0.00     0.080 A
HETATM   21  C12 UNL     1     -91.558 -17.365  11.128  1.00  0.00     0.033 A
HETATM   22  C13 UNL     1     -92.655 -17.518  10.323  1.00  0.00     0.002 A
HETATM   23  C14 UNL     1     -92.476 -18.004   9.046  1.00  0.00     0.003 A
HETATM   24  C15 UNL     1     -91.186 -18.325   8.616  1.00  0.00     0.039 A
HETATM   25  C16 UNL     1     -90.106 -18.157   9.456  1.00  0.00     0.103 A
BRANCH  25  26
HETATM   26  O3  UNL     1     -88.827 -18.477   9.023  1.00  0.00    -0.308 OA
BRANCH  26  27
HETATM   27  C17 UNL     1     -88.115 -17.722   8.126  1.00  0.00     0.076 A
HETATM   28  C18 UNL     1     -86.771 -17.516   8.301  1.00  0.00     0.040 A
HETATM   29  C19 UNL     1     -86.022 -16.755   7.406  1.00  0.00     0.045 A
HETATM   30  C20 UNL     1     -86.679 -16.204   6.317  1.00  0.00     0.116 A
HETATM   31  F1  UNL     1     -85.926 -15.461   5.453  1.00  0.00    -0.206 F
HETATM   32  C21 UNL     1     -88.033 -16.395   6.115  1.00  0.00     0.045 A
HETATM   33  C22 UNL     1     -88.743 -17.168   7.041  1.00  0.00     0.040 A
ENDBRANCH  26  27
ENDBRANCH  25  26
ENDBRANCH  16  20
BRANCH  15  34
HETATM   34  O2  UNL     1     -89.512 -19.693  12.287  1.00  0.00    -0.345 OA
ATOM     35  H2  UNL     1     -90.143 -19.918  12.962  1.00  0.00     0.219 HD
ENDBRANCH  15  34
BRANCH  19  36
HETATM   36  C24 UNL     1     -86.666 -14.945  12.628  1.00  0.00     0.175 C
BRANCH  36  37
HETATM   37  C25 UNL     1     -85.376 -14.921  11.907  1.00  0.00    -0.040 A
HETATM   38  C26 UNL     1     -85.320 -14.913  10.530  1.00  0.00     0.009 A
HETATM   39  C27 UNL     1     -84.111 -14.893   9.831  1.00  0.00     0.001 A
HETATM   40  C28 UNL     1     -82.912 -14.881  10.502  1.00  0.00     0.000 A
HETATM   41  C29 UNL     1     -82.946 -14.889  11.875  1.00  0.00     0.001 A
HETATM   42  C30 UNL     1     -84.159 -14.909  12.566  1.00  0.00     0.009 A
ENDBRANCH  36  37
ENDBRANCH  19  36
TORSDOF 6
ENDMDL