MODEL 5
REMARK VINA RESULT: -9.864538246      7.202      8.716
REMARK  8 active torsions:
REMARK  status: ('A' for Active; 'I' for Inactive)
REMARK    1  A    between atoms: C8_11  and  O2_12
REMARK    2  A    between atoms: N2_14  and  C9_15
REMARK    3  A    between atoms: C12_18  and  C13_19
REMARK    4  A    between atoms: C13_19  and  O3_20
REMARK    5  A    between atoms: C13_19  and  C14_22
REMARK    6  A    between atoms: N5_27  and  C15_28
REMARK    7  A    between atoms: C15_28  and  C16_29
REMARK    8  A    between atoms: C22_36  and  C23_37
ROOT
HETATM    1  C13 UNL     1     -87.500 -16.106  15.785  1.00  0.00     0.205 C
ENDROOT
BRANCH   1   2
HETATM    2  C12 UNL     1     -87.584 -17.610  15.922  1.00  0.00    -0.024 A
HETATM    3  C11 UNL     1     -87.473 -18.257  17.127  1.00  0.00     0.012 A
HETATM    4  C10 UNL     1     -87.553 -19.635  17.247  1.00  0.00     0.031 A
HETATM    5  C9  UNL     1     -87.752 -20.399  16.119  1.00  0.00     0.046 A
HETATM    6  C30 UNL     1     -87.868 -19.781  14.892  1.00  0.00     0.031 A
HETATM    7  C29 UNL     1     -87.783 -18.406  14.812  1.00  0.00     0.012 A
BRANCH   5   8
HETATM    8  N2  UNL     1     -87.841 -21.804  16.189  1.00  0.00    -0.243 N
HETATM    9  C1  UNL     1     -89.052 -22.358  16.361  1.00  0.00     0.268 A
HETATM   10  O1  UNL     1     -90.115 -21.657  16.464  1.00  0.00    -0.267 OA
HETATM   11  C2  UNL     1     -89.177 -23.723  16.430  1.00  0.00     0.059 A
HETATM   12  C3  UNL     1     -90.405 -24.342  16.606  1.00  0.00     0.019 A
HETATM   13  C7  UNL     1     -88.021 -24.474  16.317  1.00  0.00     0.051 A
HETATM   14  C4  UNL     1     -90.522 -25.722  16.674  1.00  0.00     0.001 A
HETATM   15  C5  UNL     1     -89.370 -26.475  16.562  1.00  0.00     0.002 A
HETATM   16  C6  UNL     1     -88.152 -25.844  16.387  1.00  0.00     0.030 A
HETATM   17  N1  UNL     1     -86.827 -23.879  16.145  1.00  0.00    -0.321 N
HETATM   18  C8  UNL     1     -86.722 -22.540  16.080  1.00  0.00     0.231 A
ATOM     19  H1  UNL     1     -85.987 -24.453  16.064  1.00  0.00     0.169 HD
BRANCH  18  20
HETATM   20  O2  UNL     1     -85.464 -21.926  15.901  1.00  0.00    -0.332 OA
ATOM     21  H2  UNL     1     -85.152 -21.708  15.030  1.00  0.00     0.221 HD
ENDBRANCH  18  20
ENDBRANCH   5   8
ENDBRANCH   1   2
BRANCH   1  22
HETATM   22  O3  UNL     1     -88.588 -15.592  16.565  1.00  0.00    -0.385 OA
ATOM     23  H3  UNL     1     -88.182 -15.144  17.297  1.00  0.00     0.211 HD
ENDBRANCH   1  22
BRANCH   1  24
HETATM   24  C14 UNL     1     -86.233 -15.596  16.280  1.00  0.00     0.089 A
HETATM   25  N3  UNL     1     -86.116 -14.654  17.278  1.00  0.00    -0.285 N
HETATM   26  N4  UNL     1     -84.859 -14.462  17.545  1.00  0.00    -0.239 N
ATOM     27  H3  UNL     1     -86.895 -14.180  17.737  1.00  0.00     0.188 HD
HETATM   28  N5  UNL     1     -84.090 -15.256  16.745  1.00  0.00    -0.271 N
ATOM     29  H4  UNL     1     -84.500 -13.815  18.247  1.00  0.00     0.208 HD
HETATM   30  C22 UNL     1     -84.942 -15.950  15.971  1.00  0.00     0.089 A
BRANCH  28  31
HETATM   31  C15 UNL     1     -82.663 -15.153  16.814  1.00  0.00     0.189 C
BRANCH  31  32
HETATM   32  C16 UNL     1     -82.257 -14.505  15.502  1.00  0.00    -0.038 A
HETATM   33  C17 UNL     1     -81.430 -15.126  14.608  1.00  0.00     0.012 A
HETATM   34  C18 UNL     1     -81.073 -14.506  13.401  1.00  0.00     0.043 A
HETATM   35  C19 UNL     1     -81.559 -13.253  13.103  1.00  0.00     0.116 A
HETATM   36  F1  UNL     1     -81.234 -12.630  11.948  1.00  0.00    -0.206 F
HETATM   37  C20 UNL     1     -82.393 -12.638  14.017  1.00  0.00     0.043 A
HETATM   38  C21 UNL     1     -82.741 -13.257  15.209  1.00  0.00     0.012 A
ENDBRANCH  31  32
ENDBRANCH  28  31
BRANCH  30  39
HETATM   39  C23 UNL     1     -84.531 -16.826  14.855  1.00  0.00    -0.006 A
HETATM   40  C24 UNL     1     -84.691 -16.474  13.527  1.00  0.00     0.014 A
HETATM   41  C25 UNL     1     -84.425 -17.344  12.503  1.00  0.00     0.001 A
HETATM   42  C26 UNL     1     -83.977 -18.633  12.765  1.00  0.00     0.000 A
HETATM   43  C27 UNL     1     -83.819 -18.980  14.077  1.00  0.00     0.001 A
HETATM   44  C28 UNL     1     -84.085 -18.113  15.140  1.00  0.00     0.014 A
ENDBRANCH  30  39
ENDBRANCH   1  24
TORSDOF 8
ENDMDL