MODEL 5
REMARK VINA RESULT: -8.066373574      3.674     10.728
REMARK  12 active torsions:
REMARK  status: ('A' for Active; 'I' for Inactive)
REMARK    1  A    between atoms: C2_2  and  C3_3
REMARK    2  A    between atoms: C3_3  and  C4_4
REMARK    3  A    between atoms: C4_4  and  O2_6
REMARK    4  A    between atoms: O2_6  and  C5_7
REMARK    5  A    between atoms: C6_8  and  O3_9
REMARK    6  A    between atoms: C8_12  and  C9_13
REMARK    7  A    between atoms: C10_14  and  C11_15
REMARK    8  A    between atoms: C13_17  and  O4_18
REMARK    9  A    between atoms: O4_18  and  C14_19
REMARK   10  A    between atoms: C14_19  and  C15_21
REMARK   11  A    between atoms: C16_24  and  O8_25
REMARK   12  A    between atoms: C17_27  and  C18_28
ROOT
HETATM    1  C11 UNL     1     -88.585 -16.972  10.317  1.00  0.00    -0.033 A
HETATM    2  C12 UNL     1     -88.766 -16.448  11.573  1.00  0.00     0.051 A
HETATM    3  C13 UNL     1     -89.922 -16.678  12.290  1.00  0.00     0.114 A
HETATM    4  C16 UNL     1     -90.901 -17.468  11.681  1.00  0.00     0.106 A
HETATM    5  C17 UNL     1     -90.763 -18.013  10.427  1.00  0.00    -0.014 A
HETATM    6  C22 UNL     1     -89.589 -17.756   9.746  1.00  0.00     0.022 A
ENDROOT
BRANCH   1   7
HETATM    7  C10 UNL     1     -87.364 -16.730   9.555  1.00  0.00     0.012 C
HETATM    8  C9  UNL     1     -87.279 -16.836   8.260  1.00  0.00     0.012 C
BRANCH   8   9
HETATM    9  C8  UNL     1     -86.027 -16.581   7.547  1.00  0.00    -0.032 A
HETATM   10  C7  UNL     1     -86.064 -16.310   6.168  1.00  0.00     0.051 A
HETATM   11  C6  UNL     1     -84.917 -16.069   5.460  1.00  0.00     0.101 A
HETATM   12  C5  UNL     1     -83.694 -16.085   6.089  1.00  0.00     0.129 A
HETATM   13  C24 UNL     1     -83.638 -16.344   7.424  1.00  0.00     0.048 A
HETATM   14  C23 UNL     1     -84.791 -16.587   8.134  1.00  0.00     0.033 A
HETATM   15 BR1  UNL     1     -81.928 -16.370   8.321  1.00  0.00    -0.048 Br
BRANCH  11  16
HETATM   16  O3  UNL     1     -85.019 -15.809   4.102  1.00  0.00    -0.358 OA
ATOM     17  H3  UNL     1     -84.602 -16.374   3.463  1.00  0.00     0.217 HD
ENDBRANCH  11  16
BRANCH  12  18
HETATM   18  O2  UNL     1     -82.538 -15.834   5.340  1.00  0.00    -0.274 OA
BRANCH  18  19
HETATM   19  C4  UNL     1     -81.909 -16.814   4.601  1.00  0.00     0.267 C
HETATM   20  O1  UNL     1     -82.425 -17.143   3.501  1.00  0.00    -0.265 OA
BRANCH  19  21
HETATM   21  C3  UNL     1     -80.664 -17.512   5.010  1.00  0.00     0.138 C
BRANCH  21  22
HETATM   22  C2  UNL     1     -79.910 -18.013   3.815  1.00  0.00    -0.027 C
HETATM   23  C1  UNL     1     -79.089 -19.041   3.937  1.00  0.00     0.007 C
ENDBRANCH  21  22
ENDBRANCH  19  21
ENDBRANCH  18  19
ENDBRANCH  12  18
ENDBRANCH   8   9
ENDBRANCH   1   7
BRANCH   3  24
HETATM   24  O4  UNL     1     -90.103 -16.145  13.564  1.00  0.00    -0.267 OA
BRANCH  24  25
HETATM   25  C14 UNL     1     -89.478 -16.692  14.683  1.00  0.00     0.365 C
HETATM   26  O5  UNL     1     -88.445 -16.101  15.084  1.00  0.00    -0.252 OA
BRANCH  25  27
HETATM   27  C15 UNL     1     -89.970 -17.873  15.363  1.00  0.00     0.278 C
HETATM   28  O6  UNL     1     -91.153 -18.277  15.289  1.00  0.00    -0.640 OA
HETATM   29  O7  UNL     1     -89.097 -18.613  16.148  1.00  0.00    -0.640 OA
ENDBRANCH  25  27
ENDBRANCH  24  25
ENDBRANCH   3  24
BRANCH   5  30
HETATM   30  C18 UNL     1     -91.838 -18.851   9.783  1.00  0.00    -0.021 C
HETATM   31  C19 UNL     1     -93.126 -18.112   9.622  1.00  0.00     0.019 C
HETATM   32  C20 UNL     1     -92.033 -20.139  10.557  1.00  0.00     0.019 C
HETATM   33  C21 UNL     1     -91.331 -19.237   8.410  1.00  0.00     0.019 C
ENDBRANCH   5  30
BRANCH   4  34
HETATM   34  O8  UNL     1     -92.032 -17.681  12.410  1.00  0.00    -0.357 OA
ATOM     35  H8  UNL     1     -92.435 -18.536  12.310  1.00  0.00     0.217 HD
ENDBRANCH   4  34
TORSDOF 12
ENDMDL