MODEL 3
REMARK VINA RESULT: -9.496736285      4.631      8.045
REMARK  6 active torsions:
REMARK  status: ('A' for Active; 'I' for Inactive)
REMARK    1  A    between atoms: O1_2  and  C2_3
REMARK    2  A    between atoms: C5_8  and  C6_9
REMARK    3  A    between atoms: C6_9  and  N2_11
REMARK    4  A    between atoms: N2_11  and  C8_13
REMARK    5  A    between atoms: C9_16  and  C10_17
REMARK    6  A    between atoms: C25_45  and  O2_46
ROOT
HETATM    1  C8  UNL     1     -86.284 -16.497  13.381  1.00  0.00     0.119 A
HETATM    2  N3  UNL     1     -85.271 -15.966  14.085  1.00  0.00    -0.327 N
ATOM      3  H3  UNL     1     -84.369 -16.443  14.066  1.00  0.00     0.169 HD
HETATM    4  C9  UNL     1     -85.379 -14.836  14.816  1.00  0.00     0.121 A
HETATM    5  N6  UNL     1     -86.565 -14.222  14.831  1.00  0.00    -0.326 N
ATOM      6  H6  UNL     1     -86.664 -13.367  15.378  1.00  0.00     0.169 HD
HETATM    7  C14 UNL     1     -87.651 -14.688  14.148  1.00  0.00     0.138 A
HETATM    8  N7  UNL     1     -88.908 -14.244  14.007  1.00  0.00    -0.284 N
ATOM      9  H7  UNL     1     -89.298 -13.406  14.439  1.00  0.00     0.188 HD
HETATM   10  N8  UNL     1     -89.547 -15.071  13.220  1.00  0.00    -0.297 N
ATOM     11  H8  UNL     1     -90.524 -14.969  12.944  1.00  0.00     0.187 HD
HETATM   12  C15 UNL     1     -88.725 -16.094  12.816  1.00  0.00     0.076 A
HETATM   13  C16 UNL     1     -89.130 -17.152  11.922  1.00  0.00    -0.007 A
HETATM   14  C17 UNL     1     -89.627 -16.825  10.683  1.00  0.00     0.017 A
HETATM   15  C18 UNL     1     -90.083 -17.804   9.805  1.00  0.00     0.043 A
HETATM   16  C19 UNL     1     -90.041 -19.130  10.173  1.00  0.00     0.116 A
HETATM   17  F1  UNL     1     -90.486 -20.110   9.317  1.00  0.00    -0.206 F
HETATM   18  C20 UNL     1     -89.543 -19.457  11.412  1.00  0.00     0.043 A
HETATM   19  C21 UNL     1     -89.091 -18.460  12.279  1.00  0.00     0.017 A
HETATM   20  C22 UNL     1     -87.504 -15.840  13.416  1.00  0.00     0.082 A
ENDROOT
BRANCH   1  21
HETATM   21  N2  UNL     1     -86.107 -17.578  12.669  1.00  0.00    -0.364 N
ATOM     22  H2  UNL     1     -86.791 -18.334  12.700  1.00  0.00     0.162 HD
BRANCH  21  23
HETATM   23  C6  UNL     1     -84.934 -17.689  11.840  1.00  0.00     0.147 C
HETATM   24  C7  UNL     1     -84.307 -19.063  11.938  1.00  0.00     0.040 C
BRANCH  23  25
HETATM   25  C5  UNL     1     -85.161 -17.338  10.436  1.00  0.00     0.105 A
HETATM   26  N1  UNL     1     -86.365 -17.346   9.828  1.00  0.00    -0.342 N
HETATM   27  C4  UNL     1     -86.261 -16.981   8.552  1.00  0.00     0.063 A
ATOM     28  H1  UNL     1     -87.240 -17.598  10.285  1.00  0.00     0.167 HD
HETATM   29  C3  UNL     1     -87.229 -16.851   7.565  1.00  0.00     0.071 A
HETATM   30  C23 UNL     1     -84.936 -16.729   8.329  1.00  0.00     0.063 A
HETATM   31  C2  UNL     1     -86.860 -16.452   6.299  1.00  0.00     0.103 A
HETATM   32  C25 UNL     1     -85.530 -16.190   6.049  1.00  0.00     0.103 A
HETATM   33  C24 UNL     1     -84.570 -16.327   7.054  1.00  0.00     0.071 A
HETATM   34  N9  UNL     1     -84.293 -16.951   9.482  1.00  0.00    -0.342 N
ATOM     35  H9  UNL     1     -83.288 -16.844   9.618  1.00  0.00     0.167 HD
BRANCH  31  36
HETATM   36  O1  UNL     1     -87.832 -16.323   5.315  1.00  0.00    -0.353 OA
HETATM   37  C1  UNL     1     -89.205 -16.506   5.570  1.00  0.00     0.210 C
ENDBRANCH  31  36
BRANCH  32  38
HETATM   38  O2  UNL     1     -85.197 -15.792   4.766  1.00  0.00    -0.353 OA
HETATM   39  C26 UNL     1     -83.876 -15.882   4.262  1.00  0.00     0.210 C
ENDBRANCH  32  38
ENDBRANCH  23  25
ENDBRANCH  21  23
ENDBRANCH   1  21
BRANCH   4  40
HETATM   40  C10 UNL     1     -84.264 -14.294  15.562  1.00  0.00     0.039 A
HETATM   41  C11 UNL     1     -83.293 -13.484  15.053  1.00  0.00     0.105 A
HETATM   42  N4  UNL     1     -82.271 -13.017  15.838  1.00  0.00    -0.361 N
HETATM   43  C12 UNL     1     -82.196 -13.346  17.135  1.00  0.00     0.180 A
ATOM     44  H4  UNL     1     -81.558 -12.412  15.430  1.00  0.00     0.166 HD
HETATM   45  N5  UNL     1     -83.142 -14.142  17.650  1.00  0.00    -0.361 N
HETATM   46  C13 UNL     1     -84.159 -14.620  16.918  1.00  0.00     0.105 A
ATOM     47  H5  UNL     1     -83.086 -14.393  18.637  1.00  0.00     0.166 HD
ENDBRANCH   4  40
TORSDOF 6
ENDMDL