MODEL 4
REMARK VINA RESULT: -9.858099711      3.545      6.178
REMARK  8 active torsions:
REMARK  status: ('A' for Active; 'I' for Inactive)
REMARK    1  A    between atoms: O1_2  and  C2_3
REMARK    2  A    between atoms: C2_3  and  N1_4
REMARK    3  A    between atoms: N1_4  and  C4_6
REMARK    4  A    between atoms: C4_6  and  O2_7
REMARK    5  A    between atoms: C4_6  and  C5_9
REMARK    6  A    between atoms: C10_14  and  C11_15
REMARK    7  A    between atoms: C12_18  and  N3_19
REMARK    8  A    between atoms: C22_33  and  C23_34
ROOT
HETATM    1  C11 UNL     1     -86.368 -17.909  13.045  1.00  0.00     0.090 A
HETATM    2  N2  UNL     1     -87.601 -17.715  12.567  1.00  0.00    -0.188 N
ATOM      3  H2  UNL     1     -87.794 -16.848  12.063  1.00  0.00     0.184 HD
HETATM    4  C12 UNL     1     -88.609 -18.611  12.715  1.00  0.00     0.691 A
HETATM    5  N5  UNL     1     -88.287 -19.724  13.384  1.00  0.00    -0.186 N
ATOM      6  H5  UNL     1     -89.020 -20.421  13.517  1.00  0.00     0.184 HD
HETATM    7  C21 UNL     1     -87.076 -19.995  13.895  1.00  0.00     0.108 A
HETATM    8  C22 UNL     1     -86.502 -21.032  14.582  1.00  0.00     0.088 A
HETATM    9  N6  UNL     1     -85.213 -20.716  14.805  1.00  0.00    -0.297 N
ATOM     10  H6  UNL     1     -84.546 -21.310  15.298  1.00  0.00     0.187 HD
HETATM   11  N7  UNL     1     -84.933 -19.534  14.299  1.00  0.00    -0.296 N
ATOM     12  H7  UNL     1     -84.028 -19.064  14.333  1.00  0.00     0.187 HD
HETATM   13  C29 UNL     1     -86.056 -19.056  13.728  1.00  0.00     0.105 A
ENDROOT
BRANCH   1  14
HETATM   14  C10 UNL     1     -85.346 -16.892  12.861  1.00  0.00     0.004 A
HETATM   15  C5  UNL     1     -84.559 -16.791  11.750  1.00  0.00     0.003 A
HETATM   16  C6  UNL     1     -83.730 -15.701  11.666  1.00  0.00     0.012 A
HETATM   17  C7  UNL     1     -83.659 -14.709  12.663  1.00  0.00     0.001 A
HETATM   18  C8  UNL     1     -84.448 -14.821  13.773  1.00  0.00     0.001 A
HETATM   19  C9  UNL     1     -85.277 -15.895  13.870  1.00  0.00     0.014 A
BRANCH  15  20
HETATM   20  C4  UNL     1     -84.523 -17.831  10.711  1.00  0.00     0.256 C
BRANCH  20  21
HETATM   21  N1  UNL     1     -85.165 -17.559   9.478  1.00  0.00    -0.346 N
HETATM   22  C3  UNL     1     -84.235 -17.376   8.375  1.00  0.00     0.154 C
BRANCH  21  23
HETATM   23  C2  UNL     1     -86.296 -16.770   9.350  1.00  0.00     0.225 C
BRANCH  23  24
HETATM   24  O1  UNL     1     -87.526 -17.413   9.496  1.00  0.00    -0.351 OA
HETATM   25  C1  UNL     1     -88.184 -17.525   8.279  1.00  0.00     0.210 C
ENDBRANCH  23  24
ENDBRANCH  21  23
ENDBRANCH  20  21
BRANCH  20  26
HETATM   26  O2  UNL     1     -83.160 -18.046  10.315  1.00  0.00    -0.372 OA
ATOM     27  H2  UNL     1     -82.679 -17.853  11.112  1.00  0.00     0.212 HD
ENDBRANCH  20  26
ENDBRANCH  15  20
ENDBRANCH   1  14
BRANCH   4  28
HETATM   28  N3  UNL     1     -89.924 -18.401  12.215  1.00  0.00    -0.134 N
HETATM   29  C13 UNL     1     -90.767 -17.512  12.788  1.00  0.00     0.102 A
HETATM   30  C14 UNL     1     -90.456 -16.648  13.986  1.00  0.00     0.090 C
HETATM   31  N4  UNL     1     -91.919 -17.526  12.109  1.00  0.00    -0.344 N
HETATM   32  C15 UNL     1     -91.863 -18.409  11.092  1.00  0.00     0.061 A
ATOM     33  H4  UNL     1     -92.730 -16.949  12.331  1.00  0.00     0.167 HD
HETATM   34  C16 UNL     1     -92.737 -18.809  10.116  1.00  0.00     0.032 A
HETATM   35  C20 UNL     1     -90.577 -18.950  11.187  1.00  0.00     0.085 A
HETATM   36  C17 UNL     1     -92.371 -19.755   9.198  1.00  0.00     0.002 A
HETATM   37  C18 UNL     1     -91.089 -20.288   9.298  1.00  0.00     0.002 A
HETATM   38  C19 UNL     1     -90.202 -19.896  10.276  1.00  0.00     0.033 A
ENDBRANCH   4  28
BRANCH   8  39
HETATM   39  C23 UNL     1     -87.124 -22.280  14.988  1.00  0.00    -0.005 A
HETATM   40  C24 UNL     1     -88.000 -22.394  16.016  1.00  0.00     0.017 A
HETATM   41  C25 UNL     1     -88.598 -23.596  16.358  1.00  0.00     0.043 A
HETATM   42  C26 UNL     1     -88.328 -24.750  15.660  1.00  0.00     0.116 A
HETATM   43  F1  UNL     1     -88.919 -25.910  16.017  1.00  0.00    -0.206 F
HETATM   44  C27 UNL     1     -87.437 -24.639  14.612  1.00  0.00     0.043 A
HETATM   45  C28 UNL     1     -86.857 -23.462  14.284  1.00  0.00     0.017 A
ENDBRANCH   8  39
TORSDOF 8
ENDMDL