MODEL 3
REMARK VINA RESULT: -7.410222595      0.734      2.683
REMARK  12 active torsions:
REMARK  status: ('A' for Active; 'I' for Inactive)
REMARK    1  A    between atoms: C2_2  and  C3_3
REMARK    2  A    between atoms: C3_3  and  C13_20
REMARK    3  A    between atoms: N1_4  and  N2_6
REMARK    4  A    between atoms: N2_6  and  C4_8
REMARK    5  A    between atoms: C4_8  and  O1_15
REMARK    6  A    between atoms: N3_9  and  C5_11
REMARK    7  A    between atoms: O1_15  and  C9_16
REMARK    8  A    between atoms: C17_26  and  C18_27
REMARK    9  A    between atoms: C18_27  and  N5_28
REMARK   10  A    between atoms: C18_27  and  C20_31
REMARK   11  A    between atoms: N5_28  and  O3_29
REMARK   12  A    between atoms: C26_38  and  O4_39
ROOT
HETATM    1  C13 UNL     1     -88.928 -17.866   8.689  1.00  0.00     0.038 A
HETATM    2  C14 UNL     1     -89.552 -18.972   8.224  1.00  0.00     0.110 A
HETATM    3  N4  UNL     1     -90.397 -19.707   8.972  1.00  0.00    -0.327 N
HETATM    4  C15 UNL     1     -91.035 -20.873   8.421  1.00  0.00     0.159 C
HETATM    5  C16 UNL     1     -90.619 -19.319  10.219  1.00  0.00     0.263 A
HETATM    6  O2  UNL     1     -91.407 -20.016  10.896  1.00  0.00    -0.267 OA
HETATM    7  C17 UNL     1     -90.034 -18.198  10.812  1.00  0.00     0.110 A
HETATM    8  C26 UNL     1     -89.173 -17.462  10.015  1.00  0.00     0.098 A
ENDROOT
BRANCH   1   9
HETATM    9  C3  UNL     1     -88.003 -17.106   7.796  1.00  0.00     0.040 C
HETATM   10  N1  UNL     1     -86.856 -16.837   8.083  1.00  0.00    -0.301 N
ATOM     11  H1  UNL     1     -86.785 -17.245   9.014  1.00  0.00     0.186 HD
BRANCH   9  12
HETATM   12  C2  UNL     1     -88.658 -16.724   6.486  1.00  0.00     0.055 C
HETATM   13  C1  UNL     1     -87.722 -16.711   5.332  1.00  0.00     0.011 C
ENDBRANCH   9  12
BRANCH  10  14
HETATM   14  N2  UNL     1     -85.659 -16.346   7.930  1.00  0.00    -0.265 N
ATOM     15  H2  UNL     1     -85.619 -15.521   7.331  1.00  0.00     0.190 HD
BRANCH  14  16
HETATM   16  C4  UNL     1     -84.381 -16.757   8.453  1.00  0.00     0.235 C
HETATM   17  N3  UNL     1     -83.987 -16.698   9.631  1.00  0.00    -0.347 N
ATOM     18  H3  UNL     1     -83.037 -17.057   9.727  1.00  0.00     0.163 HD
BRANCH  17  19
HETATM   19  C5  UNL     1     -84.503 -16.271  10.855  1.00  0.00     0.022 C
HETATM   20  C6  UNL     1     -85.419 -17.395  11.378  1.00  0.00     0.037 C
HETATM   21  C7  UNL     1     -83.376 -16.109  11.868  1.00  0.00     0.037 C
HETATM   22  C8  UNL     1     -85.327 -15.018  10.876  1.00  0.00     0.037 C
ENDBRANCH  17  19
BRANCH  16  23
HETATM   23  O1  UNL     1     -83.495 -17.277   7.507  1.00  0.00    -0.311 OA
BRANCH  23  24
HETATM   24  C9  UNL     1     -82.752 -16.398   6.684  1.00  0.00     0.060 C
HETATM   25  C10 UNL     1     -81.471 -17.142   6.364  1.00  0.00     0.046 C
HETATM   26  C11 UNL     1     -83.425 -16.157   5.338  1.00  0.00     0.046 C
HETATM   27  C12 UNL     1     -82.381 -15.126   7.364  1.00  0.00     0.046 C
ENDBRANCH  23  24
ENDBRANCH  16  23
ENDBRANCH  14  16
ENDBRANCH  10  14
ENDBRANCH   1   9
BRANCH   8  28
HETATM   28  O4  UNL     1     -88.574 -16.367  10.462  1.00  0.00    -0.359 OA
ATOM     29  H4  UNL     1     -87.672 -16.209  10.206  1.00  0.00     0.217 HD
ENDBRANCH   8  28
BRANCH   7  30
HETATM   30  C18 UNL     1     -90.475 -17.802  12.126  1.00  0.00     0.168 C
BRANCH  30  31
HETATM   31  N5  UNL     1     -91.591 -17.290  12.281  1.00  0.00    -0.280 NA
BRANCH  31  32
HETATM   32  O3  UNL     1     -92.681 -16.789  12.421  1.00  0.00    -0.214 OA
HETATM   33  C19 UNL     1     -93.881 -16.766  11.673  1.00  0.00     0.255 C
ENDBRANCH  31  32
ENDBRANCH  30  31
BRANCH  30  34
HETATM   34  C20 UNL     1     -89.751 -17.942  13.403  1.00  0.00     0.009 A
HETATM   35  C21 UNL     1     -88.626 -18.759  13.424  1.00  0.00     0.016 A
HETATM   36  C22 UNL     1     -87.768 -18.841  14.508  1.00  0.00     0.024 A
HETATM   37  C23 UNL     1     -88.023 -18.081  15.626  1.00  0.00     0.034 A
HETATM   38 CL1  UNL     1     -86.958 -18.160  17.009  1.00  0.00    -0.084 Cl
HETATM   39  C24 UNL     1     -89.130 -17.267  15.622  1.00  0.00     0.024 A
HETATM   40  C25 UNL     1     -89.990 -17.198  14.513  1.00  0.00     0.016 A
ENDBRANCH  30  34
ENDBRANCH   7  30
TORSDOF 12
ENDMDL