MODEL 3
REMARK VINA RESULT: -9.470883894      3.462      6.509
REMARK  7 active torsions:
REMARK  status: ('A' for Active; 'I' for Inactive)
REMARK    1  A    between atoms: C2_2  and  C3_3
REMARK    2  A    between atoms: C3_3  and  C4_4
REMARK    3  A    between atoms: N3_17  and  C12_18
REMARK    4  A    between atoms: C12_18  and  C13_19
REMARK    5  A    between atoms: C16_22  and  C17_23
REMARK    6  A    between atoms: N5_26  and  O1_27
REMARK    7  A    between atoms: C19_30  and  C20_31
ROOT
HETATM    1  C13 UNL     1     -86.821 -17.613  12.254  1.00  0.00    -0.040 A
HETATM    2  C14 UNL     1     -87.731 -16.605  11.901  1.00  0.00     0.010 A
HETATM    3  C15 UNL     1     -88.110 -16.434  10.575  1.00  0.00     0.014 A
HETATM    4  C16 UNL     1     -87.613 -17.235   9.578  1.00  0.00    -0.007 A
HETATM    5  C22 UNL     1     -86.727 -18.219   9.922  1.00  0.00     0.014 A
HETATM    6  C23 UNL     1     -86.336 -18.405  11.243  1.00  0.00     0.010 A
ENDROOT
BRANCH   1   7
HETATM    7  C12 UNL     1     -86.467 -17.725  13.680  1.00  0.00     0.170 C
BRANCH   7   8
HETATM    8  N3  UNL     1     -87.331 -18.562  14.473  1.00  0.00    -0.317 N
HETATM    9  C4  UNL     1     -88.405 -18.185  15.183  1.00  0.00     0.085 A
HETATM   10  N1  UNL     1     -88.909 -19.326  15.746  1.00  0.00    -0.342 N
HETATM   11  C5  UNL     1     -88.152 -20.365  15.382  1.00  0.00     0.085 A
ATOM     12  H1  UNL     1     -89.731 -19.377  16.347  1.00  0.00     0.167 HD
HETATM   13  C6  UNL     1     -88.238 -21.722  15.688  1.00  0.00    -0.012 A
HETATM   14  C11 UNL     1     -87.134 -19.911  14.569  1.00  0.00     0.137 A
HETATM   15  C7  UNL     1     -89.333 -22.189  16.558  1.00  0.00     0.052 C
HETATM   16  C8  UNL     1     -87.285 -22.557  15.153  1.00  0.00     0.041 A
HETATM   17 BR1  UNL     1     -87.420 -24.415  15.583  1.00  0.00    -0.048 Br
HETATM   18  C9  UNL     1     -86.267 -22.104  14.341  1.00  0.00     0.025 A
HETATM   19  C10 UNL     1     -85.246 -23.045  13.777  1.00  0.00     0.069 C
HETATM   20  N2  UNL     1     -86.234 -20.787  14.080  1.00  0.00    -0.343 N
ATOM     21  H2  UNL     1     -85.489 -20.432  13.481  1.00  0.00     0.167 HD
BRANCH   9  22
HETATM   22  C3  UNL     1     -88.970 -16.818  15.392  1.00  0.00     0.076 C
BRANCH  22  23
HETATM   23  C2  UNL     1     -87.996 -15.980  16.232  1.00  0.00     0.003 C
HETATM   24  C1  UNL     1     -87.938 -16.521  17.639  1.00  0.00     0.005 C
ENDBRANCH  22  23
ENDBRANCH   9  22
ENDBRANCH   7   8
ENDBRANCH   1   7
BRANCH   4  25
HETATM   25  C17 UNL     1     -88.001 -17.062   8.206  1.00  0.00     0.074 A
HETATM   26  N4  UNL     1     -87.257 -16.502   7.235  1.00  0.00    -0.273 N
HETATM   27  N5  UNL     1     -87.905 -16.496   6.087  1.00  0.00    -0.174 N
ATOM     28  H4  UNL     1     -86.316 -16.132   7.369  1.00  0.00     0.189 HD
HETATM   29  C18 UNL     1     -89.111 -17.061   6.287  1.00  0.00     0.159 A
HETATM   30  C19 UNL     1     -89.196 -17.427   7.611  1.00  0.00     0.042 A
BRANCH  27  31
HETATM   31  O1  UNL     1     -87.489 -16.011   4.853  1.00  0.00    -0.268 OA
ATOM     32  H1  UNL     1     -87.853 -16.180   3.992  1.00  0.00     0.247 HD
ENDBRANCH  27  31
BRANCH  30  33
HETATM   33  C20 UNL     1     -90.333 -18.077   8.266  1.00  0.00     0.080 A
HETATM   34  C21 UNL     1     -90.264 -19.267   8.978  1.00  0.00     0.140 A
HETATM   35  N6  UNL     1     -91.488 -19.555   9.432  1.00  0.00    -0.295 N
HETATM   36  N7  UNL     1     -92.279 -18.577   9.012  1.00  0.00    -0.243 N
ATOM     37  H6  UNL     1     -91.759 -20.365   9.989  1.00  0.00     0.187 HD
HETATM   38  N8  UNL     1     -91.607 -17.693   8.319  1.00  0.00    -0.284 N
ATOM     39  H7  UNL     1     -93.280 -18.522   9.204  1.00  0.00     0.208 HD
ATOM     40  H8  UNL     1     -91.993 -16.851   7.892  1.00  0.00     0.188 HD
ENDBRANCH  30  33
ENDBRANCH   4  25
TORSDOF 7
ENDMDL