MODEL 5
REMARK VINA RESULT: -9.249348196      4.727      6.684
REMARK  8 active torsions:
REMARK  status: ('A' for Active; 'I' for Inactive)
REMARK    1  A    between atoms: C4_5  and  C5_6
REMARK    2  A    between atoms: N2_7  and  N3_9
REMARK    3  A    between atoms: N3_9  and  C6_11
REMARK    4  A    between atoms: C7_14  and  C8_15
REMARK    5  A    between atoms: C8_15  and  C9_16
REMARK    6  A    between atoms: C17_26  and  C18_27
REMARK    7  A    between atoms: C21_30  and  N6_31
REMARK    8  A    between atoms: C28_41  and  O3_42
ROOT
HETATM    1  N1  UNL     1     -92.137 -21.654   8.128  1.00  0.00    -0.191 NA
HETATM    2  C1  UNL     1     -91.955 -20.867   8.961  1.00  0.00     0.102 C
HETATM    3  C2  UNL     1     -91.744 -19.873   9.987  1.00  0.00     0.078 A
HETATM    4  C3  UNL     1     -90.491 -19.370  10.175  1.00  0.00     0.038 A
HETATM    5  C4  UNL     1     -90.311 -18.417  11.166  1.00  0.00    -0.018 A
HETATM    6  C26 UNL     1     -91.393 -18.014  11.919  1.00  0.00     0.015 A
HETATM    7  C27 UNL     1     -92.645 -18.552  11.690  1.00  0.00     0.039 A
HETATM    8  C28 UNL     1     -92.847 -19.498  10.714  1.00  0.00     0.086 A
ENDROOT
BRANCH   8   9
HETATM    9  O3  UNL     1     -94.090 -20.029  10.491  1.00  0.00    -0.359 OA
ATOM     10  H3  UNL     1     -94.668 -20.291  11.197  1.00  0.00     0.217 HD
ENDBRANCH   8   9
BRANCH   5  11
HETATM   11  C5  UNL     1     -89.015 -17.830  11.412  1.00  0.00     0.118 C
HETATM   12  N2  UNL     1     -88.048 -18.581  11.802  1.00  0.00    -0.309 N
ATOM     13  H2  UNL     1     -88.257 -19.573  11.915  1.00  0.00     0.186 HD
BRANCH  12  14
HETATM   14  N3  UNL     1     -86.794 -18.198  12.076  1.00  0.00    -0.285 N
ATOM     15  H3  UNL     1     -86.437 -18.643  12.922  1.00  0.00     0.188 HD
BRANCH  14  16
HETATM   16  C6  UNL     1     -85.941 -17.428  11.554  1.00  0.00     0.142 A
HETATM   17  N4  UNL     1     -85.845 -17.405  10.175  1.00  0.00    -0.342 N
HETATM   18  C7  UNL     1     -84.950 -16.600   9.606  1.00  0.00     0.036 A
ATOM     19  H4  UNL     1     -86.449 -17.996   9.603  1.00  0.00     0.167 HD
HETATM   20  C15 UNL     1     -84.099 -15.770  10.306  1.00  0.00     0.080 A
HETATM   21  C16 UNL     1     -83.140 -14.909   9.644  1.00  0.00     0.102 C
HETATM   22  C17 UNL     1     -84.219 -15.814  11.674  1.00  0.00     0.021 A
HETATM   23  N5  UNL     1     -82.387 -14.203   9.120  1.00  0.00    -0.191 NA
HETATM   24  C24 UNL     1     -85.138 -16.639  12.328  1.00  0.00     0.102 A
HETATM   25  C25 UNL     1     -85.214 -16.627  13.774  1.00  0.00     0.104 C
HETATM   26  N7  UNL     1     -85.255 -16.594  14.928  1.00  0.00    -0.191 NA
BRANCH  18  27
HETATM   27  C8  UNL     1     -84.864 -16.587   8.134  1.00  0.00     0.097 C
BRANCH  27  28
HETATM   28  C9  UNL     1     -86.141 -16.654   7.446  1.00  0.00    -0.052 A
HETATM   29  C10 UNL     1     -86.331 -15.891   6.308  1.00  0.00     0.010 A
HETATM   30  C11 UNL     1     -87.526 -15.922   5.615  1.00  0.00     0.043 A
HETATM   31  C12 UNL     1     -88.582 -16.710   6.023  1.00  0.00     0.116 A
HETATM   32  F1  UNL     1     -89.739 -16.720   5.327  1.00  0.00    -0.206 F
HETATM   33  C13 UNL     1     -88.399 -17.475   7.162  1.00  0.00     0.043 A
HETATM   34  C14 UNL     1     -87.200 -17.439   7.850  1.00  0.00     0.010 A
ENDBRANCH  27  28
ENDBRANCH  18  27
BRANCH  22  35
HETATM   35  C18 UNL     1     -83.372 -14.993  12.513  1.00  0.00    -0.023 A
HETATM   36  C19 UNL     1     -83.843 -13.806  13.012  1.00  0.00     0.015 A
HETATM   37  C20 UNL     1     -83.025 -13.038  13.811  1.00  0.00     0.037 A
HETATM   38  C21 UNL     1     -81.730 -13.420  14.137  1.00  0.00     0.102 A
HETATM   39  C22 UNL     1     -81.311 -14.622  13.605  1.00  0.00     0.037 A
HETATM   40  C23 UNL     1     -82.100 -15.416  12.802  1.00  0.00     0.015 A
BRANCH  38  41
HETATM   41  N6  UNL     1     -80.892 -12.628  14.961  1.00  0.00    -0.116 N
HETATM   42  O1  UNL     1     -79.793 -12.213  14.577  1.00  0.00    -0.532 OA
HETATM   43  O2  UNL     1     -81.317 -12.315  16.223  1.00  0.00    -0.532 OA
ENDBRANCH  38  41
ENDBRANCH  22  35
ENDBRANCH  14  16
ENDBRANCH  12  14
ENDBRANCH   5  11
TORSDOF 8
ENDMDL