MODEL 3
REMARK VINA RESULT: -7.397107958      3.030      5.624
REMARK  7 active torsions:
REMARK  status: ('A' for Active; 'I' for Inactive)
REMARK    1  A    between atoms: S1_2  and  C2_3
REMARK    2  A    between atoms: C7_9  and  N1_10
REMARK    3  A    between atoms: N1_10  and  C8_12
REMARK    4  A    between atoms: C9_15  and  C10_16
REMARK    5  A    between atoms: C12_22  and  C13_23
REMARK    6  A    between atoms: C13_23  and  O1_24
REMARK    7  A    between atoms: O1_24  and  C14_25
ROOT
HETATM    1  C8  UNL     1     -87.903 -14.407  11.330  1.00  0.00     0.683 A
HETATM    2  N2  UNL     1     -89.189 -14.205  11.112  1.00  0.00    -0.187 N
ATOM      3  H2  UNL     1     -89.466 -14.161  10.131  1.00  0.00     0.184 HD
HETATM    4  C9  UNL     1     -90.193 -14.049  12.009  1.00  0.00     0.106 A
HETATM    5  C17 UNL     1     -89.769 -14.127  13.298  1.00  0.00     0.090 A
HETATM    6  N5  UNL     1     -90.378 -14.110  14.481  1.00  0.00    -0.362 N
ATOM      7  H5  UNL     1     -91.383 -13.977  14.591  1.00  0.00     0.165 HD
HETATM    8  C18 UNL     1     -89.533 -14.285  15.527  1.00  0.00     0.097 A
HETATM    9  C19 UNL     1     -88.302 -14.429  14.984  1.00  0.00    -0.017 A
HETATM   10  C20 UNL     1     -87.035 -14.640  15.747  1.00  0.00     0.052 C
HETATM   11  C21 UNL     1     -88.410 -14.342  13.611  1.00  0.00     0.085 A
HETATM   12  N6  UNL     1     -87.519 -14.475  12.626  1.00  0.00    -0.189 N
ATOM     13  H6  UNL     1     -86.536 -14.630  12.853  1.00  0.00     0.184 HD
ENDROOT
BRANCH   4  14
HETATM   14  C10 UNL     1     -91.531 -13.919  11.469  1.00  0.00     0.087 A
HETATM   15  N3  UNL     1     -92.553 -13.614  12.383  1.00  0.00    -0.298 N
HETATM   16  N4  UNL     1     -93.685 -13.721  11.796  1.00  0.00    -0.311 N
ATOM     17  H3  UNL     1     -92.415 -13.350  13.358  1.00  0.00     0.187 HD
HETATM   18  C11 UNL     1     -93.571 -14.072  10.554  1.00  0.00     0.118 A
ATOM     19  H4  UNL     1     -94.579 -13.549  12.255  1.00  0.00     0.186 HD
HETATM   20  C12 UNL     1     -92.178 -14.208  10.326  1.00  0.00     0.013 A
BRANCH  20  21
HETATM   21  C13 UNL     1     -91.637 -14.674   9.067  1.00  0.00     0.210 C
BRANCH  21  22
HETATM   22  O1  UNL     1     -92.322 -15.841   8.656  1.00  0.00    -0.382 OA
BRANCH  22  23
HETATM   23  C14 UNL     1     -91.818 -16.940   9.325  1.00  0.00     0.113 C
HETATM   24  C15 UNL     1     -92.914 -17.778   9.957  1.00  0.00     0.039 C
HETATM   25  C16 UNL     1     -91.027 -17.795   8.389  1.00  0.00     0.039 C
ENDBRANCH  22  23
ENDBRANCH  21  22
ENDBRANCH  20  21
ENDBRANCH   4  14
BRANCH   1  26
HETATM   26  N1  UNL     1     -87.187 -14.472  10.347  1.00  0.00    -0.190 N
ATOM     27  H1  UNL     1     -86.629 -15.317  10.468  1.00  0.00     0.184 HD
BRANCH  26  28
HETATM   28  C7  UNL     1     -86.796 -13.949   9.187  1.00  0.00     0.067 A
HETATM   29  C2  UNL     1     -85.502 -13.427   9.019  1.00  0.00     0.027 A
HETATM   30  C3  UNL     1     -85.111 -12.887   7.822  1.00  0.00     0.022 A
HETATM   31  C4  UNL     1     -85.981 -12.840   6.737  1.00  0.00     0.020 A
HETATM   32  C5  UNL     1     -87.242 -13.344   6.878  1.00  0.00     0.013 A
HETATM   33 BR1  UNL     1     -88.409 -13.259   5.346  1.00  0.00    -0.051 Br
HETATM   34  C6  UNL     1     -87.625 -13.878   8.071  1.00  0.00     0.050 A
BRANCH  29  35
HETATM   35  S1  UNL     1     -84.366 -13.470  10.392  1.00  0.00    -0.132 SA
HETATM   36  C1  UNL     1     -84.639 -12.149  11.581  1.00  0.00     0.095 C
ENDBRANCH  29  35
ENDBRANCH  26  28
ENDBRANCH   1  26
TORSDOF 7
ENDMDL