MODEL 3
REMARK VINA RESULT: -8.439551047      3.165      7.634
REMARK  8 active torsions:
REMARK  status: ('A' for Active; 'I' for Inactive)
REMARK    1  A    between atoms: O1_2  and  C2_3
REMARK    2  A    between atoms: C7_8  and  O2_9
REMARK    3  A    between atoms: C11_16  and  O3_17
REMARK    4  A    between atoms: O3_17  and  C12_18
REMARK    5  A    between atoms: C12_18  and  C13_19
REMARK    6  A    between atoms: C13_19  and  C14_20
REMARK    7  A    between atoms: C14_20  and  N2_21
REMARK    8  A    between atoms: C24_35  and  O4_36
ROOT
HETATM    1  C2  UNL     1     -91.358 -14.522  11.790  1.00  0.00     0.102 A
HETATM    2  C3  UNL     1     -90.574 -14.313  10.677  1.00  0.00     0.052 A
HETATM    3  C4  UNL     1     -89.225 -13.953  10.772  1.00  0.00    -0.013 A
HETATM    4  C5  UNL     1     -88.637 -13.796  11.988  1.00  0.00    -0.011 A
HETATM    5  C6  UNL     1     -89.444 -14.010  13.119  1.00  0.00     0.050 A
HETATM    6  C7  UNL     1     -90.771 -14.365  13.029  1.00  0.00     0.099 A
HETATM    7  C8  UNL     1     -87.213 -13.412  11.849  1.00  0.00     0.086 A
HETATM    8  N1  UNL     1     -87.086 -12.095  12.342  1.00  0.00    -0.398 N
ATOM      9  H1  UNL     1     -87.777 -11.397  12.068  1.00  0.00     0.155 HD
HETATM   10  C9  UNL     1     -86.048 -11.717  13.193  1.00  0.00     0.103 C
HETATM   11  C10 UNL     1     -84.940 -10.916  12.519  1.00  0.00     0.034 C
HETATM   12  C11 UNL     1     -85.437 -12.759  14.071  1.00  0.00     0.143 C
HETATM   13  C15 UNL     1     -85.151 -13.962  13.205  1.00  0.00     0.041 C
HETATM   14  C16 UNL     1     -86.367 -14.465  12.508  1.00  0.00     0.021 C
HETATM   15  C17 UNL     1     -85.928 -15.534  11.519  1.00  0.00     0.013 C
HETATM   16  C18 UNL     1     -87.009 -13.367  10.381  1.00  0.00    -0.013 A
HETATM   17  C19 UNL     1     -85.905 -13.081   9.588  1.00  0.00     0.023 A
HETATM   18  C20 UNL     1     -86.024 -13.118   8.227  1.00  0.00    -0.020 A
HETATM   19  C21 UNL     1     -84.950 -12.839   7.418  1.00  0.00     0.054 A
HETATM   20  C22 UNL     1     -85.083 -12.880   6.059  1.00  0.00     0.119 A
HETATM   21  F1  UNL     1     -84.008 -12.602   5.257  1.00  0.00    -0.206 F
HETATM   22  C23 UNL     1     -86.272 -13.196   5.429  1.00  0.00     0.079 A
HETATM   23  C24 UNL     1     -87.356 -13.478   6.226  1.00  0.00     0.082 A
HETATM   24  C26 UNL     1     -87.233 -13.439   7.608  1.00  0.00     0.009 A
HETATM   25  C27 UNL     1     -88.336 -13.725   8.369  1.00  0.00     0.028 A
HETATM   26  C28 UNL     1     -88.184 -13.679   9.768  1.00  0.00    -0.015 A
ENDROOT
BRANCH   6  27
HETATM   27  O2  UNL     1     -91.481 -14.554  14.217  1.00  0.00    -0.358 OA
ATOM     28  H2  UNL     1     -91.966 -13.852  14.634  1.00  0.00     0.217 HD
ENDBRANCH   6  27
BRANCH  12  29
HETATM   29  O3  UNL     1     -86.230 -13.073  15.159  1.00  0.00    -0.384 OA
BRANCH  29  30
HETATM   30  C12 UNL     1     -85.454 -13.329  16.291  1.00  0.00     0.170 C
BRANCH  30  31
HETATM   31  C13 UNL     1     -84.530 -12.134  16.510  1.00  0.00     0.053 C
BRANCH  31  32
HETATM   32  C14 UNL     1     -85.280 -11.140  17.338  1.00  0.00     0.231 C
BRANCH  32  33
HETATM   33  N2  UNL     1     -85.910 -10.187  16.431  1.00  0.00    -0.079 N
ATOM     34  H23 UNL     1     -86.311  -9.385  16.916  1.00  0.00     0.274 HD
ATOM     35  H22 UNL     1     -85.236  -9.679  15.860  1.00  0.00     0.274 HD
ATOM     36  H21 UNL     1     -86.597 -10.695  15.872  1.00  0.00     0.274 HD
ENDBRANCH  32  33
ENDBRANCH  31  32
ENDBRANCH  30  31
ENDBRANCH  29  30
ENDBRANCH  12  29
BRANCH   1  37
HETATM   37  O1  UNL     1     -92.691 -14.877  11.728  1.00  0.00    -0.353 OA
HETATM   38  C1  UNL     1     -93.165 -16.054  11.119  1.00  0.00     0.210 C
ENDBRANCH   1  37
BRANCH  23  39
HETATM   39  O4  UNL     1     -88.559 -13.796   5.649  1.00  0.00    -0.355 OA
HETATM   40  C25 UNL     1     -89.675 -12.935   5.763  1.00  0.00     0.210 C
ENDBRANCH  23  39
TORSDOF 8
ENDMDL