MODEL 4
REMARK VINA RESULT: -8.771080987      2.579      4.005
REMARK  9 active torsions:
REMARK  status: ('A' for Active; 'I' for Inactive)
REMARK    1  A    between atoms: O1_2  and  C2_3
REMARK    2  A    between atoms: C5_6  and  N1_7
REMARK    3  A    between atoms: C7_12  and  N3_13
REMARK    4  A    between atoms: N3_13  and  N4_15
REMARK    5  A    between atoms: C8_17  and  C9_18
REMARK    6  A    between atoms: C9_18  and  C10_19
REMARK    7  A    between atoms: C13_24  and  N5_25
REMARK    8  A    between atoms: N5_25  and  C14_27
REMARK    9  A    between atoms: C17_30  and  C18_31
ROOT
HETATM    1  N1  UNL     1     -90.182 -14.214   7.375  1.00  0.00    -0.192 N
ATOM      2  H1  UNL     1     -90.657 -13.960   6.508  1.00  0.00     0.184 HD
HETATM    3  C6  UNL     1     -88.878 -14.001   7.491  1.00  0.00     0.686 A
HETATM    4  N2  UNL     1     -88.331 -13.458   6.404  1.00  0.00    -0.168 N
ATOM      5  H2  UNL     1     -88.946 -13.261   5.614  1.00  0.00     0.186 HD
HETATM    6  C7  UNL     1     -87.011 -13.145   6.269  1.00  0.00     0.181 A
HETATM    7  S1  UNL     1     -86.063 -13.503   7.626  1.00  0.00    -0.015 SA
HETATM    8  C13 UNL     1     -86.951 -14.192   8.907  1.00  0.00     0.167 A
HETATM    9  N6  UNL     1     -88.279 -14.338   8.624  1.00  0.00    -0.170 N
ATOM     10  H6  UNL     1     -88.866 -14.744   9.353  1.00  0.00     0.186 HD
ENDROOT
BRANCH   8  11
HETATM   11  N5  UNL     1     -86.506 -14.623  10.028  1.00  0.00    -0.336 N
ATOM     12  H5  UNL     1     -85.576 -15.044  10.028  1.00  0.00     0.168 HD
BRANCH  11  13
HETATM   13  C14 UNL     1     -87.173 -14.568  11.245  1.00  0.00     0.034 A
HETATM   14  C15 UNL     1     -86.676 -13.638  12.180  1.00  0.00     0.030 A
HETATM   15  C16 UNL     1     -87.248 -13.512  13.412  1.00  0.00     0.010 A
HETATM   16  C17 UNL     1     -88.329 -14.310  13.738  1.00  0.00    -0.051 A
HETATM   17  C22 UNL     1     -88.819 -15.222  12.824  1.00  0.00     0.010 A
HETATM   18  C23 UNL     1     -88.242 -15.358  11.564  1.00  0.00     0.030 A
BRANCH  16  19
HETATM   19  C18 UNL     1     -88.902 -14.139  15.073  1.00  0.00    -0.024 C
HETATM   20  C19 UNL     1     -88.466 -12.778  15.602  1.00  0.00     0.019 C
HETATM   21  C20 UNL     1     -88.470 -15.240  16.028  1.00  0.00     0.019 C
HETATM   22  C21 UNL     1     -90.416 -14.220  14.957  1.00  0.00     0.019 C
ENDBRANCH  16  19
ENDBRANCH  11  13
ENDBRANCH   8  11
BRANCH   6  23
HETATM   23  N3  UNL     1     -86.622 -12.657   5.159  1.00  0.00    -0.280 N
ATOM     24  H3  UNL     1     -87.274 -12.615   4.376  1.00  0.00     0.189 HD
BRANCH  23  25
HETATM   25  N4  UNL     1     -85.328 -12.183   4.993  1.00  0.00    -0.314 N
HETATM   26  C8  UNL     1     -84.360 -12.966   4.617  1.00  0.00     0.083 C
ATOM     27  H4  UNL     1     -85.132 -11.198   5.170  1.00  0.00     0.185 HD
BRANCH  26  28
HETATM   28  C9  UNL     1     -82.981 -12.544   4.422  1.00  0.00     0.088 C
BRANCH  28  29
HETATM   29  C10 UNL     1     -82.076 -12.959   5.572  1.00  0.00     0.100 C
HETATM   30  C11 UNL     1     -80.908 -13.782   5.079  1.00  0.00     0.051 C
HETATM   31  C12 UNL     1     -81.506 -11.692   6.210  1.00  0.00     0.051 C
HETATM   32  F1  UNL     1     -82.761 -13.619   6.567  1.00  0.00    -0.243 F
ENDBRANCH  28  29
ENDBRANCH  26  28
ENDBRANCH  23  25
ENDBRANCH   6  23
BRANCH   1  33
HETATM   33  C5  UNL     1     -90.934 -14.796   8.448  1.00  0.00     0.049 A
HETATM   34  C4  UNL     1     -90.871 -16.124   8.745  1.00  0.00     0.033 A
HETATM   35  C3  UNL     1     -91.610 -16.648   9.765  1.00  0.00     0.039 A
HETATM   36  C2  UNL     1     -92.447 -15.825  10.528  1.00  0.00     0.068 A
HETATM   37  C25 UNL     1     -92.491 -14.501  10.214  1.00  0.00     0.039 A
HETATM   38  C24 UNL     1     -91.748 -13.969   9.184  1.00  0.00     0.033 A
BRANCH  36  39
HETATM   39  O1  UNL     1     -93.169 -16.377  11.531  1.00  0.00    -0.356 OA
HETATM   40  C1  UNL     1     -94.118 -17.380  11.317  1.00  0.00     0.210 C
ENDBRANCH  36  39
ENDBRANCH   1  33
TORSDOF 9
ENDMDL