MODEL 2
REMARK VINA RESULT: -10.201737096      0.184      1.470
REMARK  5 active torsions:
REMARK  status: ('A' for Active; 'I' for Inactive)
REMARK    1  A    between atoms: C2_2  and  C3_3
REMARK    2  A    between atoms: C4_6  and  N2_7
REMARK    3  A    between atoms: N2_7  and  C5_9
REMARK    4  A    between atoms: C16_31  and  O2_32
REMARK    5  A    between atoms: O2_32  and  C17_33
ROOT
HETATM    1  N2  UNL     1     -86.410 -15.026  10.393  1.00  0.00    -0.022 N
ATOM      2  H2  UNL     1     -85.577 -15.571  10.169  1.00  0.00     0.203 HD
ENDROOT
BRANCH   1   3
HETATM    3  C4  UNL     1     -87.369 -14.767   9.392  1.00  0.00     0.699 A
HETATM    4  N1  UNL     1     -87.301 -14.196   8.223  1.00  0.00    -0.191 N
HETATM    5  C3  UNL     1     -88.541 -14.128   7.614  1.00  0.00     0.078 A
ATOM      6  H1  UNL     1     -86.439 -13.842   7.808  1.00  0.00     0.184 HD
HETATM    7  C16 UNL     1     -89.434 -14.711   8.483  1.00  0.00     0.186 A
HETATM    8  N7  UNL     1     -88.680 -15.091   9.561  1.00  0.00    -0.167 N
ATOM      9  H7  UNL     1     -89.055 -15.559  10.386  1.00  0.00     0.186 HD
BRANCH   5  10
HETATM   10  C2  UNL     1     -88.705 -13.452   6.331  1.00  0.00     0.057 C
HETATM   11  C1  UNL     1     -87.325 -13.166   5.727  1.00  0.00     0.011 C
ENDBRANCH   5  10
BRANCH   7  12
HETATM   12  O2  UNL     1     -90.806 -14.861   8.293  1.00  0.00    -0.290 OA
BRANCH  12  13
HETATM   13  C17 UNL     1     -91.735 -15.524   9.074  1.00  0.00     0.089 A
HETATM   14  C18 UNL     1     -91.783 -16.920   9.107  1.00  0.00    -0.026 A
HETATM   15  C19 UNL     1     -90.987 -17.770   8.196  1.00  0.00     0.051 C
HETATM   16  C20 UNL     1     -92.728 -17.516   9.950  1.00  0.00     0.033 A
HETATM   17  C21 UNL     1     -93.613 -16.825  10.740  1.00  0.00     0.035 A
HETATM   18 CL1  UNL     1     -94.773 -17.620  11.785  1.00  0.00    -0.084 Cl
HETATM   19  C22 UNL     1     -93.532 -15.449  10.669  1.00  0.00     0.033 A
HETATM   20  C23 UNL     1     -92.603 -14.793   9.842  1.00  0.00    -0.026 A
HETATM   21  C24 UNL     1     -92.701 -13.325   9.727  1.00  0.00     0.051 C
ENDBRANCH  12  13
ENDBRANCH   7  12
ENDBRANCH   1   3
BRANCH   1  22
HETATM   22  C5  UNL     1     -86.580 -14.579  11.586  1.00  0.00     0.697 A
HETATM   23  N3  UNL     1     -87.002 -15.361  12.553  1.00  0.00    -0.188 N
HETATM   24  C6  UNL     1     -87.167 -14.995  13.882  1.00  0.00     0.087 A
ATOM     25  H3  UNL     1     -87.229 -16.324  12.305  1.00  0.00     0.184 HD
HETATM   26  C7  UNL     1     -87.469 -16.050  14.797  1.00  0.00     0.066 A
HETATM   27  C11 UNL     1     -86.875 -13.727  14.210  1.00  0.00     0.011 A
HETATM   28  C8  UNL     1     -87.554 -16.022  16.161  1.00  0.00     0.049 A
HETATM   29  N5  UNL     1     -87.580 -17.285  14.304  1.00  0.00    -0.306 N
HETATM   30  C9  UNL     1     -87.751 -17.194  16.935  1.00  0.00     0.095 A
HETATM   31  N4  UNL     1     -87.854 -18.396  16.319  1.00  0.00    -0.319 N
HETATM   32  C10 UNL     1     -87.760 -18.414  14.957  1.00  0.00     0.324 A
ATOM     33  H4  UNL     1     -87.995 -19.254  16.852  1.00  0.00     0.170 HD
HETATM   34  O1  UNL     1     -87.847 -19.518  14.402  1.00  0.00    -0.247 OA
ATOM     35  H5  UNL     1     -87.517 -17.366  13.289  1.00  0.00     0.170 HD
HETATM   36  C12 UNL     1     -87.186 -13.053  15.447  1.00  0.00    -0.074 C
HETATM   37  C15 UNL     1     -86.420 -12.888  13.176  1.00  0.00     0.120 A
HETATM   38  C13 UNL     1     -86.010 -12.604  16.300  1.00  0.00     0.044 C
HETATM   39  C14 UNL     1     -88.514 -12.878  16.073  1.00  0.00     0.044 C
HETATM   40  N6  UNL     1     -86.278 -13.313  11.892  1.00  0.00    -0.200 N
ATOM     41  H6  UNL     1     -85.946 -12.673  11.171  1.00  0.00     0.183 HD
ENDBRANCH   1  22
TORSDOF 5
ENDMDL