MODEL 5
REMARK VINA RESULT: -7.056758028      1.297      2.324
REMARK  11 active torsions:
REMARK  status: ('A' for Active; 'I' for Inactive)
REMARK    1  A    between atoms: C2_2  and  C4_4
REMARK    2  A    between atoms: C10_10  and  C11_11
REMARK    3  A    between atoms: C11_11  and  C12_12
REMARK    4  A    between atoms: C13_13  and  C14_14
REMARK    5  A    between atoms: C14_14  and  C15_15
REMARK    6  A    between atoms: C15_15  and  O1_16
REMARK    7  A    between atoms: C18_21  and  O2_22
REMARK    8  A    between atoms: O2_22  and  C19_23
REMARK    9  A    between atoms: C19_23  and  C20_25
REMARK   10  A    between atoms: C20_25  and  O3_28
REMARK   11  A    between atoms: C23_30  and  O4_31
ROOT
HETATM    1  C15 UNL     1     -85.995 -12.843  10.945  1.00  0.00     0.072 C
HETATM    2  C16 UNL     1     -87.374 -12.401  11.381  1.00  0.00     0.061 C
HETATM    3  C17 UNL     1     -87.220 -11.875  12.821  1.00  0.00     0.117 C
HETATM    4 CL1  UNL     1     -88.603 -10.943  13.315  1.00  0.00    -0.122 Cl
HETATM    5  C18 UNL     1     -86.840 -13.040  13.652  1.00  0.00     0.177 C
HETATM    6  C23 UNL     1     -85.399 -13.395  13.229  1.00  0.00     0.160 C
HETATM    7  C24 UNL     1     -85.448 -13.934  11.803  1.00  0.00     0.012 C
HETATM    8  C25 UNL     1     -86.180 -15.226  11.769  1.00  0.00     0.020 C
HETATM    9  C26 UNL     1     -84.012 -14.185  11.370  1.00  0.00     0.020 C
ENDROOT
BRANCH   1  10
HETATM   10  C14 UNL     1     -85.912 -13.087   9.467  1.00  0.00     0.065 C
BRANCH  10  11
HETATM   11  C13 UNL     1     -86.847 -14.062   8.923  1.00  0.00    -0.028 C
HETATM   12  C12 UNL     1     -88.020 -13.678   8.451  1.00  0.00    -0.030 C
BRANCH  12  13
HETATM   13  C11 UNL     1     -88.984 -14.657   7.894  1.00  0.00     0.036 C
BRANCH  13  14
HETATM   14  C10 UNL     1     -90.342 -14.563   8.504  1.00  0.00     0.020 C
HETATM   15  C4  UNL     1     -90.324 -14.534  10.020  1.00  0.00     0.021 C
HETATM   16  C5  UNL     1     -89.789 -15.794  10.607  1.00  0.00     0.014 C
HETATM   17  C6  UNL     1     -90.288 -17.049   9.979  1.00  0.00     0.034 C
HETATM   18  C7  UNL     1     -91.114 -16.889   8.780  1.00  0.00    -0.087 C
HETATM   19  C8  UNL     1     -91.947 -18.070   8.331  1.00  0.00     0.043 C
HETATM   20  C9  UNL     1     -91.135 -15.754   8.111  1.00  0.00    -0.019 C
BRANCH  15  21
HETATM   21  C2  UNL     1     -91.645 -14.121  10.507  1.00  0.00    -0.088 C
HETATM   22  C1  UNL     1     -92.420 -13.240   9.902  1.00  0.00     0.014 C
HETATM   23  C3  UNL     1     -92.193 -14.718  11.777  1.00  0.00     0.043 C
ENDBRANCH  15  21
ENDBRANCH  13  14
ENDBRANCH  12  13
ENDBRANCH  10  11
ENDBRANCH   1  10
BRANCH   1  24
HETATM   24  O1  UNL     1     -85.155 -11.720  11.169  1.00  0.00    -0.389 OA
ATOM     25  H1  UNL     1     -85.615 -11.205  11.821  1.00  0.00     0.210 HD
ENDBRANCH   1  24
BRANCH   6  26
HETATM   26  O4  UNL     1     -84.542 -12.325  13.376  1.00  0.00    -0.392 OA
ATOM     27  H4  UNL     1     -84.996 -11.494  13.304  1.00  0.00     0.210 HD
ENDBRANCH   6  26
BRANCH   5  28
HETATM   28  O2  UNL     1     -86.968 -12.968  15.014  1.00  0.00    -0.332 OA
BRANCH  28  29
HETATM   29  C19 UNL     1     -86.999 -13.918  15.986  1.00  0.00     0.147 C
HETATM   30  S1  UNL     1     -85.739 -13.972  17.059  1.00  0.00    -0.054 SA
BRANCH  29  31
HETATM   31  C20 UNL     1     -88.053 -14.913  16.183  1.00  0.00     0.109 C
HETATM   32  C21 UNL     1     -88.341 -15.801  15.011  1.00  0.00     0.053 C
HETATM   33  C22 UNL     1     -87.706 -15.815  17.343  1.00  0.00     0.053 C
BRANCH  31  34
HETATM   34  O3  UNL     1     -89.203 -14.201  16.583  1.00  0.00    -0.383 OA
ATOM     35  H3  UNL     1     -88.941 -13.657  17.316  1.00  0.00     0.211 HD
ENDBRANCH  31  34
ENDBRANCH  29  31
ENDBRANCH  28  29
ENDBRANCH   5  28
TORSDOF 11
ENDMDL