MODEL 5
REMARK VINA RESULT: -7.064288894      3.432      5.758
REMARK  9 active torsions:
REMARK  status: ('A' for Active; 'I' for Inactive)
REMARK    1  A    between atoms: C2_2  and  C22_31
REMARK    2  A    between atoms: C3_3  and  C4_4
REMARK    3  A    between atoms: C5_5  and  C6_6
REMARK    4  A    between atoms: C9_9  and  C10_10
REMARK    5  A    between atoms: C19_22  and  O3_23
REMARK    6  A    between atoms: C19_22  and  C20_25
REMARK    7  A    between atoms: C20_25  and  O4_26
REMARK    8  A    between atoms: C20_25  and  C21_28
REMARK    9  A    between atoms: C21_28  and  O5_29
ROOT
HETATM    1  C6  UNL     1     -89.761 -13.966  11.371  1.00  0.00     0.026 C
HETATM    2  C7  UNL     1     -89.660 -12.505  11.674  1.00  0.00     0.018 C
HETATM    3  C8  UNL     1     -88.189 -12.153  11.435  1.00  0.00     0.011 C
HETATM    4  C9  UNL     1     -87.960 -12.887  10.137  1.00  0.00     0.030 C
HETATM    5  C14 UNL     1     -88.674 -14.187  10.340  1.00  0.00    -0.021 C
HETATM    6  C15 UNL     1     -87.784 -15.298  10.873  1.00  0.00     0.017 C
HETATM    7  C16 UNL     1     -89.161 -14.652   9.005  1.00  0.00     0.018 C
HETATM    8  C17 UNL     1     -90.053 -15.874   9.060  1.00  0.00     0.082 C
HETATM    9  C18 UNL     1     -91.029 -15.634  10.146  1.00  0.00     0.165 C
HETATM   10  O2  UNL     1     -91.723 -16.547  10.519  1.00  0.00    -0.294 OA
HETATM   11  C19 UNL     1     -91.131 -14.298  10.744  1.00  0.00     0.157 C
ENDROOT
BRANCH  11  12
HETATM   12  O3  UNL     1     -91.409 -13.276   9.829  1.00  0.00    -0.378 OA
ATOM     13  H3  UNL     1     -92.275 -12.949  10.042  1.00  0.00     0.211 HD
ENDBRANCH  11  12
BRANCH  11  14
HETATM   14  C20 UNL     1     -92.208 -14.261  11.770  1.00  0.00     0.184 C
BRANCH  14  15
HETATM   15  O4  UNL     1     -92.568 -15.552  12.160  1.00  0.00    -0.390 OA
ATOM     16  H4  UNL     1     -91.842 -16.155  12.047  1.00  0.00     0.210 HD
ENDBRANCH  14  15
BRANCH  14  17
HETATM   17  C21 UNL     1     -93.470 -13.560  11.325  1.00  0.00     0.199 C
BRANCH  17  18
HETATM   18  O5  UNL     1     -94.123 -13.170  12.520  1.00  0.00    -0.398 OA
ATOM     19  H5  UNL     1     -94.065 -13.924  13.096  1.00  0.00     0.209 HD
ENDBRANCH  17  18
ENDBRANCH  14  17
ENDBRANCH  11  14
BRANCH   1  20
HETATM   20  C5  UNL     1     -89.521 -14.741  12.599  1.00  0.00    -0.013 C
HETATM   21  C4  UNL     1     -89.365 -14.307  13.813  1.00  0.00    -0.003 C
BRANCH  21  22
HETATM   22  C3  UNL     1     -89.131 -15.164  14.964  1.00  0.00     0.003 C
HETATM   23  C2  UNL     1     -87.986 -15.159  15.608  1.00  0.00    -0.074 C
HETATM   24  C1  UNL     1     -86.876 -14.251  15.162  1.00  0.00     0.044 C
BRANCH  23  25
HETATM   25  C22 UNL     1     -87.740 -16.031  16.783  1.00  0.00     0.119 C
HETATM   26  S1  UNL     1     -88.134 -17.748  16.356  1.00  0.00    -0.093 SA
ENDBRANCH  23  25
ENDBRANCH  21  22
ENDBRANCH   1  20
BRANCH   4  27
HETATM   27  C10 UNL     1     -86.556 -12.983   9.744  1.00  0.00    -0.028 A
HETATM   28  C11 UNL     1     -85.468 -12.982  10.622  1.00  0.00     0.150 A
HETATM   29  O1  UNL     1     -84.369 -13.090   9.919  1.00  0.00    -0.315 OA
HETATM   30  C12 UNL     1     -84.614 -13.166   8.636  1.00  0.00     0.121 A
HETATM   31 BR1  UNL     1     -83.307 -13.335   7.226  1.00  0.00    -0.023 Br
HETATM   32  C13 UNL     1     -85.981 -13.101   8.498  1.00  0.00     0.054 A
ENDBRANCH   4  27
TORSDOF 9
ENDMDL