MODEL 3
REMARK VINA RESULT: -8.899064753      2.331      3.554
REMARK  7 active torsions:
REMARK  status: ('A' for Active; 'I' for Inactive)
REMARK    1  A    between atoms: N1_2  and  C2_4
REMARK    2  A    between atoms: C5_11  and  O1_12
REMARK    3  A    between atoms: O1_12  and  C6_13
REMARK    4  A    between atoms: N5_20  and  C11_22
REMARK    5  A    between atoms: C11_22  and  C12_23
REMARK    6  A    between atoms: C14_25  and  O2_26
REMARK    7  A    between atoms: C18_30  and  N6_31
ROOT
HETATM    1  C6  UNL     1     -88.759 -13.662   6.743  1.00  0.00     0.079 A
HETATM    2  C7  UNL     1     -88.372 -12.619   5.888  1.00  0.00     0.040 A
HETATM    3  C8  UNL     1     -87.072 -12.164   5.870  1.00  0.00     0.035 A
HETATM    4  C9  UNL     1     -86.093 -12.694   6.673  1.00  0.00     0.069 A
HETATM    5  N4  UNL     1     -84.780 -12.470   6.876  1.00  0.00    -0.320 N
ATOM      6  H4  UNL     1     -84.214 -11.768   6.398  1.00  0.00     0.169 HD
HETATM    7  C10 UNL     1     -84.340 -13.330   7.818  1.00  0.00     0.225 A
HETATM    8  N5  UNL     1     -83.122 -13.423   8.287  1.00  0.00    -0.352 N
ATOM      9  H5  UNL     1     -82.906 -14.116   9.002  1.00  0.00     0.163 HD
HETATM   10  O5  UNL     1     -85.370 -14.053   8.171  1.00  0.00    -0.277 OA
HETATM   11  C19 UNL     1     -86.454 -13.719   7.519  1.00  0.00     0.108 A
HETATM   12  C20 UNL     1     -87.774 -14.188   7.542  1.00  0.00     0.077 A
ENDROOT
BRANCH   1  13
HETATM   13  O1  UNL     1     -90.074 -14.083   6.721  1.00  0.00    -0.308 OA
BRANCH  13  14
HETATM   14  C5  UNL     1     -90.832 -14.447   7.827  1.00  0.00     0.116 A
HETATM   15  C4  UNL     1     -91.689 -13.521   8.409  1.00  0.00     0.072 A
HETATM   16  C3  UNL     1     -92.437 -13.877   9.500  1.00  0.00     0.065 A
HETATM   17  N3  UNL     1     -93.343 -13.192  10.263  1.00  0.00    -0.298 N
HETATM   18  C23 UNL     1     -92.393 -15.137  10.077  1.00  0.00     0.040 A
HETATM   19  N2  UNL     1     -93.817 -13.960  11.225  1.00  0.00    -0.285 N
ATOM     20  H3  UNL     1     -93.615 -12.222  10.109  1.00  0.00     0.187 HD
HETATM   21  C2  UNL     1     -93.258 -15.180  11.153  1.00  0.00     0.128 A
ATOM     22  H2  UNL     1     -94.505 -13.671  11.921  1.00  0.00     0.188 HD
HETATM   23  C22 UNL     1     -91.534 -16.032   9.477  1.00  0.00     0.062 A
HETATM   24  C21 UNL     1     -90.759 -15.701   8.366  1.00  0.00     0.151 A
HETATM   25  F1  UNL     1     -89.949 -16.657   7.856  1.00  0.00    -0.203 F
BRANCH  21  26
HETATM   26  N1  UNL     1     -93.441 -16.221  11.899  1.00  0.00    -0.379 N
HETATM   27  C1  UNL     1     -94.127 -17.392  11.454  1.00  0.00     0.147 C
ATOM     28  H1  UNL     1     -93.078 -16.205  12.852  1.00  0.00     0.160 HD
ENDBRANCH  21  26
ENDBRANCH  13  14
ENDBRANCH   1  13
BRANCH   8  29
HETATM   29  C11 UNL     1     -82.071 -12.541   7.793  1.00  0.00     0.164 C
BRANCH  29  30
HETATM   30  C12 UNL     1     -81.156 -13.359   6.958  1.00  0.00    -0.005 A
HETATM   31  C13 UNL     1     -80.086 -14.038   7.548  1.00  0.00     0.048 A
HETATM   32  C14 UNL     1     -79.205 -14.827   6.844  1.00  0.00     0.068 A
HETATM   33  C16 UNL     1     -79.397 -14.947   5.486  1.00  0.00     0.039 A
HETATM   34  C17 UNL     1     -80.429 -14.304   4.849  1.00  0.00     0.039 A
HETATM   35  C18 UNL     1     -81.315 -13.503   5.597  1.00  0.00     0.111 A
BRANCH  32  36
HETATM   36  O2  UNL     1     -78.154 -15.479   7.503  1.00  0.00    -0.356 OA
HETATM   37  C15 UNL     1     -78.296 -16.841   7.855  1.00  0.00     0.210 C
ENDBRANCH  32  36
BRANCH  35  38
HETATM   38  N6  UNL     1     -82.356 -12.836   4.904  1.00  0.00    -0.115 N
HETATM   39  O3  UNL     1     -82.329 -11.611   4.779  1.00  0.00    -0.532 OA
HETATM   40  O4  UNL     1     -83.426 -13.560   4.361  1.00  0.00    -0.532 OA
ENDBRANCH  35  38
ENDBRANCH  29  30
ENDBRANCH   8  29
TORSDOF 7
ENDMDL