MODEL 1
REMARK VINA RESULT: -7.784048539      0.000      0.000
REMARK  7 active torsions:
REMARK  status: ('A' for Active; 'I' for Inactive)
REMARK    1  A    between atoms: C2_2  and  C3_3
REMARK    2  A    between atoms: C3_3  and  C4_4
REMARK    3  A    between atoms: C3_3  and  C6_7
REMARK    4  A    between atoms: C9_11  and  O1_12
REMARK    5  A    between atoms: C14_20  and  C15_21
REMARK    6  A    between atoms: C18_24  and  O2_25
REMARK    7  A    between atoms: C20_27  and  O3_28
ROOT
HETATM    1  C4  UNL     1     -86.174 -11.361  11.417  1.00  0.00     0.133 C
HETATM    2  C5  UNL     1     -87.425 -10.664  11.808  1.00  0.00     0.059 C
HETATM    3  N1  UNL     1     -88.393 -10.119  12.133  1.00  0.00    -0.197 NA
ENDROOT
BRANCH   1   4
HETATM    4  C3  UNL     1     -86.565 -12.763  10.989  1.00  0.00     0.032 C
BRANCH   4   5
HETATM    5  C2  UNL     1     -85.727 -13.012   9.720  1.00  0.00     0.006 C
HETATM    6  C1  UNL     1     -86.664 -13.490   8.598  1.00  0.00     0.006 C
ENDBRANCH   4   5
BRANCH   4   7
HETATM    7  C6  UNL     1     -86.184 -13.684  12.080  1.00  0.00    -0.038 A
HETATM    8  C7  UNL     1     -84.859 -14.077  12.265  1.00  0.00     0.030 A
HETATM    9  C8  UNL     1     -84.543 -14.889  13.325  1.00  0.00     0.046 A
HETATM   10 BR1  UNL     1     -82.740 -15.422  13.576  1.00  0.00    -0.048 Br
HETATM   11  C9  UNL     1     -85.486 -15.335  14.222  1.00  0.00     0.110 A
HETATM   12  C10 UNL     1     -86.813 -14.947  14.042  1.00  0.00     0.079 A
HETATM   13  N2  UNL     1     -87.910 -15.230  14.760  1.00  0.00    -0.348 N
HETATM   14  C13 UNL     1     -87.142 -14.120  12.961  1.00  0.00     0.011 A
HETATM   15  C11 UNL     1     -88.977 -14.621  14.196  1.00  0.00     0.111 A
ATOM     16  H2  UNL     1     -87.935 -15.813  15.597  1.00  0.00     0.166 HD
HETATM   17  C12 UNL     1     -88.539 -13.939  13.086  1.00  0.00     0.015 A
HETATM   18  C23 UNL     1     -90.393 -14.323  14.387  1.00  0.00     0.269 C
HETATM   19  C14 UNL     1     -89.688 -13.383  12.410  1.00  0.00     0.155 C
HETATM   20  N3  UNL     1     -90.774 -13.431  13.362  1.00  0.00    -0.343 N
ATOM     21  H3  UNL     1     -91.652 -12.915  13.304  1.00  0.00     0.163 HD
HETATM   22  O4  UNL     1     -91.168 -14.765  15.295  1.00  0.00    -0.266 OA
BRANCH  11  23
HETATM   23  O1  UNL     1     -85.154 -16.158  15.294  1.00  0.00    -0.357 OA
ATOM     24  H1  UNL     1     -85.622 -16.122  16.121  1.00  0.00     0.217 HD
ENDBRANCH  11  23
BRANCH  19  25
HETATM   25  C15 UNL     1     -90.208 -14.272  11.281  1.00  0.00    -0.028 A
HETATM   26  C16 UNL     1     -89.387 -14.701  10.284  1.00  0.00     0.012 A
HETATM   27  C17 UNL     1     -89.938 -15.513   9.285  1.00  0.00     0.040 A
HETATM   28  C18 UNL     1     -91.256 -15.872   9.296  1.00  0.00     0.101 A
HETATM   29  C20 UNL     1     -92.053 -15.407  10.338  1.00  0.00     0.102 A
HETATM   30  C22 UNL     1     -91.541 -14.598  11.350  1.00  0.00     0.049 A
BRANCH  28  31
HETATM   31  O2  UNL     1     -91.793 -16.669   8.311  1.00  0.00    -0.353 OA
HETATM   32  C19 UNL     1     -91.732 -18.050   8.217  1.00  0.00     0.210 C
ENDBRANCH  28  31
BRANCH  29  33
HETATM   33  O3  UNL     1     -93.380 -15.787  10.321  1.00  0.00    -0.353 OA
HETATM   34  C21 UNL     1     -93.928 -16.838  11.070  1.00  0.00     0.210 C
ENDBRANCH  29  33
ENDBRANCH  19  25
ENDBRANCH   4   7
ENDBRANCH   1   4
TORSDOF 7
ENDMDL