MODEL 2
REMARK VINA RESULT: -7.773547692      0.879      1.084
REMARK  9 active torsions:
REMARK  status: ('A' for Active; 'I' for Inactive)
REMARK    1  A    between atoms: C2_2  and  C3_4
REMARK    2  A    between atoms: C4_5  and  O1_6
REMARK    3  A    between atoms: O1_6  and  C5_7
REMARK    4  A    between atoms: C5_7  and  O2_8
REMARK    5  A    between atoms: O2_8  and  C6_9
REMARK    6  A    between atoms: C6_9  and  C7_11
REMARK    7  A    between atoms: C17_21  and  O4_22
REMARK    8  A    between atoms: C21_27  and  O5_28
REMARK    9  A    between atoms: C26_34  and  O6_35
ROOT
HETATM    1  C3  UNL     1     -86.381 -12.255  13.881  1.00  0.00     0.021 C
HETATM    2  C4  UNL     1     -86.427 -12.991  12.791  1.00  0.00     0.068 C
HETATM    3  C10 UNL     1     -87.538 -13.348  11.925  1.00  0.00     0.072 C
HETATM    4  C11 UNL     1     -87.596 -14.854  11.593  1.00  0.00     0.016 C
HETATM    5  C12 UNL     1     -88.248 -14.980  10.294  1.00  0.00     0.013 C
HETATM    6  C13 UNL     1     -89.714 -15.080  10.150  1.00  0.00    -0.012 C
HETATM    7  C14 UNL     1     -90.025 -16.575   9.951  1.00  0.00     0.018 C
HETATM    8  C15 UNL     1     -90.018 -14.453   8.780  1.00  0.00     0.014 C
HETATM    9  C16 UNL     1     -91.310 -13.798   8.600  1.00  0.00     0.033 C
HETATM   10  C17 UNL     1     -92.423 -14.194   9.490  1.00  0.00     0.129 C
HETATM   11  C18 UNL     1     -92.037 -14.504  10.890  1.00  0.00     0.010 C
HETATM   12  C19 UNL     1     -92.759 -13.501  11.808  1.00  0.00     0.020 C
HETATM   13  C20 UNL     1     -92.676 -15.839  11.242  1.00  0.00     0.020 C
HETATM   14  C21 UNL     1     -90.564 -14.463  11.190  1.00  0.00     0.078 C
HETATM   15  C22 UNL     1     -90.085 -13.023  11.402  1.00  0.00     0.074 C
HETATM   16  C23 UNL     1     -88.898 -13.016  12.343  1.00  0.00    -0.070 C
HETATM   17  C24 UNL     1     -89.386 -12.693  13.513  1.00  0.00    -0.020 C
HETATM   18  C25 UNL     1     -88.610 -12.582  14.786  1.00  0.00     0.064 C
HETATM   19  C26 UNL     1     -87.559 -11.522  14.501  1.00  0.00     0.158 C
ENDROOT
BRANCH   2  20
HETATM   20  O1  UNL     1     -85.207 -13.546  12.363  1.00  0.00    -0.329 OA
BRANCH  20  21
HETATM   21  C5  UNL     1     -84.435 -12.830  11.394  1.00  0.00     0.354 C
BRANCH  21  22
HETATM   22  O2  UNL     1     -84.648 -13.393  10.128  1.00  0.00    -0.295 OA
BRANCH  22  23
HETATM   23  C6  UNL     1     -84.827 -12.688   8.971  1.00  0.00     0.264 C
HETATM   24  O3  UNL     1     -84.651 -11.443   8.979  1.00  0.00    -0.265 OA
BRANCH  23  25
HETATM   25  C7  UNL     1     -85.229 -13.335   7.676  1.00  0.00     0.077 C
HETATM   26  C8  UNL     1     -86.688 -13.181   7.407  1.00  0.00     0.020 C
HETATM   27  C9  UNL     1     -84.345 -12.864   6.563  1.00  0.00     0.020 C
ENDBRANCH  23  25
ENDBRANCH  22  23
ENDBRANCH  21  22
ENDBRANCH  20  21
ENDBRANCH   2  20
BRANCH   1  28
HETATM   28  C2  UNL     1     -85.157 -12.046  14.591  1.00  0.00     0.036 C
HETATM   29  C1  UNL     1     -84.468 -10.950  14.554  1.00  0.00     0.037 C
HETATM   30 CL1  UNL     1     -84.531 -13.308  15.647  1.00  0.00    -0.084 Cl
ENDBRANCH   1  28
BRANCH  19  31
HETATM   31  O6  UNL     1     -88.106 -10.651  13.542  1.00  0.00    -0.390 OA
ATOM     32  H6  UNL     1     -88.355 -11.157  12.778  1.00  0.00     0.210 HD
ENDBRANCH  19  31
BRANCH  14  33
HETATM   33  O5  UNL     1     -90.431 -15.018  12.453  1.00  0.00    -0.388 OA
ATOM     34  H5  UNL     1     -90.972 -14.617  13.123  1.00  0.00     0.210 HD
ENDBRANCH  14  33
BRANCH  10  35
HETATM   35  O4  UNL     1     -93.138 -15.252   8.871  1.00  0.00    -0.395 OA
ATOM     36  H4  UNL     1     -93.318 -15.006   7.971  1.00  0.00     0.210 HD
ENDBRANCH  10  35
TORSDOF 9
ENDMDL