MODEL 5
REMARK VINA RESULT: -7.945521014      3.771      6.340
REMARK  10 active torsions:
REMARK  status: ('A' for Active; 'I' for Inactive)
REMARK    1  A    between atoms: C2_2  and  C3_3
REMARK    2  A    between atoms: C3_3  and  O1_4
REMARK    3  A    between atoms: O1_4  and  O2_5
REMARK    4  A    between atoms: C4_7  and  C5_8
REMARK    5  A    between atoms: C5_8  and  C6_9
REMARK    6  A    between atoms: C6_9  and  C7_10
REMARK    7  A    between atoms: C15_18  and  O3_19
REMARK    8  A    between atoms: C18_22  and  O4_23
REMARK    9  A    between atoms: C22_28  and  O5_29
REMARK   10  A    between atoms: C27_35  and  O6_36
ROOT
HETATM    1  C3  UNL     1     -89.198 -13.662  13.621  1.00  0.00     0.145 C
HETATM    2  C4  UNL     1     -89.857 -13.136  12.411  1.00  0.00    -0.042 C
HETATM    3  C11 UNL     1     -89.338 -12.231  11.635  1.00  0.00    -0.020 C
HETATM    4  C12 UNL     1     -87.995 -11.616  11.891  1.00  0.00     0.040 C
HETATM    5  C13 UNL     1     -87.078 -12.678  12.535  1.00  0.00     0.059 C
HETATM    6  C14 UNL     1     -87.797 -13.173  13.712  1.00  0.00    -0.001 C
HETATM    7  C15 UNL     1     -86.983 -13.084  14.763  1.00  0.00     0.062 C
HETATM    8  C17 UNL     1     -85.711 -12.558  14.398  1.00  0.00     0.111 C
HETATM    9  C18 UNL     1     -85.103 -11.484  15.247  1.00  0.00     0.165 C
HETATM   10  C19 UNL     1     -83.862 -11.040  14.496  1.00  0.00    -0.021 A
HETATM   11  C20 UNL     1     -82.942 -10.319  15.271  1.00  0.00     0.013 A
HETATM   12  C21 UNL     1     -81.798  -9.888  14.657  1.00  0.00     0.039 A
HETATM   13  C22 UNL     1     -81.545 -10.147  13.315  1.00  0.00     0.090 A
HETATM   14  C24 UNL     1     -82.468 -10.856  12.585  1.00  0.00     0.074 A
HETATM   15 CL1  UNL     1     -82.215 -11.222  10.880  1.00  0.00    -0.081 Cl
HETATM   16  C25 UNL     1     -83.640 -11.310  13.172  1.00  0.00    -0.022 A
HETATM   17  C26 UNL     1     -84.629 -12.087  12.320  1.00  0.00     0.080 C
HETATM   18  C27 UNL     1     -85.916 -11.910  13.048  1.00  0.00     0.082 C
ENDROOT
BRANCH   2  19
HETATM   19  C5  UNL     1     -91.238 -13.670  12.029  1.00  0.00     0.041 C
BRANCH  19  20
HETATM   20  C6  UNL     1     -91.439 -13.724  10.578  1.00  0.00     0.032 C
BRANCH  20  21
HETATM   21  C7  UNL     1     -91.364 -15.023   9.911  1.00  0.00    -0.024 C
HETATM   22  C8  UNL     1     -90.447 -15.585   9.213  1.00  0.00    -0.091 C
HETATM   23  C9  UNL     1     -90.759 -16.980   8.677  1.00  0.00     0.042 C
HETATM   24  C10 UNL     1     -89.122 -15.070   8.873  1.00  0.00     0.042 C
ENDBRANCH  20  21
ENDBRANCH  19  20
ENDBRANCH   2  19
BRANCH   1  25
HETATM   25  C2  UNL     1     -89.256 -15.180  13.659  1.00  0.00     0.046 C
HETATM   26  C1  UNL     1     -88.412 -15.816  12.604  1.00  0.00     0.009 C
ENDBRANCH   1  25
BRANCH   1  27
HETATM   27  O1  UNL     1     -89.869 -13.251  14.791  1.00  0.00    -0.222 OA
BRANCH  27  28
HETATM   28  O2  UNL     1     -90.305 -14.277  15.480  1.00  0.00    -0.249 OA
ATOM     29  H2  UNL     1     -90.128 -14.174  16.408  1.00  0.00     0.253 HD
ENDBRANCH  27  28
ENDBRANCH   1  27
BRANCH   7  30
HETATM   30  O3  UNL     1     -87.419 -13.488  16.017  1.00  0.00    -0.359 OA
HETATM   31  C16 UNL     1     -86.983 -14.601  16.736  1.00  0.00     0.209 C
ENDBRANCH   7  30
BRANCH  18  32
HETATM   32  O6  UNL     1     -86.147 -10.539  13.131  1.00  0.00    -0.388 OA
ATOM     33  H6  UNL     1     -85.359 -10.030  13.281  1.00  0.00     0.210 HD
ENDBRANCH  18  32
BRANCH   9  34
HETATM   34  O4  UNL     1     -85.896 -10.390  15.475  1.00  0.00    -0.390 OA
ATOM     35  H4  UNL     1     -85.517  -9.553  15.237  1.00  0.00     0.210 HD
ENDBRANCH   9  34
BRANCH  13  36
HETATM   36  O5  UNL     1     -80.388  -9.711  12.694  1.00  0.00    -0.354 OA
HETATM   37  C23 UNL     1     -79.688  -8.627  13.268  1.00  0.00     0.210 C
ENDBRANCH  13  36
TORSDOF 10
ENDMDL