MODEL 4
REMARK VINA RESULT: -7.433845460      0.891      1.119
REMARK  12 active torsions:
REMARK  status: ('A' for Active; 'I' for Inactive)
REMARK    1  A    between atoms: O1_2  and  C2_3
REMARK    2  A    between atoms: C5_6  and  N1_7
REMARK    3  A    between atoms: N1_7  and  C6_9
REMARK    4  A    between atoms: C6_9  and  N2_11
REMARK    5  A    between atoms: N2_11  and  N3_12
REMARK    6  A    between atoms: N2_11  and  C7_15
REMARK    7  A    between atoms: C7_15  and  C8_16
REMARK    8  A    between atoms: C8_16  and  C9_17
REMARK    9  A    between atoms: C9_17  and  N4_18
REMARK   10  A    between atoms: N4_18  and  C10_20
REMARK   11  A    between atoms: C14_28  and  C15_29
REMARK   12  A    between atoms: C24_39  and  O2_40
ROOT
HETATM    1  C9  UNL     1     -85.751 -15.793   6.929  1.00  0.00     0.123 C
ENDROOT
BRANCH   1   2
HETATM    2  C8  UNL     1     -84.433 -15.981   7.656  1.00  0.00     0.041 C
BRANCH   2   3
HETATM    3  C7  UNL     1     -84.349 -14.939   8.714  1.00  0.00     0.152 C
BRANCH   3   4
HETATM    4  N2  UNL     1     -84.196 -15.550  10.022  1.00  0.00    -0.274 N
BRANCH   4   5
HETATM    5  C6  UNL     1     -84.352 -14.724  11.143  1.00  0.00     0.193 C
HETATM    6  S1  UNL     1     -83.011 -14.289  12.011  1.00  0.00    -0.039 SA
BRANCH   5   7
HETATM    7  N1  UNL     1     -85.592 -14.249  11.567  1.00  0.00    -0.332 N
ATOM      8  H1  UNL     1     -85.791 -13.256  11.440  1.00  0.00     0.168 HD
BRANCH   7   9
HETATM    9  C5  UNL     1     -86.587 -15.048  12.160  1.00  0.00     0.037 A
HETATM   10  C4  UNL     1     -87.945 -14.820  11.938  1.00  0.00     0.032 A
HETATM   11  C3  UNL     1     -88.876 -15.641  12.530  1.00  0.00     0.042 A
HETATM   12  C2  UNL     1     -88.494 -16.686  13.339  1.00  0.00     0.101 A
HETATM   13  C24 UNL     1     -87.159 -16.924  13.567  1.00  0.00     0.103 A
HETATM   14  C23 UNL     1     -86.225 -16.112  12.982  1.00  0.00     0.069 A
BRANCH  12  15
HETATM   15  O1  UNL     1     -89.443 -17.526  13.945  1.00  0.00    -0.353 OA
HETATM   16  C1  UNL     1     -90.274 -16.982  14.931  1.00  0.00     0.210 C
ENDBRANCH  12  15
BRANCH  13  17
HETATM   17  O2  UNL     1     -86.747 -17.985  14.389  1.00  0.00    -0.353 OA
HETATM   18  C25 UNL     1     -86.410 -17.762  15.739  1.00  0.00     0.210 C
ENDBRANCH  13  17
ENDBRANCH   7   9
ENDBRANCH   5   7
ENDBRANCH   4   5
BRANCH   4  19
HETATM   19  N3  UNL     1     -83.909 -16.910  10.049  1.00  0.00    -0.341 N
ATOM     20  H32 UNL     1     -83.629 -17.303  10.948  1.00  0.00     0.177 HD
ATOM     21  H31 UNL     1     -83.952 -17.544   9.251  1.00  0.00     0.177 HD
ENDBRANCH   4  19
ENDBRANCH   3   4
ENDBRANCH   2   3
ENDBRANCH   1   2
BRANCH   1  22
HETATM   22  N4  UNL     1     -86.747 -16.744   7.386  1.00  0.00    -0.375 N
ATOM     23  H4  UNL     1     -86.480 -17.514   7.999  1.00  0.00     0.161 HD
BRANCH  22  24
HETATM   24  C10 UNL     1     -87.959 -16.610   7.014  1.00  0.00     0.115 A
HETATM   25  N5  UNL     1     -88.273 -16.075   5.803  1.00  0.00    -0.338 N
HETATM   26  C11 UNL     1     -89.553 -15.936   5.417  1.00  0.00     0.182 A
ATOM     27  H5  UNL     1     -87.525 -15.774   5.178  1.00  0.00     0.168 HD
HETATM   28  N6  UNL     1     -90.575 -16.312   6.195  1.00  0.00    -0.351 N
HETATM   29  C12 UNL     1     -90.320 -16.847   7.401  1.00  0.00     0.048 A
ATOM     30  H6  UNL     1     -91.537 -16.194   5.876  1.00  0.00     0.166 HD
HETATM   31  C13 UNL     1     -91.384 -17.228   8.187  1.00  0.00     0.041 A
HETATM   32  C22 UNL     1     -88.993 -17.000   7.822  1.00  0.00     0.043 A
HETATM   33  C14 UNL     1     -91.169 -17.783   9.434  1.00  0.00    -0.009 A
HETATM   34  C19 UNL     1     -89.874 -17.932   9.846  1.00  0.00     0.130 A
HETATM   35  F1  UNL     1     -89.581 -18.471  11.053  1.00  0.00    -0.205 F
HETATM   36  C20 UNL     1     -88.759 -17.554   9.069  1.00  0.00    -0.007 A
HETATM   37  C21 UNL     1     -87.397 -17.734   9.556  1.00  0.00     0.052 C
BRANCH  33  38
HETATM   38  C15 UNL     1     -92.272 -18.205  10.319  1.00  0.00    -0.021 C
HETATM   39  C16 UNL     1     -93.549 -17.519   9.805  1.00  0.00     0.019 C
HETATM   40  C17 UNL     1     -92.118 -17.719  11.742  1.00  0.00     0.019 C
HETATM   41  C18 UNL     1     -92.527 -19.692  10.248  1.00  0.00     0.019 C
ENDBRANCH  33  38
ENDBRANCH  22  24
ENDBRANCH   1  22
TORSDOF 12
ENDMDL