MODEL 2
REMARK VINA RESULT: -7.313324234      2.999      7.095
REMARK  8 active torsions:
REMARK  status: ('A' for Active; 'I' for Inactive)
REMARK    1  A    between atoms: O1_1  and  C1_3
REMARK    2  A    between atoms: N3_12  and  C5_13
REMARK    3  A    between atoms: C5_13  and  C6_14
REMARK    4  A    between atoms: C10_19  and  O2_20
REMARK    5  A    between atoms: O2_20  and  C11_21
REMARK    6  A    between atoms: C11_21  and  C12_22
REMARK    7  A    between atoms: C14_25  and  C15_26
REMARK    8  A    between atoms: C15_26  and  N4_27
ROOT
HETATM    1  C1  UNL     1     -90.188 -17.365  14.661  1.00  0.00     0.152 A
HETATM    2  N1  UNL     1     -89.073 -17.995  15.133  1.00  0.00    -0.321 N
ATOM      3  H1  UNL     1     -89.001 -18.448  16.044  1.00  0.00     0.169 HD
HETATM    4  C2  UNL     1     -88.097 -17.936  14.239  1.00  0.00     0.140 A
HETATM    5  C3  UNL     1     -88.588 -17.254  13.160  1.00  0.00     0.091 A
HETATM    6  N2  UNL     1     -87.594 -17.226  12.265  1.00  0.00    -0.329 N
ATOM      7  H2  UNL     1     -87.631 -16.791  11.343  1.00  0.00     0.168 HD
HETATM    8  C4  UNL     1     -86.522 -17.881  12.795  1.00  0.00     0.180 A
HETATM    9  S1  UNL     1     -85.119 -18.072  11.998  1.00  0.00    -0.040 SA
HETATM   10  N3  UNL     1     -86.821 -18.327  14.019  1.00  0.00    -0.304 N
HETATM   11  C14 UNL     1     -89.926 -16.881  13.419  1.00  0.00     0.051 A
ENDROOT
BRANCH  10  12
HETATM   12  C5  UNL     1     -85.978 -19.042  14.953  1.00  0.00     0.171 C
BRANCH  12  13
HETATM   13  C6  UNL     1     -86.370 -20.455  15.131  1.00  0.00    -0.037 A
HETATM   14  C7  UNL     1     -85.735 -21.443  14.483  1.00  0.00     0.010 A
HETATM   15  C8  UNL     1     -86.095 -22.792  14.662  1.00  0.00     0.023 A
HETATM   16  C9  UNL     1     -87.114 -23.080  15.520  1.00  0.00     0.045 A
HETATM   17  S2  UNL     1     -87.616 -24.810  15.748  1.00  0.00    -0.050 SA
HETATM   18  C10 UNL     1     -87.810 -22.074  16.226  1.00  0.00     0.086 A
HETATM   19  C13 UNL     1     -87.409 -20.770  16.005  1.00  0.00     0.047 A
BRANCH  18  20
HETATM   20  O2  UNL     1     -88.805 -22.488  17.062  1.00  0.00    -0.349 OA
BRANCH  20  21
HETATM   21  C11 UNL     1     -90.141 -22.186  17.048  1.00  0.00     0.186 C
BRANCH  21  22
HETATM   22  C12 UNL     1     -90.988 -23.379  16.735  1.00  0.00     0.112 C
HETATM   23 BR1  UNL     1     -92.847 -22.797  16.573  1.00  0.00    -0.094 Br
ENDBRANCH  21  22
ENDBRANCH  20  21
ENDBRANCH  18  20
ENDBRANCH  12  13
ENDBRANCH  10  12
BRANCH   1  24
HETATM   24  O1  UNL     1     -91.372 -17.251  15.356  1.00  0.00    -0.346 OA
ATOM     25  H1  UNL     1     -91.962 -17.975  15.534  1.00  0.00     0.219 HD
ENDBRANCH   1  24
BRANCH  11  26
HETATM   26  C15 UNL     1     -90.795 -16.172  12.421  1.00  0.00     0.317 C
BRANCH  26  27
HETATM   27  N4  UNL     1     -91.724 -17.148  11.851  1.00  0.00     0.092 N
HETATM   28  C16 UNL     1     -92.918 -16.419  11.381  1.00  0.00     0.272 C
HETATM   29  C17 UNL     1     -93.586 -17.280  10.350  1.00  0.00     0.030 C
HETATM   30  C18 UNL     1     -93.293 -18.750  10.518  1.00  0.00     0.003 C
HETATM   31  C19 UNL     1     -91.795 -18.931  10.244  1.00  0.00     0.030 C
HETATM   32  C20 UNL     1     -91.089 -17.672  10.602  1.00  0.00     0.272 C
ENDBRANCH  26  27
ENDBRANCH  11  26
TORSDOF 8
ENDMDL