MODEL 2
REMARK VINA RESULT: -8.234173159      0.942      1.664
REMARK  11 active torsions:
REMARK  status: ('A' for Active; 'I' for Inactive)
REMARK    1  A    between atoms: C2_2  and  O1_3
REMARK    2  A    between atoms: O1_3  and  C3_4
REMARK    3  A    between atoms: C6_7  and  C7_8
REMARK    4  A    between atoms: C7_8  and  O2_9
REMARK    5  A    between atoms: C7_8  and  N1_11
REMARK    6  A    between atoms: N1_11  and  C8_12
REMARK    7  A    between atoms: N1_11  and  C12_16
REMARK    8  A    between atoms: C8_12  and  C9_13
REMARK    9  A    between atoms: C13_17  and  O3_18
REMARK   10  A    between atoms: C16_24  and  O4_25
REMARK   11  A    between atoms: C23_35  and  O6_36
ROOT
HETATM    1  N1  UNL     1     -90.176 -17.791   9.233  1.00  0.00    -0.297 N
ENDROOT
BRANCH   1   2
HETATM    2  C7  UNL     1     -90.557 -16.915  10.239  1.00  0.00     0.157 C
BRANCH   2   3
HETATM    3  C6  UNL     1     -90.047 -16.582  11.545  1.00  0.00     0.018 A
HETATM    4  C5  UNL     1     -89.518 -15.294  11.736  1.00  0.00     0.018 A
HETATM    5  C4  UNL     1     -89.055 -14.922  12.982  1.00  0.00     0.040 A
HETATM    6  C3  UNL     1     -89.075 -15.738  14.074  1.00  0.00     0.102 A
HETATM    7  C23 UNL     1     -89.589 -17.007  13.911  1.00  0.00     0.102 A
HETATM    8  C22 UNL     1     -90.058 -17.388  12.651  1.00  0.00     0.055 A
BRANCH   6   9
HETATM    9  O1  UNL     1     -88.595 -15.298  15.292  1.00  0.00    -0.349 OA
BRANCH   9  10
HETATM   10  C2  UNL     1     -87.199 -15.302  15.518  1.00  0.00     0.171 C
HETATM   11  C1  UNL     1     -86.894 -15.721  16.933  1.00  0.00     0.034 C
ENDBRANCH   9  10
ENDBRANCH   6   9
BRANCH   7  12
HETATM   12  O6  UNL     1     -89.627 -17.868  15.000  1.00  0.00    -0.353 OA
HETATM   13  C24 UNL     1     -88.598 -18.727  15.372  1.00  0.00     0.210 C
ENDBRANCH   7  12
ENDBRANCH   2   3
BRANCH   2  14
HETATM   14  O2  UNL     1     -91.658 -16.191   9.967  1.00  0.00    -0.345 OA
ATOM     15  H2  UNL     1     -92.161 -16.600   9.273  1.00  0.00     0.219 HD
ENDBRANCH   2  14
ENDBRANCH   1   2
BRANCH   1  16
HETATM   16  C8  UNL     1     -90.498 -19.124   9.051  1.00  0.00     0.101 C
BRANCH  16  17
HETATM   17  C9  UNL     1     -91.846 -19.678   8.978  1.00  0.00    -0.072 C
HETATM   18  C10 UNL     1     -92.700 -19.819  10.172  1.00  0.00     0.044 C
HETATM   19  C11 UNL     1     -91.947 -20.941   8.132  1.00  0.00     0.044 C
ENDBRANCH  16  17
ENDBRANCH   1  16
BRANCH   1  20
HETATM   20  C12 UNL     1     -89.332 -17.161   8.210  1.00  0.00     0.105 A
HETATM   21  C13 UNL     1     -89.911 -16.708   7.056  1.00  0.00     0.169 A
HETATM   22  N2  UNL     1     -88.930 -16.188   6.307  1.00  0.00    -0.334 N
HETATM   23  C14 UNL     1     -87.752 -16.292   6.934  1.00  0.00     0.050 A
ATOM     24  H2  UNL     1     -89.063 -15.771   5.386  1.00  0.00     0.168 HD
HETATM   25  C15 UNL     1     -86.449 -15.918   6.604  1.00  0.00     0.070 A
HETATM   26  C21 UNL     1     -88.018 -16.918   8.155  1.00  0.00     0.036 A
HETATM   27  C16 UNL     1     -85.428 -16.169   7.488  1.00  0.00     0.102 A
HETATM   28  C17 UNL     1     -85.671 -16.788   8.703  1.00  0.00     0.121 A
HETATM   29  O5  UNL     1     -84.885 -17.136   9.704  1.00  0.00    -0.299 OA
HETATM   30  C20 UNL     1     -86.971 -17.154   9.016  1.00  0.00     0.019 A
HETATM   31  C18 UNL     1     -85.577 -17.704  10.652  1.00  0.00     0.123 A
HETATM   32 BR1  UNL     1     -84.816 -18.359  12.288  1.00  0.00    -0.023 Br
HETATM   33  C19 UNL     1     -86.908 -17.730  10.244  1.00  0.00     0.060 A
BRANCH  21  34
HETATM   34  O3  UNL     1     -91.240 -16.736   6.653  1.00  0.00    -0.344 OA
ATOM     35  H3  UNL     1     -91.673 -16.273   5.946  1.00  0.00     0.219 HD
ENDBRANCH  21  34
BRANCH  27  36
HETATM   36  O4  UNL     1     -84.132 -15.805   7.180  1.00  0.00    -0.358 OA
ATOM     37  H4  UNL     1     -83.638 -16.289   6.529  1.00  0.00     0.217 HD
ENDBRANCH  27  36
ENDBRANCH   1  20
TORSDOF 11
ENDMDL