MODEL 4
REMARK VINA RESULT: -8.196511507      3.624      7.369
REMARK  10 active torsions:
REMARK  status: ('A' for Active; 'I' for Inactive)
REMARK    1  A    between atoms: C2_2  and  C3_3
REMARK    2  A    between atoms: C3_3  and  C4_4
REMARK    3  A    between atoms: C7_7  and  O1_8
REMARK    4  A    between atoms: C9_10  and  O2_11
REMARK    5  A    between atoms: C11_13  and  O3_14
REMARK    6  A    between atoms: C14_17  and  C15_18
REMARK    7  A    between atoms: C15_18  and  S1_19
REMARK    8  A    between atoms: S1_19  and  C16_20
REMARK    9  A    between atoms: C20_26  and  N2_27
REMARK   10  A    between atoms: N4_35  and  C24_36
ROOT
HETATM    1  C4  UNL     1     -89.342 -17.251   9.000  1.00  0.00     0.042 A
HETATM    2  C5  UNL     1     -88.691 -17.487  10.270  1.00  0.00     0.007 A
HETATM    3  C6  UNL     1     -89.516 -17.591  11.392  1.00  0.00     0.054 A
HETATM    4  C7  UNL     1     -88.989 -17.655  12.675  1.00  0.00     0.105 A
HETATM    5  C9  UNL     1     -87.639 -17.615  12.856  1.00  0.00     0.136 A
HETATM    6  C11 UNL     1     -86.820 -17.503  11.700  1.00  0.00     0.116 A
HETATM    7  C13 UNL     1     -87.293 -17.435  10.440  1.00  0.00     0.021 A
HETATM    8  C14 UNL     1     -86.416 -17.125   9.315  1.00  0.00    -0.019 A
HETATM    9  C23 UNL     1     -87.032 -16.898   8.150  1.00  0.00     0.100 A
HETATM   10  N4  UNL     1     -88.398 -16.936   7.914  1.00  0.00    -0.348 N
ENDROOT
BRANCH   8  11
HETATM   11  C15 UNL     1     -84.967 -16.926   9.459  1.00  0.00     0.120 C
BRANCH  11  12
HETATM   12  S1  UNL     1     -84.323 -15.417   8.792  1.00  0.00    -0.125 SA
BRANCH  12  13
HETATM   13  C16 UNL     1     -83.654 -15.639   7.161  1.00  0.00     0.003 A
HETATM   14  C17 UNL     1     -84.547 -15.604   6.088  1.00  0.00     0.021 A
HETATM   15  C18 UNL     1     -84.144 -15.862   4.797  1.00  0.00     0.034 A
HETATM   16  C19 UNL     1     -82.807 -16.165   4.583  1.00  0.00     0.076 A
HETATM   17  N1  UNL     1     -82.193 -16.481   3.409  1.00  0.00    -0.190 N
HETATM   18  C21 UNL     1     -81.904 -16.207   5.614  1.00  0.00     0.077 A
HETATM   19  C20 UNL     1     -80.891 -16.719   3.740  1.00  0.00     0.676 A
ATOM     20  H1  UNL     1     -82.615 -16.529   2.481  1.00  0.00     0.184 HD
HETATM   21  N3  UNL     1     -80.735 -16.552   5.055  1.00  0.00    -0.190 N
ATOM     22  H3  UNL     1     -79.857 -16.670   5.559  1.00  0.00     0.184 HD
HETATM   23  C22 UNL     1     -82.330 -15.944   6.891  1.00  0.00     0.051 A
BRANCH  19  24
HETATM   24  N2  UNL     1     -80.012 -17.064   2.844  1.00  0.00    -0.234 N
ATOM     25  H22 UNL     1     -80.127 -17.657   2.022  1.00  0.00     0.174 HD
ATOM     26  H21 UNL     1     -79.048 -16.733   2.886  1.00  0.00     0.174 HD
ENDBRANCH  19  24
ENDBRANCH  12  13
ENDBRANCH  11  12
ENDBRANCH   8  11
BRANCH   6  27
HETATM   27  O3  UNL     1     -85.489 -17.461  12.058  1.00  0.00    -0.352 OA
HETATM   28  C12 UNL     1     -84.824 -18.678  12.510  1.00  0.00     0.210 C
ENDBRANCH   6  27
BRANCH  10  29
HETATM   29  C24 UNL     1     -88.967 -16.706   6.612  1.00  0.00     0.126 A
HETATM   30  C25 UNL     1     -88.079 -16.909   5.391  1.00  0.00     0.068 A
HETATM   31  C26 UNL     1     -88.640 -15.573   5.748  1.00  0.00     0.195 A
HETATM   32  F1  UNL     1     -87.743 -14.625   6.175  1.00  0.00    -0.247 F
ENDBRANCH  10  29
BRANCH   1  33
HETATM   33  C3  UNL     1     -90.578 -17.489   8.674  1.00  0.00     0.003 C
BRANCH  33  34
HETATM   34  C2  UNL     1     -91.840 -16.776   8.704  1.00  0.00     0.025 C
HETATM   35  C1  UNL     1     -92.847 -17.511   9.636  1.00  0.00     0.009 C
ENDBRANCH  33  34
ENDBRANCH   1  33
BRANCH   5  36
HETATM   36  O2  UNL     1     -87.138 -17.687  14.131  1.00  0.00    -0.351 OA
HETATM   37  C10 UNL     1     -86.864 -16.640  14.989  1.00  0.00     0.210 C
ENDBRANCH   5  36
BRANCH   4  38
HETATM   38  O1  UNL     1     -89.802 -17.755  13.765  1.00  0.00    -0.353 OA
HETATM   39  C8  UNL     1     -90.569 -16.797  14.403  1.00  0.00     0.210 C
ENDBRANCH   4  38
TORSDOF 10
ENDMDL