MODEL 3
REMARK VINA RESULT: -7.900807873      3.046      8.954
REMARK  13 active torsions:
REMARK  status: ('A' for Active; 'I' for Inactive)
REMARK    1  A    between atoms: C3_3  and  C4_4
REMARK    2  A    between atoms: C4_4  and  C5_5
REMARK    3  A    between atoms: C5_5  and  C6_6
REMARK    4  A    between atoms: C8_8  and  N1_9
REMARK    5  A    between atoms: C10_11  and  C11_12
REMARK    6  A    between atoms: C11_12  and  O1_13
REMARK    7  A    between atoms: C11_12  and  N2_15
REMARK    8  A    between atoms: C14_19  and  C15_20
REMARK    9  A    between atoms: N4_26  and  C19_27
REMARK   10  A    between atoms: C19_27  and  C20_28
REMARK   11  A    between atoms: C20_28  and  C21_29
REMARK   12  A    between atoms: C21_29  and  O2_30
REMARK   13  A    between atoms: C24_33  and  O3_34
ROOT
HETATM    1  C11 UNL     1     -89.115 -17.750  15.498  1.00  0.00     0.255 C
ENDROOT
BRANCH   1   2
HETATM    2  C10 UNL     1     -88.990 -16.983  14.217  1.00  0.00     0.010 A
HETATM    3  C9  UNL     1     -88.703 -17.460  12.963  1.00  0.00     0.111 A
HETATM    4  N1  UNL     1     -88.645 -16.415  12.086  1.00  0.00    -0.302 N
HETATM    5  C24 UNL     1     -88.884 -15.295  12.746  1.00  0.00     0.147 A
HETATM    6  C23 UNL     1     -89.102 -15.628  14.071  1.00  0.00     0.069 A
BRANCH   4   7
HETATM    7  C8  UNL     1     -88.384 -16.581  10.708  1.00  0.00     0.042 A
HETATM    8  C7  UNL     1     -87.155 -16.400  10.129  1.00  0.00     0.052 A
HETATM    9  C6  UNL     1     -87.000 -16.552   8.770  1.00  0.00     0.042 A
HETATM   10  C27 UNL     1     -88.065 -16.892   7.934  1.00  0.00     0.052 A
HETATM   11  C26 UNL     1     -89.289 -17.076   8.499  1.00  0.00     0.028 A
HETATM   12 CL1  UNL     1     -87.872 -17.086   6.214  1.00  0.00    -0.083 Cl
HETATM   13  C25 UNL     1     -89.430 -16.922   9.842  1.00  0.00     0.032 A
BRANCH   9  14
HETATM   14  C5  UNL     1     -85.725 -16.346   8.115  1.00  0.00    -0.060 C
BRANCH  14  15
HETATM   15  C4  UNL     1     -84.637 -16.194   7.593  1.00  0.00    -0.073 C
BRANCH  15  16
HETATM   16  C3  UNL     1     -83.364 -16.013   6.947  1.00  0.00     0.060 C
HETATM   17  C2  UNL     1     -83.201 -15.793   5.666  1.00  0.00    -0.022 C
HETATM   18  C1  UNL     1     -84.340 -15.705   4.724  1.00  0.00     0.036 C
ENDBRANCH  15  16
ENDBRANCH  14  15
ENDBRANCH   9  14
ENDBRANCH   4   7
BRANCH   5  19
HETATM   19  O3  UNL     1     -88.915 -13.985  12.231  1.00  0.00    -0.346 OA
ATOM     20  H3  UNL     1     -88.263 -13.303  12.345  1.00  0.00     0.219 HD
ENDBRANCH   5  19
ENDBRANCH   1   2
BRANCH   1  21
HETATM   21  O1  UNL     1     -89.168 -16.780  16.572  1.00  0.00    -0.372 OA
ATOM     22  H1  UNL     1     -89.137 -17.265  17.389  1.00  0.00     0.212 HD
ENDBRANCH   1  21
BRANCH   1  23
HETATM   23  N2  UNL     1     -88.063 -18.577  15.807  1.00  0.00    -0.345 N
HETATM   24  C12 UNL     1     -87.634 -19.716  15.841  1.00  0.00     0.122 A
HETATM   25  C13 UNL     1     -88.222 -20.894  15.472  1.00  0.00     0.077 A
HETATM   26  N4  UNL     1     -86.407 -20.042  16.349  1.00  0.00    -0.277 N
HETATM   27  C14 UNL     1     -87.362 -21.945  15.751  1.00  0.00     0.037 A
HETATM   28  N3  UNL     1     -86.277 -21.342  16.283  1.00  0.00    -0.300 N
ATOM     29  H3  UNL     1     -85.447 -21.844  16.598  1.00  0.00     0.187 HD
ATOM     30  H2  UNL     1     -87.318 -17.977  16.161  1.00  0.00     0.164 HD
BRANCH  27  31
HETATM   31  C15 UNL     1     -87.511 -23.403  15.530  1.00  0.00    -0.007 C
HETATM   32  C16 UNL     1     -88.901 -23.901  15.878  1.00  0.00     0.021 C
HETATM   33  C17 UNL     1     -86.552 -24.133  16.459  1.00  0.00     0.021 C
HETATM   34  C18 UNL     1     -87.198 -23.807  14.134  1.00  0.00     0.021 C
ENDBRANCH  27  31
BRANCH  26  35
HETATM   35  C19 UNL     1     -85.434 -19.081  16.905  1.00  0.00     0.153 C
BRANCH  35  36
HETATM   36  C20 UNL     1     -84.672 -18.454  15.736  1.00  0.00     0.048 C
BRANCH  36  37
HETATM   37  C21 UNL     1     -84.743 -16.950  15.735  1.00  0.00     0.168 C
BRANCH  37  38
HETATM   38  O2  UNL     1     -85.991 -16.475  16.042  1.00  0.00    -0.396 OA
HETATM   39  C22 UNL     1     -86.068 -15.131  16.341  1.00  0.00     0.201 C
ENDBRANCH  37  38
ENDBRANCH  36  37
ENDBRANCH  35  36
ENDBRANCH  26  35
ENDBRANCH   1  23
TORSDOF 13
ENDMDL