MODEL 3
REMARK VINA RESULT: -8.680430851      3.536      5.525
REMARK  8 active torsions:
REMARK  status: ('A' for Active; 'I' for Inactive)
REMARK    1  A    between atoms: C4_4  and  C5_5
REMARK    2  A    between atoms: C5_5  and  O1_6
REMARK    3  A    between atoms: O1_6  and  C6_7
REMARK    4  A    between atoms: C11_12  and  O2_13
REMARK    5  A    between atoms: N1_15  and  C12_16
REMARK    6  A    between atoms: C12_16  and  C14_18
REMARK    7  A    between atoms: C24_32  and  C25_33
REMARK    8  A    between atoms: C25_33  and  C26_34
ROOT
HETATM    1  C6  UNL     1     -91.316 -16.648  11.082  1.00  0.00     0.104 A
HETATM    2  C7  UNL     1     -90.424 -16.553  10.059  1.00  0.00     0.071 A
HETATM    3  C8  UNL     1     -89.059 -16.785  10.215  1.00  0.00     0.059 A
HETATM    4  C9  UNL     1     -88.571 -17.123  11.443  1.00  0.00     0.071 A
HETATM    5  C10 UNL     1     -89.438 -17.230  12.478  1.00  0.00     0.071 A
HETATM    6  C11 UNL     1     -90.813 -16.996  12.316  1.00  0.00     0.101 A
HETATM    7  N1  UNL     1     -87.183 -17.478  11.690  1.00  0.00    -0.282 N
HETATM    8  C23 UNL     1     -86.428 -17.423  10.454  1.00  0.00     0.251 C
HETATM    9  O3  UNL     1     -85.484 -18.195  10.265  1.00  0.00    -0.270 OA
HETATM   10  C24 UNL     1     -86.766 -16.431   9.363  1.00  0.00     0.175 C
HETATM   11  N4  UNL     1     -88.181 -16.616   9.094  1.00  0.00    -0.375 N
ATOM     12  H4  UNL     1     -88.539 -16.625   8.139  1.00  0.00     0.160 HD
ENDROOT
BRANCH   7  13
HETATM   13  C12 UNL     1     -86.630 -17.908  12.925  1.00  0.00     0.029 C
HETATM   14  C13 UNL     1     -86.525 -19.367  13.239  1.00  0.00     0.070 C
BRANCH  13  15
HETATM   15  C14 UNL     1     -86.245 -16.918  13.945  1.00  0.00     0.028 A
HETATM   16  C15 UNL     1     -85.188 -16.022  13.660  1.00  0.00     0.047 A
HETATM   17  C16 UNL     1     -84.882 -14.942  14.506  1.00  0.00     0.047 A
HETATM   18  C17 UNL     1     -85.618 -14.729  15.656  1.00  0.00     0.019 A
HETATM   19  N3  UNL     1     -83.923 -13.971  14.419  1.00  0.00    -0.359 N
HETATM   20  C18 UNL     1     -86.622 -15.601  15.910  1.00  0.00     0.059 A
HETATM   21  C20 UNL     1     -85.088 -13.611  16.273  1.00  0.00     0.074 A
HETATM   22  C19 UNL     1     -86.922 -16.643  15.097  1.00  0.00     0.129 A
HETATM   23  F1  UNL     1     -87.872 -17.475  15.539  1.00  0.00    -0.205 F
HETATM   24  N2  UNL     1     -85.558 -13.029  17.472  1.00  0.00    -0.100 NA
HETATM   25  C21 UNL     1     -84.052 -13.176  15.484  1.00  0.00     0.118 A
HETATM   26  C22 UNL     1     -82.926 -13.865  13.330  1.00  0.00     0.156 C
ENDBRANCH  13  15
ENDBRANCH   7  13
BRANCH  10  27
HETATM   27  C25 UNL     1     -85.959 -16.792   8.170  1.00  0.00     0.038 C
BRANCH  27  28
HETATM   28  C26 UNL     1     -85.559 -15.762   7.207  1.00  0.00    -0.020 C
HETATM   29  C27 UNL     1     -86.270 -15.622   5.915  1.00  0.00     0.009 C
HETATM   30  C28 UNL     1     -84.044 -15.998   6.935  1.00  0.00     0.009 C
ENDBRANCH  27  28
ENDBRANCH  10  27
BRANCH   6  31
HETATM   31  O2  UNL     1     -91.665 -17.122  13.375  1.00  0.00    -0.358 OA
ATOM     32  H2  UNL     1     -91.880 -16.356  13.893  1.00  0.00     0.217 HD
ENDBRANCH   6  31
BRANCH   1  33
HETATM   33  O1  UNL     1     -92.702 -16.427  10.965  1.00  0.00    -0.345 OA
BRANCH  33  34
HETATM   34  C5  UNL     1     -93.452 -17.214   9.962  1.00  0.00     0.203 C
BRANCH  34  35
HETATM   35  C4  UNL     1     -93.840 -18.420  10.745  1.00  0.00     0.001 C
HETATM   36  C2  UNL     1     -93.347 -19.622  10.594  1.00  0.00    -0.089 C
HETATM   37  C1  UNL     1     -92.317 -20.019   9.642  1.00  0.00     0.042 C
HETATM   38  C3  UNL     1     -93.918 -20.731  11.475  1.00  0.00     0.042 C
ENDBRANCH  34  35
ENDBRANCH  33  34
ENDBRANCH   1  33
TORSDOF 8
ENDMDL