MODEL 5
REMARK VINA RESULT: -7.401064809      4.589      7.639
REMARK  11 active torsions:
REMARK  status: ('A' for Active; 'I' for Inactive)
REMARK    1  A    between atoms: C2_2  and  S1_4
REMARK    2  A    between atoms: S1_4  and  N1_7
REMARK    3  A    between atoms: N1_7  and  C4_9
REMARK    4  A    between atoms: C4_9  and  C5_13
REMARK    5  A    between atoms: C5_13  and  C6_14
REMARK    6  A    between atoms: C5_13  and  N3_19
REMARK    7  A    between atoms: C6_14  and  C7_15
REMARK       I    between atoms: N3_19  and  C11_20
REMARK    8  A    between atoms: C11_20  and  O4_22
REMARK    9  A    between atoms: O4_22  and  C12_23
REMARK   10  A    between atoms: C16_28  and  S2_29
REMARK   11  A    between atoms: S2_29  and  C17_30
ROOT
HETATM    1  C5  UNL     1     -88.532 -17.060  11.318  1.00  0.00     0.237 C
ENDROOT
BRANCH   1   2
HETATM    2  C4  UNL     1     -89.663 -17.702  10.464  1.00  0.00     0.121 C
HETATM    3  N2  UNL     1     -89.629 -18.960  10.360  1.00  0.00    -0.386 N
ATOM      4  H22 UNL     1     -90.371 -19.381   9.800  1.00  0.00     0.157 HD
ATOM      5  H21 UNL     1     -88.945 -19.586  10.785  1.00  0.00     0.157 HD
BRANCH   2   6
HETATM    6  N1  UNL     1     -90.614 -16.833   9.874  1.00  0.00    -0.271 N
ATOM      7  H1  UNL     1     -90.502 -15.827  10.005  1.00  0.00     0.180 HD
BRANCH   6   8
HETATM    8  S1  UNL     1     -91.950 -17.397   8.945  1.00  0.00     0.235 S
HETATM    9  O1  UNL     1     -91.701 -18.769   8.374  1.00  0.00    -0.205 OA
HETATM   10  O2  UNL     1     -92.134 -16.416   7.813  1.00  0.00    -0.205 OA
BRANCH   8  11
HETATM   11  C2  UNL     1     -93.384 -17.475   9.964  1.00  0.00     0.121 C
HETATM   12  C1  UNL     1     -93.539 -16.201  10.745  1.00  0.00     0.027 C
HETATM   13  C3  UNL     1     -93.325 -18.628  10.941  1.00  0.00     0.027 C
ENDBRANCH   8  11
ENDBRANCH   6   8
ENDBRANCH   2   6
ENDBRANCH   1   2
BRANCH   1  14
HETATM   14  C6  UNL     1     -87.793 -16.147  10.360  1.00  0.00     0.056 C
BRANCH  14  15
HETATM   15  C7  UNL     1     -86.626 -16.710   9.663  1.00  0.00    -0.048 C
HETATM   16  C8  UNL     1     -85.947 -17.888  10.288  1.00  0.00     0.014 C
HETATM   17  C9  UNL     1     -86.930 -17.108   8.222  1.00  0.00     0.014 C
HETATM   18  C10 UNL     1     -85.537 -15.623   9.550  1.00  0.00     0.014 C
ENDBRANCH  14  15
ENDBRANCH   1  14
BRANCH   1  19
HETATM   19  N3  UNL     1     -89.129 -16.377  12.347  1.00  0.00    -0.377 NA
HETATM   20  C11 UNL     1     -89.725 -15.694  13.372  1.00  0.00     0.440 C
HETATM   21  O3  UNL     1     -90.137 -14.518  13.363  1.00  0.00    -0.221 OA
BRANCH  20  22
HETATM   22  O4  UNL     1     -89.942 -16.331  14.638  1.00  0.00    -0.250 OA
BRANCH  22  23
HETATM   23  C12 UNL     1     -88.901 -16.666  15.482  1.00  0.00     0.085 A
HETATM   24  C13 UNL     1     -88.136 -15.636  15.992  1.00  0.00     0.061 A
HETATM   25  C14 UNL     1     -87.095 -15.931  16.838  1.00  0.00     0.038 A
HETATM   26 CL1  UNL     1     -86.132 -14.619  17.475  1.00  0.00    -0.084 Cl
HETATM   27  C15 UNL     1     -86.813 -17.261  17.178  1.00  0.00     0.042 A
HETATM   28  C16 UNL     1     -87.568 -18.286  16.675  1.00  0.00     0.005 A
HETATM   29  C21 UNL     1     -88.607 -17.989  15.830  1.00  0.00     0.056 A
BRANCH  28  30
HETATM   30  S2  UNL     1     -87.245 -19.969  17.104  1.00  0.00    -0.121 SA
BRANCH  30  31
HETATM   31  C17 UNL     1     -86.639 -20.984  15.766  1.00  0.00     0.002 C
HETATM   32  C18 UNL     1     -85.661 -22.037  16.294  1.00  0.00     0.026 C
HETATM   33  C19 UNL     1     -85.959 -20.245  14.660  1.00  0.00     0.026 C
HETATM   34  C20 UNL     1     -87.845 -21.745  15.196  1.00  0.00     0.026 C
ENDBRANCH  30  31
ENDBRANCH  28  30
ENDBRANCH  22  23
ENDBRANCH  20  22
ENDBRANCH   1  19
TORSDOF 11
ENDMDL