MODEL 5
REMARK VINA RESULT: -9.936757894      2.516      3.057
REMARK  9 active torsions:
REMARK  status: ('A' for Active; 'I' for Inactive)
REMARK    1  A    between atoms: O1_1  and  C1_3
REMARK    2  A    between atoms: C1_3  and  C2_4
REMARK    3  A    between atoms: C2_4  and  O2_5
REMARK    4  A    between atoms: O2_5  and  C3_6
REMARK    5  A    between atoms: C6_9  and  N1_10
REMARK    6  A    between atoms: C7_13  and  C8_14
REMARK    7  A    between atoms: C11_19  and  N4_20
REMARK    8  A    between atoms: N4_20  and  C12_22
REMARK    9  A    between atoms: C21_35  and  C22_36
ROOT
HETATM    1  N1  UNL     1     -87.941 -16.426  10.040  1.00  0.00    -0.255 N
HETATM    2  N2  UNL     1     -86.806 -15.947   9.449  1.00  0.00    -0.293 N
ATOM      3  H2  UNL     1     -86.076 -15.420   9.927  1.00  0.00     0.187 HD
HETATM    4  C7  UNL     1     -86.791 -16.266   8.167  1.00  0.00     0.061 A
HETATM    5  C20 UNL     1     -87.958 -16.966   7.955  1.00  0.00     0.064 A
HETATM    6  C21 UNL     1     -88.687 -17.064   9.159  1.00  0.00     0.069 A
ENDROOT
BRANCH   4   7
HETATM    7  C8  UNL     1     -85.805 -15.984   7.130  1.00  0.00    -0.003 A
HETATM    8  C9  UNL     1     -86.161 -15.869   5.805  1.00  0.00     0.031 A
HETATM    9  C10 UNL     1     -85.267 -15.606   4.800  1.00  0.00     0.090 A
HETATM   10  N3  UNL     1     -83.983 -15.453   5.130  1.00  0.00    -0.352 N
HETATM   11  C11 UNL     1     -83.561 -15.551   6.406  1.00  0.00     0.106 A
ATOM     12  H3  UNL     1     -83.302 -15.256   4.396  1.00  0.00     0.166 HD
HETATM   13  C19 UNL     1     -84.468 -15.820   7.430  1.00  0.00     0.062 A
BRANCH  11  14
HETATM   14  N4  UNL     1     -82.331 -15.407   6.747  1.00  0.00    -0.342 N
ATOM     15  H4  UNL     1     -81.808 -16.238   7.020  1.00  0.00     0.167 HD
BRANCH  14  16
HETATM   16  C12 UNL     1     -81.661 -14.159   6.764  1.00  0.00     0.034 A
HETATM   17  C13 UNL     1     -81.547 -13.363   7.883  1.00  0.00     0.032 A
HETATM   18  C14 UNL     1     -80.891 -12.152   7.882  1.00  0.00     0.034 A
HETATM   19  C15 UNL     1     -80.319 -11.711   6.707  1.00  0.00     0.059 A
HETATM   20  N5  UNL     1     -79.622 -10.610   6.348  1.00  0.00    -0.300 N
HETATM   21  C17 UNL     1     -80.414 -12.476   5.580  1.00  0.00     0.011 A
HETATM   22  N6  UNL     1     -79.289 -10.662   5.076  1.00  0.00    -0.311 N
ATOM     23  H5  UNL     1     -79.386  -9.843   6.979  1.00  0.00     0.187 HD
HETATM   24  C16 UNL     1     -79.766 -11.806   4.572  1.00  0.00     0.120 A
ATOM     25  H6  UNL     1     -78.762  -9.954   4.565  1.00  0.00     0.186 HD
HETATM   26  C18 UNL     1     -81.079 -13.693   5.599  1.00  0.00     0.044 A
ENDBRANCH  14  16
ENDBRANCH  11  14
ENDBRANCH   4   7
BRANCH   1  27
HETATM   27  C6  UNL     1     -88.125 -16.173  11.422  1.00  0.00     0.057 A
HETATM   28  C5  UNL     1     -87.433 -16.898  12.399  1.00  0.00     0.034 A
HETATM   29  C4  UNL     1     -87.623 -16.710  13.750  1.00  0.00     0.039 A
HETATM   30  C3  UNL     1     -88.526 -15.774  14.206  1.00  0.00     0.069 A
HETATM   31  C29 UNL     1     -89.219 -15.049  13.260  1.00  0.00     0.039 A
HETATM   32  C28 UNL     1     -89.038 -15.227  11.906  1.00  0.00     0.034 A
BRANCH  30  33
HETATM   33  O2  UNL     1     -88.755 -15.546  15.553  1.00  0.00    -0.349 OA
BRANCH  33  34
HETATM   34  C2  UNL     1     -87.760 -15.379  16.510  1.00  0.00     0.201 C
BRANCH  34  35
HETATM   35  C1  UNL     1     -87.812 -16.542  17.474  1.00  0.00     0.190 C
BRANCH  35  36
HETATM   36  O1  UNL     1     -89.130 -17.020  17.464  1.00  0.00    -0.399 OA
ATOM     37  H1  UNL     1     -89.495 -16.836  18.322  1.00  0.00     0.209 HD
ENDBRANCH  35  36
ENDBRANCH  34  35
ENDBRANCH  33  34
ENDBRANCH  30  33
ENDBRANCH   1  27
BRANCH   6  38
HETATM   38  C22 UNL     1     -89.965 -17.732   9.307  1.00  0.00    -0.007 A
HETATM   39  C23 UNL     1     -89.968 -19.121   9.514  1.00  0.00     0.017 A
HETATM   40  C24 UNL     1     -91.107 -19.861   9.669  1.00  0.00     0.043 A
HETATM   41  C25 UNL     1     -92.322 -19.258   9.628  1.00  0.00     0.116 A
HETATM   42  F1  UNL     1     -93.438 -20.014   9.785  1.00  0.00    -0.206 F
HETATM   43  C26 UNL     1     -92.376 -17.897   9.428  1.00  0.00     0.043 A
HETATM   44  C27 UNL     1     -91.194 -17.151   9.270  1.00  0.00     0.017 A
ENDBRANCH   6  38
TORSDOF 9
ENDMDL