MODEL 1
REMARK VINA RESULT: -8.382055710      0.000      0.000
REMARK  9 active torsions:
REMARK  status: ('A' for Active; 'I' for Inactive)
REMARK    1  A    between atoms: C2_2  and  C4_4
REMARK    2  A    between atoms: C5_5  and  O1_6
REMARK    3  A    between atoms: N1_8  and  C6_9
REMARK    4  A    between atoms: C12_17  and  N3_18
REMARK    5  A    between atoms: N3_18  and  C13_20
REMARK    6  A    between atoms: C16_23  and  O2_24
REMARK    7  A    between atoms: O2_24  and  C17_25
REMARK    8  A    between atoms: C17_25  and  C18_26
REMARK    9  A    between atoms: C18_26  and  N4_27
ROOT
HETATM    1  C4  UNL     1     -89.069 -17.097   8.521  1.00  0.00     0.025 A
HETATM    2  C5  UNL     1     -90.430 -17.191   8.196  1.00  0.00     0.152 A
HETATM    3  N1  UNL     1     -91.079 -17.148   9.358  1.00  0.00    -0.319 N
HETATM    4  C9  UNL     1     -90.247 -17.032  10.413  1.00  0.00     0.093 A
HETATM    5  C10 UNL     1     -88.957 -16.999   9.892  1.00  0.00     0.073 A
HETATM    6  N2  UNL     1     -88.128 -16.883  10.955  1.00  0.00    -0.350 N
ATOM      7  H2  UNL     1     -87.111 -16.832  10.896  1.00  0.00     0.166 HD
HETATM    8  C11 UNL     1     -88.831 -16.842  12.098  1.00  0.00     0.089 A
HETATM    9  C12 UNL     1     -88.483 -16.732  13.443  1.00  0.00     0.063 A
HETATM   10  C25 UNL     1     -89.432 -16.717  14.438  1.00  0.00     0.049 A
HETATM   11  C26 UNL     1     -90.757 -16.812  14.067  1.00  0.00     0.091 A
HETATM   12  N5  UNL     1     -91.094 -16.919  12.758  1.00  0.00    -0.362 N
ATOM     13  H5  UNL     1     -92.080 -16.989  12.505  1.00  0.00     0.165 HD
HETATM   14  C27 UNL     1     -90.170 -16.935  11.787  1.00  0.00     0.091 A
ENDROOT
BRANCH   9  15
HETATM   15  N3  UNL     1     -87.235 -16.644  13.761  1.00  0.00    -0.354 N
ATOM     16  H3  UNL     1     -86.700 -15.818  13.489  1.00  0.00     0.166 HD
BRANCH  15  17
HETATM   17  C13 UNL     1     -86.595 -17.695  14.492  1.00  0.00     0.035 A
HETATM   18  C14 UNL     1     -86.332 -17.589  15.839  1.00  0.00     0.032 A
HETATM   19  C15 UNL     1     -85.704 -18.629  16.531  1.00  0.00     0.042 A
HETATM   20  C16 UNL     1     -85.324 -19.792  15.910  1.00  0.00     0.107 A
HETATM   21  C23 UNL     1     -85.595 -19.887  14.546  1.00  0.00     0.151 A
HETATM   22  F1  UNL     1     -85.232 -21.029  13.895  1.00  0.00    -0.203 F
HETATM   23  C24 UNL     1     -86.211 -18.859  13.887  1.00  0.00     0.074 A
BRANCH  20  24
HETATM   24  O2  UNL     1     -84.714 -20.826  16.522  1.00  0.00    -0.346 OA
BRANCH  24  25
HETATM   25  C17 UNL     1     -85.228 -21.855  17.272  1.00  0.00     0.206 C
BRANCH  25  26
HETATM   26  C18 UNL     1     -86.155 -22.788  16.554  1.00  0.00     0.299 C
BRANCH  26  27
HETATM   27  N4  UNL     1     -87.094 -23.357  17.475  1.00  0.00     0.094 N
HETATM   28  C19 UNL     1     -88.374 -22.747  17.384  1.00  0.00     0.298 C
HETATM   29  C20 UNL     1     -89.113 -23.137  16.113  1.00  0.00     0.198 C
HETATM   30  O3  UNL     1     -89.136 -24.497  15.922  1.00  0.00    -0.388 OA
HETATM   31  C21 UNL     1     -87.863 -25.005  15.848  1.00  0.00     0.198 C
HETATM   32  C22 UNL     1     -87.170 -24.793  17.184  1.00  0.00     0.298 C
ENDBRANCH  26  27
ENDBRANCH  25  26
ENDBRANCH  24  25
ENDBRANCH  20  24
ENDBRANCH  15  17
ENDBRANCH   9  15
BRANCH   1  33
HETATM   33  C2  UNL     1     -87.976 -17.102   7.522  1.00  0.00     0.017 C
HETATM   34  C1  UNL     1     -88.020 -15.824   6.736  1.00  0.00     0.015 C
HETATM   35  C3  UNL     1     -86.623 -17.308   8.177  1.00  0.00     0.015 C
ENDBRANCH   1  33
BRANCH   3  36
HETATM   36  C6  UNL     1     -92.522 -17.213   9.530  1.00  0.00     0.084 C
HETATM   37  C7  UNL     1     -93.063 -16.008  10.261  1.00  0.00     0.032 C
HETATM   38  C8  UNL     1     -92.893 -18.440  10.319  1.00  0.00     0.032 C
ENDBRANCH   3  36
BRANCH   2  39
HETATM   39  O1  UNL     1     -90.975 -17.305   6.926  1.00  0.00    -0.345 OA
ATOM     40  H1  UNL     1     -90.861 -16.701   6.202  1.00  0.00     0.219 HD
ENDBRANCH   2  39
TORSDOF 9
ENDMDL