MODEL 3
REMARK VINA RESULT: -7.653953998      1.840      2.417
REMARK  8 active torsions:
REMARK  status: ('A' for Active; 'I' for Inactive)
REMARK    1  A    between atoms: C7_8  and  S1_9
REMARK    2  A    between atoms: S1_9  and  C8_10
REMARK    3  A    between atoms: C8_10  and  C9_11
REMARK    4  A    between atoms: C9_11  and  O1_12
REMARK    5  A    between atoms: C9_11  and  C10_14
REMARK    6  A    between atoms: C10_14  and  N2_15
REMARK    7  A    between atoms: C12_17  and  C13_18
REMARK    8  A    between atoms: C17_23  and  C18_24
ROOT
HETATM    1  C10 UNL     1     -87.134 -19.304  14.825  1.00  0.00     0.182 C
ENDROOT
BRANCH   1   2
HETATM    2  C9  UNL     1     -86.665 -18.499  16.003  1.00  0.00     0.147 C
BRANCH   2   3
HETATM    3  C8  UNL     1     -87.758 -18.392  17.015  1.00  0.00     0.113 C
BRANCH   3   4
HETATM    4  S1  UNL     1     -87.975 -16.631  17.436  1.00  0.00    -0.125 SA
BRANCH   4   5
HETATM    5  C7  UNL     1     -87.638 -15.649  16.007  1.00  0.00     0.028 A
HETATM    6  C6  UNL     1     -88.442 -15.577  14.869  1.00  0.00     0.011 A
HETATM    7  C5  UNL     1     -89.635 -16.173  14.507  1.00  0.00     0.041 A
HETATM    8  C23 UNL     1     -87.782 -14.699  14.034  1.00  0.00     0.049 A
HETATM    9  C4  UNL     1     -90.208 -15.893  13.267  1.00  0.00     0.047 A
HETATM   10  C3  UNL     1     -89.552 -15.014  12.424  1.00  0.00     0.035 A
HETATM   11  N1  UNL     1     -91.426 -16.478  12.851  1.00  0.00    -0.102 NA
HETATM   12  C2  UNL     1     -88.363 -14.428  12.799  1.00  0.00    -0.033 A
HETATM   13  C1  UNL     1     -87.698 -13.501  11.877  1.00  0.00     0.050 C
HETATM   14  N5  UNL     1     -86.653 -14.275  14.638  1.00  0.00    -0.363 N
HETATM   15  C22 UNL     1     -86.526 -14.830  15.844  1.00  0.00     0.107 A
ATOM     16  H5  UNL     1     -85.988 -13.619  14.229  1.00  0.00     0.165 HD
ENDBRANCH   4   5
ENDBRANCH   3   4
ENDBRANCH   2   3
BRANCH   2  17
HETATM   17  O1  UNL     1     -85.540 -19.147  16.555  1.00  0.00    -0.393 OA
ATOM     18  H1  UNL     1     -85.516 -19.030  17.497  1.00  0.00     0.210 HD
ENDBRANCH   2  17
ENDBRANCH   1   2
BRANCH   1  19
HETATM   19  N2  UNL     1     -87.016 -18.597  13.572  1.00  0.00    -0.284 N
HETATM   20  C11 UNL     1     -87.864 -18.616  12.539  1.00  0.00     0.143 A
HETATM   21  C12 UNL     1     -87.365 -17.795  11.521  1.00  0.00     0.076 A
HETATM   22  N3  UNL     1     -86.212 -17.304  11.993  1.00  0.00    -0.284 N
HETATM   23  N4  UNL     1     -86.010 -17.780  13.203  1.00  0.00    -0.240 N
ATOM     24  H3  UNL     1     -85.592 -16.665  11.495  1.00  0.00     0.188 HD
ATOM     25  H4  UNL     1     -85.200 -17.561  13.784  1.00  0.00     0.208 HD
BRANCH  21  26
HETATM   26  C13 UNL     1     -88.007 -17.558  10.234  1.00  0.00    -0.005 A
HETATM   27  C14 UNL     1     -87.347 -16.981   9.173  1.00  0.00     0.033 A
HETATM   28  C15 UNL     1     -87.972 -16.760   7.953  1.00  0.00     0.012 A
HETATM   29 BR1  UNL     1     -87.066 -15.964   6.487  1.00  0.00    -0.051 Br
HETATM   30  C16 UNL     1     -89.292 -17.127   7.784  1.00  0.00     0.026 A
HETATM   31  C17 UNL     1     -89.967 -17.709   8.840  1.00  0.00    -0.053 A
HETATM   32  C21 UNL     1     -89.324 -17.921  10.057  1.00  0.00     0.021 A
BRANCH  31  33
HETATM   33  C18 UNL     1     -91.378 -18.124   8.729  1.00  0.00     0.010 C
HETATM   34  C19 UNL     1     -91.561 -19.366   9.577  1.00  0.00     0.015 C
HETATM   35  C20 UNL     1     -92.329 -17.033   9.190  1.00  0.00     0.015 C
ENDBRANCH  31  33
ENDBRANCH  21  26
ENDBRANCH   1  19
TORSDOF 8
ENDMDL