MODEL 1
REMARK VINA RESULT: -7.762984774      0.000      0.000
REMARK  9 active torsions:
REMARK  status: ('A' for Active; 'I' for Inactive)
REMARK    1  A    between atoms: C5_5  and  C6_6
REMARK    2  A    between atoms: C6_6  and  C7_8
REMARK    3  A    between atoms: C7_8  and  C8_9
REMARK    4  A    between atoms: C8_9  and  O2_10
REMARK    5  A    between atoms: C9_12  and  C10_13
REMARK    6  A    between atoms: C10_13  and  C11_14
REMARK    7  A    between atoms: C15_20  and  O5_21
REMARK    8  A    between atoms: C22_30  and  C23_31
REMARK    9  A    between atoms: C24_32  and  O7_33
ROOT
HETATM    1  C1  UNL     1     -85.285 -15.061  10.723  1.00  0.00     0.016 C
HETATM    2  C2  UNL     1     -86.051 -16.356  11.039  1.00  0.00    -0.036 C
HETATM    3  C3  UNL     1     -84.908 -17.398  10.995  1.00  0.00     0.011 C
HETATM    4  C4  UNL     1     -83.956 -17.098  12.123  1.00  0.00     0.013 C
HETATM    5  C5  UNL     1     -84.732 -17.425  13.367  1.00  0.00     0.061 C
HETATM    6  C9  UNL     1     -86.198 -17.215  13.360  1.00  0.00     0.016 C
HETATM    7  C12 UNL     1     -86.765 -16.322  12.321  1.00  0.00    -0.025 C
HETATM    8  C13 UNL     1     -86.715 -14.935  12.985  1.00  0.00     0.017 C
HETATM    9  C14 UNL     1     -88.274 -16.650  12.094  1.00  0.00     0.033 C
HETATM   10  C15 UNL     1     -88.537 -18.105  11.934  1.00  0.00     0.124 C
HETATM   11  C16 UNL     1     -89.542 -18.554  10.955  1.00  0.00     0.042 C
HETATM   12  C17 UNL     1     -90.744 -17.619  10.774  1.00  0.00    -0.023 C
HETATM   13  C18 UNL     1     -91.878 -18.293  11.439  1.00  0.00     0.016 C
HETATM   14  C19 UNL     1     -91.130 -17.712   9.279  1.00  0.00     0.088 C
HETATM   15  C20 UNL     1     -91.132 -16.338   8.766  1.00  0.00     0.128 C
HETATM   16  O6  UNL     1     -91.046 -15.966   7.615  1.00  0.00    -0.298 OA
HETATM   17  C21 UNL     1     -91.261 -15.573   9.972  1.00  0.00     0.093 C
HETATM   18  C22 UNL     1     -90.425 -16.219  11.114  1.00  0.00     0.001 C
HETATM   19  C25 UNL     1     -88.949 -15.854  11.027  1.00  0.00    -0.025 C
HETATM   20  C26 UNL     1     -88.936 -14.377  11.121  1.00  0.00     0.016 C
HETATM   21  C27 UNL     1     -88.228 -16.131   9.752  1.00  0.00     0.011 C
HETATM   22  C28 UNL     1     -86.842 -16.696   9.838  1.00  0.00     0.011 C
ENDROOT
BRANCH   5  23
HETATM   23  C6  UNL     1     -84.356 -18.860  13.645  1.00  0.00     0.133 C
HETATM   24  O1  UNL     1     -83.244 -19.087  14.016  1.00  0.00    -0.297 OA
BRANCH  23  25
HETATM   25  C7  UNL     1     -85.302 -19.974  13.480  1.00  0.00     0.104 C
BRANCH  25  26
HETATM   26  C8  UNL     1     -85.042 -21.103  14.456  1.00  0.00     0.171 C
BRANCH  26  27
HETATM   27  O2  UNL     1     -84.672 -20.628  15.717  1.00  0.00    -0.400 OA
ATOM     28  H2  UNL     1     -84.414 -21.332  16.300  1.00  0.00     0.209 HD
ENDBRANCH  26  27
ENDBRANCH  25  26
ENDBRANCH  23  25
ENDBRANCH   5  23
BRANCH   6  29
HETATM   29  C10 UNL     1     -86.538 -16.759  14.787  1.00  0.00     0.119 C
BRANCH  29  30
HETATM   30  C11 UNL     1     -87.325 -17.729  15.560  1.00  0.00     0.172 C
HETATM   31  O3  UNL     1     -86.722 -18.624  16.197  1.00  0.00    -0.648 OA
HETATM   32  O4  UNL     1     -88.696 -17.698  15.609  1.00  0.00    -0.648 OA
ENDBRANCH  29  30
ENDBRANCH   6  29
BRANCH  10  33
HETATM   33  O5  UNL     1     -88.898 -18.771  13.139  1.00  0.00    -0.395 OA
ATOM     34  H5  UNL     1     -88.351 -19.517  13.352  1.00  0.00     0.210 HD
ENDBRANCH  10  33
BRANCH  18  35
HETATM   35  C23 UNL     1     -91.043 -15.517  12.262  1.00  0.00     0.009 C
HETATM   36  C24 UNL     1     -90.837 -15.571  13.678  1.00  0.00     0.128 C
BRANCH  36  37
HETATM   37  O7  UNL     1     -91.042 -16.758  14.377  1.00  0.00    -0.373 OA
ATOM     38  H7  UNL     1     -90.697 -16.866  15.256  1.00  0.00     0.216 HD
ENDBRANCH  36  37
ENDBRANCH  18  35
TORSDOF 9
ENDMDL