MODEL 1
REMARK VINA RESULT: -8.727628403      0.000      0.000
REMARK  12 active torsions:
REMARK  status: ('A' for Active; 'I' for Inactive)
REMARK    1  A    between atoms: O1_2  and  C2_3
REMARK    2  A    between atoms: C2_3  and  C3_4
REMARK    3  A    between atoms: C3_4  and  O2_5
REMARK    4  A    between atoms: C3_4  and  C4_7
REMARK    5  A    between atoms: C4_7  and  N1_8
REMARK    6  A    between atoms: N1_8  and  C5_10
REMARK    7  A    between atoms: C7_12  and  C8_13
REMARK    8  A    between atoms: C12_20  and  C13_21
REMARK    9  A    between atoms: C16_24  and  C17_25
REMARK   10  A    between atoms: C18_26  and  C19_27
REMARK   11  A    between atoms: C24_32  and  C25_33
REMARK   12  A    between atoms: C28_36  and  N3_37
ROOT
HETATM    1  C8  UNL     1     -91.412 -17.643  11.633  1.00  0.00     0.057 A
HETATM    2  N2  UNL     1     -92.578 -18.196  12.058  1.00  0.00    -0.332 N
ATOM      3  H2  UNL     1     -92.970 -17.863  12.939  1.00  0.00     0.168 HD
HETATM    4  C9  UNL     1     -93.244 -19.147  11.396  1.00  0.00     0.188 A
HETATM    5  F1  UNL     1     -94.404 -19.685  11.833  1.00  0.00    -0.186 F
HETATM    6  C10 UNL     1     -92.730 -19.602  10.211  1.00  0.00     0.062 A
HETATM    7  C11 UNL     1     -91.559 -19.080   9.737  1.00  0.00     0.020 A
HETATM    8  C12 UNL     1     -90.889 -18.083  10.461  1.00  0.00     0.018 A
ENDROOT
BRANCH   8   9
HETATM    9  C13 UNL     1     -89.638 -17.544   9.927  1.00  0.00     0.046 A
HETATM   10  C14 UNL     1     -89.580 -16.992   8.652  1.00  0.00     0.032 A
HETATM   11  C15 UNL     1     -88.417 -16.482   8.115  1.00  0.00     0.027 A
HETATM   12  C16 UNL     1     -87.238 -16.504   8.852  1.00  0.00     0.061 A
HETATM   13  C28 UNL     1     -87.327 -17.058  10.111  1.00  0.00     0.118 A
HETATM   14  N4  UNL     1     -88.478 -17.549  10.609  1.00  0.00    -0.341 N
ATOM     15  H4  UNL     1     -88.469 -17.944  11.549  1.00  0.00     0.167 HD
BRANCH  12  16
HETATM   16  C17 UNL     1     -86.009 -15.980   8.315  1.00  0.00    -0.058 C
HETATM   17  C18 UNL     1     -84.970 -15.562   7.864  1.00  0.00    -0.061 C
BRANCH  17  18
HETATM   18  C19 UNL     1     -83.744 -15.081   7.306  1.00  0.00     0.024 A
HETATM   19  C20 UNL     1     -83.500 -14.913   5.963  1.00  0.00     0.021 A
HETATM   20  C21 UNL     1     -82.292 -14.439   5.467  1.00  0.00     0.002 A
HETATM   21  C22 UNL     1     -81.303 -14.126   6.369  1.00  0.00     0.001 A
HETATM   22  C23 UNL     1     -81.506 -14.279   7.719  1.00  0.00     0.009 A
HETATM   23  C24 UNL     1     -82.701 -14.746   8.182  1.00  0.00    -0.036 A
BRANCH  23  24
HETATM   24  C25 UNL     1     -82.926 -14.921   9.641  1.00  0.00     0.012 C
HETATM   25  C26 UNL     1     -83.446 -13.611  10.197  1.00  0.00     0.015 C
HETATM   26  C27 UNL     1     -81.603 -15.222  10.338  1.00  0.00     0.015 C
ENDBRANCH  23  24
ENDBRANCH  17  18
ENDBRANCH  12  16
BRANCH  13  27
HETATM   27  N3  UNL     1     -86.225 -17.084  10.811  1.00  0.00    -0.384 N
ATOM     28  H32 UNL     1     -86.041 -17.836  11.476  1.00  0.00     0.157 HD
ATOM     29  H31 UNL     1     -85.570 -16.318  10.652  1.00  0.00     0.157 HD
ENDBRANCH  13  27
ENDBRANCH   8   9
BRANCH   1  30
HETATM   30  C7  UNL     1     -90.736 -16.612  12.398  1.00  0.00    -0.004 A
HETATM   31  C6  UNL     1     -90.231 -16.880  13.659  1.00  0.00     0.062 A
HETATM   32  C5  UNL     1     -89.588 -15.883  14.395  1.00  0.00     0.101 A
HETATM   33  N5  UNL     1     -89.434 -14.640  13.915  1.00  0.00    -0.353 N
HETATM   34  C30 UNL     1     -89.916 -14.363  12.697  1.00  0.00     0.090 A
ATOM     35  H5  UNL     1     -88.960 -13.923  14.465  1.00  0.00     0.166 HD
HETATM   36  C29 UNL     1     -90.563 -15.327  11.935  1.00  0.00     0.031 A
BRANCH  32  37
HETATM   37  N1  UNL     1     -89.128 -16.160  15.563  1.00  0.00    -0.374 N
ATOM     38  H1  UNL     1     -89.741 -16.114  16.377  1.00  0.00     0.161 HD
BRANCH  37  39
HETATM   39  C4  UNL     1     -87.756 -16.532  15.719  1.00  0.00     0.155 C
BRANCH  39  40
HETATM   40  C3  UNL     1     -86.911 -15.382  16.235  1.00  0.00     0.159 C
BRANCH  40  41
HETATM   41  C2  UNL     1     -85.817 -15.031  15.227  1.00  0.00     0.200 C
BRANCH  41  42
HETATM   42  O1  UNL     1     -86.370 -15.187  13.963  1.00  0.00    -0.393 OA
HETATM   43  C1  UNL     1     -85.954 -14.197  13.080  1.00  0.00     0.201 C
ENDBRANCH  41  42
ENDBRANCH  40  41
BRANCH  40  44
HETATM   44  O2  UNL     1     -87.685 -14.279  16.512  1.00  0.00    -0.392 OA
ATOM     45  H2  UNL     1     -87.739 -14.136  17.450  1.00  0.00     0.210 HD
ENDBRANCH  40  44
ENDBRANCH  39  40
ENDBRANCH  37  39
ENDBRANCH  32  37
ENDBRANCH   1  30
TORSDOF 12
ENDMDL