MODEL 5
REMARK VINA RESULT: -8.734515479      1.712      2.131
REMARK  10 active torsions:
REMARK  status: ('A' for Active; 'I' for Inactive)
REMARK    1  A    between atoms: N1_2  and  C2_3
REMARK    2  A    between atoms: N1_2  and  C17_25
REMARK    3  A    between atoms: C6_7  and  N2_8
REMARK    4  A    between atoms: N2_8  and  C7_10
REMARK    5  A    between atoms: C7_10  and  C8_11
REMARK    6  A    between atoms: C8_11  and  C9_12
REMARK    7  A    between atoms: C17_25  and  C18_26
REMARK    8  A    between atoms: C17_25  and  C19_33
REMARK    9  A    between atoms: C18_26  and  O1_27
REMARK   10  A    between atoms: N5_29  and  O2_31
ROOT
HETATM    1  C2  UNL     1     -88.820 -16.993  12.163  1.00  0.00     0.105 A
HETATM    2  C3  UNL     1     -89.080 -17.659  13.336  1.00  0.00     0.048 A
HETATM    3  C4  UNL     1     -88.026 -18.174  14.058  1.00  0.00     0.007 A
HETATM    4  C5  UNL     1     -86.732 -18.024  13.616  1.00  0.00     0.048 A
HETATM    5  C6  UNL     1     -86.482 -17.351  12.439  1.00  0.00     0.102 A
HETATM    6  N4  UNL     1     -87.543 -16.869  11.768  1.00  0.00    -0.329 N
ATOM      7  H4  UNL     1     -87.364 -16.371  10.896  1.00  0.00     0.169 HD
ENDROOT
BRANCH   1   8
HETATM    8  N1  UNL     1     -89.896 -16.452  11.414  1.00  0.00    -0.355 N
HETATM    9  C1  UNL     1     -89.650 -15.197  10.709  1.00  0.00     0.152 C
BRANCH   8  10
HETATM   10  C17 UNL     1     -91.208 -17.026  11.280  1.00  0.00     0.195 C
BRANCH  10  11
HETATM   11  C18 UNL     1     -92.299 -16.060  11.133  1.00  0.00     0.163 C
HETATM   12  N5  UNL     1     -93.009 -15.656  12.137  1.00  0.00    -0.249 N
ATOM     13  H5  UNL     1     -92.790 -16.033  13.058  1.00  0.00     0.196 HD
BRANCH  11  14
HETATM   14  O1  UNL     1     -92.633 -15.522   9.902  1.00  0.00    -0.346 OA
ATOM     15  H1  UNL     1     -92.121 -15.704   9.123  1.00  0.00     0.219 HD
ENDBRANCH  11  14
BRANCH  12  16
HETATM   16  O2  UNL     1     -94.022 -14.768  12.045  1.00  0.00    -0.288 OA
ATOM     17  H2  UNL     1     -94.942 -14.994  12.117  1.00  0.00     0.244 HD
ENDBRANCH  12  16
ENDBRANCH  10  11
BRANCH  10  18
HETATM   18  C19 UNL     1     -91.268 -18.142  10.290  1.00  0.00    -0.028 A
HETATM   19  C20 UNL     1     -90.206 -18.409   9.475  1.00  0.00     0.010 A
HETATM   20  C21 UNL     1     -90.223 -19.444   8.535  1.00  0.00     0.001 A
HETATM   21  C22 UNL     1     -91.355 -20.216   8.432  1.00  0.00     0.000 A
HETATM   22  C23 UNL     1     -92.446 -19.977   9.234  1.00  0.00     0.001 A
HETATM   23  C24 UNL     1     -92.400 -18.941  10.160  1.00  0.00     0.010 A
ENDBRANCH  10  18
ENDBRANCH   8  10
ENDBRANCH   1   8
BRANCH   5  24
HETATM   24  N2  UNL     1     -85.272 -17.190  12.007  1.00  0.00    -0.376 N
ATOM     25  H2  UNL     1     -84.539 -17.706  12.492  1.00  0.00     0.161 HD
BRANCH  24  26
HETATM   26  C7  UNL     1     -84.866 -16.363  10.925  1.00  0.00     0.126 C
BRANCH  26  27
HETATM   27  C8  UNL     1     -84.786 -17.101   9.607  1.00  0.00     0.060 C
BRANCH  27  28
HETATM   28  C9  UNL     1     -84.671 -16.178   8.450  1.00  0.00    -0.029 A
HETATM   29  C10 UNL     1     -83.519 -15.597   7.944  1.00  0.00     0.096 A
HETATM   30  N3  UNL     1     -83.889 -14.842   6.896  1.00  0.00    -0.365 N
HETATM   31  C11 UNL     1     -85.221 -14.924   6.723  1.00  0.00     0.043 A
ATOM     32  H3  UNL     1     -83.256 -14.289   6.318  1.00  0.00     0.165 HD
HETATM   33  C12 UNL     1     -86.103 -14.348   5.802  1.00  0.00     0.031 A
HETATM   34  C16 UNL     1     -85.755 -15.756   7.681  1.00  0.00    -0.001 A
HETATM   35  C13 UNL     1     -87.458 -14.628   5.884  1.00  0.00     0.021 A
HETATM   36  C14 UNL     1     -87.976 -15.466   6.854  1.00  0.00     0.011 A
HETATM   37 BR1  UNL     1     -89.822 -15.870   6.996  1.00  0.00    -0.051 Br
HETATM   38  C15 UNL     1     -87.112 -16.039   7.764  1.00  0.00     0.033 A
ENDBRANCH  27  28
ENDBRANCH  26  27
ENDBRANCH  24  26
ENDBRANCH   5  24
TORSDOF 10
ENDMDL