MODEL 4
REMARK VINA RESULT: -7.192654923      2.671      6.148
REMARK  14 active torsions:
REMARK  status: ('A' for Active; 'I' for Inactive)
REMARK    1  A    between atoms: C2_2  and  O1_3
REMARK    2  A    between atoms: C2_2  and  C3_5
REMARK    3  A    between atoms: C2_2  and  C10_14
REMARK    4  A    between atoms: C4_6  and  C5_7
REMARK    5  A    between atoms: C9_11  and  O2_12
REMARK    6  A    between atoms: C14_19  and  C15_20
REMARK    7  A    between atoms: C14_19  and  C23_30
REMARK    8  A    between atoms: C16_21  and  C17_22
REMARK    9  A    between atoms: C17_22  and  C18_23
REMARK   10  A    between atoms: C18_23  and  C19_24
REMARK   11  A    between atoms: C19_24  and  C20_25
REMARK   12  A    between atoms: C20_25  and  C21_26
REMARK   13  A    between atoms: C21_26  and  C22_27
REMARK   14  A    between atoms: C24_32  and  O6_34
ROOT
HETATM    1  C10 UNL     1     -90.519 -17.935  10.717  1.00  0.00    -0.016 A
HETATM    2  C11 UNL     1     -91.158 -17.560  11.782  1.00  0.00    -0.008 A
HETATM    3  C12 UNL     1     -90.627 -17.602  13.140  1.00  0.00     0.043 A
HETATM    4  C13 UNL     1     -90.869 -16.267  13.857  1.00  0.00     0.179 C
HETATM    5  O3  UNL     1     -90.332 -16.434  15.127  1.00  0.00    -0.362 OA
HETATM    6  C14 UNL     1     -88.942 -16.308  15.027  1.00  0.00     0.167 C
HETATM    7  C24 UNL     1     -88.321 -17.336  14.173  1.00  0.00     0.105 C
HETATM    8  C25 UNL     1     -87.435 -18.321  14.946  1.00  0.00     0.051 C
HETATM    9  C26 UNL     1     -89.273 -18.130  13.286  1.00  0.00     0.056 A
HETATM   10  C27 UNL     1     -88.610 -18.533  12.044  1.00  0.00    -0.018 A
HETATM   11  C28 UNL     1     -89.168 -18.449  10.870  1.00  0.00     0.007 A
ENDROOT
BRANCH   1  12
HETATM   12  C2  UNL     1     -91.106 -17.873   9.346  1.00  0.00     0.144 C
HETATM   13  C1  UNL     1     -91.228 -19.225   8.708  1.00  0.00     0.066 C
BRANCH  12  14
HETATM   14  O1  UNL     1     -92.393 -17.357   9.481  1.00  0.00    -0.373 OA
ATOM     15  H1  UNL     1     -92.897 -17.981   9.990  1.00  0.00     0.212 HD
ENDBRANCH  12  14
BRANCH  12  16
HETATM   16  C3  UNL     1     -90.326 -16.943   8.540  1.00  0.00    -0.063 C
HETATM   17  C4  UNL     1     -89.681 -16.140   7.877  1.00  0.00    -0.096 C
BRANCH  17  18
HETATM   18  C5  UNL     1     -88.915 -15.167   7.108  1.00  0.00     0.094 C
HETATM   19  C6  UNL     1     -89.312 -15.142   5.661  1.00  0.00     0.020 C
HETATM   20  C7  UNL     1     -88.176 -15.875   4.987  1.00  0.00     0.004 C
HETATM   21  C8  UNL     1     -86.963 -15.343   5.718  1.00  0.00     0.033 C
HETATM   22  C9  UNL     1     -87.437 -15.463   7.170  1.00  0.00     0.133 C
BRANCH  22  23
HETATM   23  O2  UNL     1     -87.163 -16.737   7.646  1.00  0.00    -0.394 OA
ATOM     24  H2  UNL     1     -87.149 -17.392   6.957  1.00  0.00     0.210 HD
ENDBRANCH  22  23
ENDBRANCH  17  18
ENDBRANCH  12  16
ENDBRANCH   1  12
BRANCH   7  25
HETATM   25  O6  UNL     1     -87.427 -16.708  13.266  1.00  0.00    -0.385 OA
ATOM     26  H6  UNL     1     -87.153 -15.873  13.629  1.00  0.00     0.210 HD
ENDBRANCH   7  25
BRANCH   6  27
HETATM   27  C15 UNL     1     -88.650 -14.975  14.435  1.00  0.00    -0.064 C
HETATM   28  C16 UNL     1     -88.413 -13.904  13.935  1.00  0.00    -0.103 C
BRANCH  28  29
HETATM   29  C17 UNL     1     -88.149 -12.583  13.310  1.00  0.00     0.094 C
BRANCH  29  30
HETATM   30  C18 UNL     1     -87.731 -12.755  11.872  1.00  0.00     0.012 C
BRANCH  30  31
HETATM   31  C19 UNL     1     -88.250 -13.990  11.217  1.00  0.00     0.001 C
BRANCH  31  32
HETATM   32  C20 UNL     1     -87.116 -14.759  10.594  1.00  0.00     0.010 C
BRANCH  32  33
HETATM   33  C21 UNL     1     -85.770 -14.091  10.802  1.00  0.00     0.113 C
BRANCH  33  34
HETATM   34  C22 UNL     1     -84.923 -14.377   9.636  1.00  0.00     0.172 C
HETATM   35  O4  UNL     1     -84.718 -15.538   9.220  1.00  0.00    -0.648 OA
HETATM   36  O5  UNL     1     -84.341 -13.277   8.994  1.00  0.00    -0.648 OA
ENDBRANCH  33  34
ENDBRANCH  32  33
ENDBRANCH  31  32
ENDBRANCH  30  31
ENDBRANCH  29  30
ENDBRANCH  28  29
ENDBRANCH   6  27
BRANCH   6  37
HETATM   37  C23 UNL     1     -88.442 -16.329  16.459  1.00  0.00     0.169 C
HETATM   38 CL1  UNL     1     -87.196 -15.152  16.811  1.00  0.00    -0.126 Cl
ENDBRANCH   6  37
TORSDOF 14
ENDMDL