MODEL 1
REMARK VINA RESULT: -8.192458254      0.000      0.000
REMARK  10 active torsions:
REMARK  status: ('A' for Active; 'I' for Inactive)
REMARK    1  A    between atoms: C2_2  and  C3_3
REMARK    2  A    between atoms: C3_3  and  C4_4
REMARK    3  A    between atoms: C4_4  and  N1_6
REMARK    4  A    between atoms: N1_6  and  C6_9
REMARK    5  A    between atoms: C6_9  and  C7_10
REMARK    6  A    between atoms: C7_10  and  O1_11
REMARK    7  A    between atoms: C7_10  and  C8_13
REMARK    8  A    between atoms: C23_28  and  O2_29
REMARK    9  A    between atoms: C25_32  and  O3_33
REMARK       I    between atoms: N2_37  and  C27_38
REMARK   10  A    between atoms: C27_38  and  C28_40
ROOT
HETATM    1  C8  UNL     1     -88.727 -17.116   9.100  1.00  0.00     0.121 C
HETATM    2  C9  UNL     1     -89.083 -17.609  10.491  1.00  0.00     0.029 C
HETATM    3  C10 UNL     1     -89.353 -16.383  11.303  1.00  0.00     0.017 C
HETATM    4  C11 UNL     1     -88.108 -15.545  11.490  1.00  0.00     0.021 C
HETATM    5  C12 UNL     1     -88.608 -14.077  11.342  1.00  0.00     0.021 C
HETATM    6  C13 UNL     1     -87.710 -15.714  12.926  1.00  0.00     0.038 C
HETATM    7  C14 UNL     1     -88.388 -14.716  13.841  1.00  0.00     0.036 C
HETATM    8  C15 UNL     1     -87.832 -14.821  15.224  1.00  0.00    -0.023 C
HETATM    9  C16 UNL     1     -86.757 -15.449  15.543  1.00  0.00    -0.072 C
HETATM   10  C17 UNL     1     -86.297 -15.490  16.963  1.00  0.00     0.034 C
HETATM   11  C18 UNL     1     -86.277 -16.958  17.338  1.00  0.00     0.004 C
HETATM   12  C19 UNL     1     -85.669 -17.858  16.324  1.00  0.00     0.001 C
HETATM   13  C20 UNL     1     -86.094 -17.645  14.905  1.00  0.00     0.017 C
HETATM   14  C21 UNL     1     -85.914 -16.176  14.576  1.00  0.00     0.011 C
HETATM   15  C22 UNL     1     -84.431 -15.882  14.799  1.00  0.00     0.023 C
HETATM   16  C23 UNL     1     -86.239 -15.797  13.177  1.00  0.00     0.076 C
HETATM   17  C24 UNL     1     -85.741 -16.934  12.278  1.00  0.00     0.076 C
HETATM   18  C25 UNL     1     -85.924 -16.620  10.826  1.00  0.00     0.182 C
HETATM   19  C26 UNL     1     -87.078 -15.733  10.485  1.00  0.00     0.214 C
HETATM   20  F1  UNL     1     -86.505 -14.476  10.184  1.00  0.00    -0.215 F
HETATM   21  N2  UNL     1     -87.605 -16.219   9.194  1.00  0.00    -0.306 N
HETATM   22  C27 UNL     1     -86.941 -15.828   7.987  1.00  0.00     0.222 C
HETATM   23  O4  UNL     1     -85.943 -15.040   8.102  1.00  0.00    -0.273 OA
ENDROOT
BRANCH   1  24
HETATM   24  C7  UNL     1     -89.875 -16.692   8.281  1.00  0.00     0.166 C
BRANCH  24  25
HETATM   25  C6  UNL     1     -91.133 -17.427   8.839  1.00  0.00     0.266 C
BRANCH  25  26
HETATM   26  N1  UNL     1     -92.252 -16.474   8.816  1.00  0.00    -0.069 N
ATOM     27  H12 UNL     1     -92.810 -16.523   7.963  1.00  0.00     0.277 HD
ATOM     28  H11 UNL     1     -91.957 -15.503   8.718  1.00  0.00     0.277 HD
BRANCH  26  29
HETATM   29  C4  UNL     1     -93.018 -16.726  10.020  1.00  0.00     0.182 C
HETATM   30  C5  UNL     1     -92.957 -15.474  10.876  1.00  0.00     0.040 C
BRANCH  29  31
HETATM   31  C3  UNL     1     -92.595 -17.942  10.778  1.00  0.00     0.032 C
BRANCH  31  32
HETATM   32  C2  UNL     1     -93.726 -18.873  11.137  1.00  0.00    -0.002 C
HETATM   33  C1  UNL     1     -93.307 -20.105  11.874  1.00  0.00     0.005 C
ENDBRANCH  31  32
ENDBRANCH  29  31
ENDBRANCH  26  29
ENDBRANCH  25  26
ENDBRANCH  24  25
BRANCH  24  34
HETATM   34  O1  UNL     1     -90.241 -15.366   8.321  1.00  0.00    -0.392 OA
ATOM     35  H1  UNL     1     -89.685 -15.007   9.003  1.00  0.00     0.210 HD
ENDBRANCH  24  34
ENDBRANCH   1  24
BRANCH  22  36
HETATM   36  C28 UNL     1     -87.263 -16.228   6.624  1.00  0.00     0.098 C
HETATM   37  C29 UNL     1     -87.630 -14.968   5.813  1.00  0.00     0.014 C
ENDBRANCH  22  36
BRANCH  18  38
HETATM   38  O3  UNL     1     -84.713 -16.068  10.408  1.00  0.00    -0.390 OA
ATOM     39  H3  UNL     1     -84.342 -16.700   9.804  1.00  0.00     0.210 HD
ENDBRANCH  18  38
BRANCH  16  40
HETATM   40  O2  UNL     1     -85.573 -14.603  12.905  1.00  0.00    -0.388 OA
ATOM     41  H2  UNL     1     -84.930 -14.378  13.567  1.00  0.00     0.210 HD
ENDBRANCH  16  40
TORSDOF 10
ENDMDL