MODEL 5
REMARK VINA RESULT: -7.931665624      1.999      5.103
REMARK  12 active torsions:
REMARK  status: ('A' for Active; 'I' for Inactive)
REMARK    1  A    between atoms: C9_9  and  O1_10
REMARK    2  A    between atoms: C11_13  and  O2_14
REMARK    3  A    between atoms: C13_17  and  O3_18
REMARK    4  A    between atoms: C17_24  and  C18_25
REMARK    5  A    between atoms: C18_25  and  O4_26
REMARK    6  A    between atoms: C18_25  and  C19_28
REMARK    7  A    between atoms: C19_28  and  C20_29
REMARK    8  A    between atoms: C20_29  and  C21_30
REMARK    9  A    between atoms: C21_30  and  C22_31
REMARK   10  A    between atoms: C22_31  and  O6_33
REMARK   11  A    between atoms: O6_33  and  C23_34
REMARK   12  A    between atoms: C23_34  and  C24_35
ROOT
HETATM    1  C1  UNL     1     -92.231 -17.086  11.355  1.00  0.00     0.016 C
HETATM    2  C2  UNL     1     -90.761 -16.818  11.165  1.00  0.00    -0.034 C
HETATM    3  C3  UNL     1     -90.277 -15.461  11.502  1.00  0.00     0.011 C
HETATM    4  C4  UNL     1     -90.156 -15.192  12.989  1.00  0.00     0.014 C
HETATM    5  C5  UNL     1     -89.501 -16.268  13.755  1.00  0.00    -0.001 C
HETATM    6  C6  UNL     1     -90.597 -17.032  14.520  1.00  0.00     0.019 C
HETATM    7  C7  UNL     1     -88.852 -17.222  12.738  1.00  0.00     0.004 C
HETATM    8  C8  UNL     1     -88.103 -18.274  13.496  1.00  0.00     0.038 C
HETATM    9  C9  UNL     1     -86.829 -17.601  14.028  1.00  0.00     0.128 C
HETATM   10  C10 UNL     1     -87.016 -16.132  14.192  1.00  0.00     0.086 C
HETATM   11  C11 UNL     1     -86.221 -15.574  15.381  1.00  0.00     0.130 C
HETATM   12  C12 UNL     1     -87.193 -14.782  16.232  1.00  0.00     0.067 C
HETATM   13  C13 UNL     1     -88.314 -14.525  15.199  1.00  0.00     0.161 C
HETATM   14  C14 UNL     1     -88.448 -15.924  14.711  1.00  0.00     0.145 C
HETATM   15  F1  UNL     1     -88.439 -16.738  15.864  1.00  0.00    -0.239 F
HETATM   16  C15 UNL     1     -89.819 -17.817  11.768  1.00  0.00    -0.001 C
HETATM   17  C16 UNL     1     -89.142 -17.917  10.396  1.00  0.00     0.013 C
HETATM   18  C17 UNL     1     -90.365 -17.321   9.797  1.00  0.00     0.023 C
ENDROOT
BRANCH  18  19
HETATM   19  C18 UNL     1     -90.182 -16.285   8.738  1.00  0.00     0.123 C
BRANCH  19  20
HETATM   20  O4  UNL     1     -91.425 -16.154   8.074  1.00  0.00    -0.395 OA
ATOM     21  H4  UNL     1     -91.510 -16.906   7.499  1.00  0.00     0.210 HD
ENDBRANCH  19  20
BRANCH  19  22
HETATM   22  C19 UNL     1     -89.161 -16.636   7.710  1.00  0.00     0.032 C
BRANCH  22  23
HETATM   23  C20 UNL     1     -88.818 -15.522   6.781  1.00  0.00     0.012 C
BRANCH  23  24
HETATM   24  C21 UNL     1     -87.629 -15.857   5.908  1.00  0.00     0.111 C
BRANCH  24  25
HETATM   25  C22 UNL     1     -86.506 -14.905   6.165  1.00  0.00     0.259 C
HETATM   26  O5  UNL     1     -86.638 -13.726   5.769  1.00  0.00    -0.265 OA
BRANCH  25  27
HETATM   27  O6  UNL     1     -85.356 -15.281   6.811  1.00  0.00    -0.317 OA
BRANCH  27  28
HETATM   28  C23 UNL     1     -85.363 -15.938   8.037  1.00  0.00     0.217 C
BRANCH  28  29
HETATM   29  C24 UNL     1     -85.662 -15.090   9.204  1.00  0.00    -0.034 A
HETATM   30  C25 UNL     1     -86.805 -15.142   9.949  1.00  0.00     0.009 A
HETATM   31  C26 UNL     1     -87.002 -14.322  11.016  1.00  0.00     0.001 A
HETATM   32  C27 UNL     1     -86.036 -13.396  11.385  1.00  0.00     0.000 A
HETATM   33  C28 UNL     1     -84.882 -13.328  10.651  1.00  0.00     0.001 A
HETATM   34  C29 UNL     1     -84.698 -14.165   9.574  1.00  0.00     0.009 A
ENDBRANCH  28  29
ENDBRANCH  27  28
ENDBRANCH  25  27
ENDBRANCH  24  25
ENDBRANCH  23  24
ENDBRANCH  22  23
ENDBRANCH  19  22
ENDBRANCH  18  19
BRANCH   9  35
HETATM   35  O1  UNL     1     -85.721 -17.938  13.257  1.00  0.00    -0.395 OA
ATOM     36  H1  UNL     1     -85.838 -17.676  12.352  1.00  0.00     0.210 HD
ENDBRANCH   9  35
BRANCH  13  37
HETATM   37  O3  UNL     1     -87.643 -13.676  14.286  1.00  0.00    -0.392 OA
ATOM     38  H3  UNL     1     -86.797 -13.591  14.708  1.00  0.00     0.210 HD
ENDBRANCH  13  37
BRANCH  11  39
HETATM   39  O2  UNL     1     -85.642 -16.595  16.123  1.00  0.00    -0.395 OA
ATOM     40  H2  UNL     1     -86.275 -17.001  16.704  1.00  0.00     0.210 HD
ENDBRANCH  11  39
TORSDOF 12
ENDMDL