MODEL 4
REMARK VINA RESULT: -8.451978680      1.665      2.071
REMARK  9 active torsions:
REMARK  status: ('A' for Active; 'I' for Inactive)
REMARK    1  A    between atoms: C3_3  and  O1_4
REMARK    2  A    between atoms: O1_4  and  C4_5
REMARK    3  A    between atoms: C7_8  and  C8_9
REMARK    4  A    between atoms: C8_9  and  C9_10
REMARK    5  A    between atoms: C11_15  and  N2_16
REMARK    6  A    between atoms: N2_16  and  C12_19
REMARK    7  A    between atoms: C12_19  and  C13_20
REMARK    8  A    between atoms: C13_20  and  O3_21
REMARK    9  A    between atoms: C27_36  and  O4_37
ROOT
HETATM    1  C1  UNL     1     -85.486 -21.912  14.018  1.00  0.00     0.014 C
HETATM    2  C2  UNL     1     -85.527 -21.555  15.163  1.00  0.00    -0.091 C
HETATM    3  C3  UNL     1     -85.555 -21.140  16.553  1.00  0.00     0.268 C
ENDROOT
BRANCH   3   4
HETATM    4  O1  UNL     1     -84.722 -20.066  16.863  1.00  0.00    -0.340 OA
BRANCH   4   5
HETATM    5  C4  UNL     1     -84.815 -18.777  16.385  1.00  0.00     0.070 A
HETATM    6  C5  UNL     1     -86.051 -18.123  16.338  1.00  0.00     0.037 A
HETATM    7  C6  UNL     1     -86.187 -16.844  15.869  1.00  0.00     0.010 A
HETATM    8  C7  UNL     1     -85.093 -16.128  15.415  1.00  0.00    -0.056 A
HETATM    9  C28 UNL     1     -83.877 -16.759  15.456  1.00  0.00     0.010 A
HETATM   10  C29 UNL     1     -83.733 -18.069  15.935  1.00  0.00     0.037 A
BRANCH   8  11
HETATM   11  C8  UNL     1     -85.176 -14.773  14.885  1.00  0.00     0.066 C
BRANCH  11  12
HETATM   12  C9  UNL     1     -86.041 -14.592  13.664  1.00  0.00     0.117 C
HETATM   13  N1  UNL     1     -87.309 -13.971  13.935  1.00  0.00    -0.352 N
HETATM   14  C10 UNL     1     -88.376 -13.719  13.082  1.00  0.00     0.248 C
ATOM     15  H1  UNL     1     -87.446 -13.670  14.900  1.00  0.00     0.163 HD
HETATM   16  O2  UNL     1     -88.838 -12.517  13.080  1.00  0.00    -0.271 OA
HETATM   17  C11 UNL     1     -89.104 -14.593  12.148  1.00  0.00     0.277 C
HETATM   18  C14 UNL     1     -88.352 -15.745  11.575  1.00  0.00     0.043 C
HETATM   19  C15 UNL     1     -89.190 -16.323  10.440  1.00  0.00     0.002 C
HETATM   20  C16 UNL     1     -88.286 -16.850   9.330  1.00  0.00     0.000 C
HETATM   21  C17 UNL     1     -88.116 -15.865   8.214  1.00  0.00     0.000 C
HETATM   22  C18 UNL     1     -86.750 -15.214   8.217  1.00  0.00     0.000 C
HETATM   23  C19 UNL     1     -86.175 -15.085   6.821  1.00  0.00     0.000 C
HETATM   24  C20 UNL     1     -84.671 -14.982   6.856  1.00  0.00     0.000 C
HETATM   25  C21 UNL     1     -84.208 -13.940   7.858  1.00  0.00     0.000 C
HETATM   26  C22 UNL     1     -82.711 -14.050   8.037  1.00  0.00     0.000 C
HETATM   27  C23 UNL     1     -82.388 -14.711   9.379  1.00  0.00     0.000 C
HETATM   28  C24 UNL     1     -82.683 -13.695  10.452  1.00  0.00     0.000 C
HETATM   29  C25 UNL     1     -82.874 -14.316  11.812  1.00  0.00     0.002 C
HETATM   30  C26 UNL     1     -84.261 -14.849  12.027  1.00  0.00     0.034 C
HETATM   31  C27 UNL     1     -85.194 -13.848  12.666  1.00  0.00     0.141 C
BRANCH  17  32
HETATM   32  N2  UNL     1     -90.326 -15.130  12.712  1.00  0.00    -0.060 N
ATOM     33  H22 UNL     1     -91.055 -14.417  12.740  1.00  0.00     0.278 HD
ATOM     34  H21 UNL     1     -90.761 -15.791  12.068  1.00  0.00     0.278 HD
BRANCH  32  35
HETATM   35  C12 UNL     1     -90.145 -15.727  14.010  1.00  0.00     0.259 C
BRANCH  35  36
HETATM   36  C13 UNL     1     -90.658 -17.169  13.886  1.00  0.00     0.191 C
BRANCH  36  37
HETATM   37  O3  UNL     1     -91.067 -17.653  15.111  1.00  0.00    -0.399 OA
ATOM     38  H3  UNL     1     -91.072 -18.603  15.116  1.00  0.00     0.209 HD
ENDBRANCH  36  37
ENDBRANCH  35  36
ENDBRANCH  32  35
ENDBRANCH  17  32
BRANCH  31  39
HETATM   39  O4  UNL     1     -84.511 -12.800  13.252  1.00  0.00    -0.394 OA
ATOM     40  H4  UNL     1     -84.391 -12.076  12.649  1.00  0.00     0.210 HD
ENDBRANCH  31  39
ENDBRANCH  11  12
ENDBRANCH   8  11
ENDBRANCH   4   5
ENDBRANCH   3   4
TORSDOF 9
ENDMDL