MODEL 2
REMARK VINA RESULT: -8.349650934      1.745      2.617
REMARK  11 active torsions:
REMARK  status: ('A' for Active; 'I' for Inactive)
REMARK    1  A    between atoms: C2_2  and  C3_3
REMARK    2  A    between atoms: C3_3  and  C4_4
REMARK    3  A    between atoms: C4_4  and  C5_5
REMARK    4  A    between atoms: C5_5  and  C6_6
REMARK    5  A    between atoms: C8_8  and  C9_9
REMARK    6  A    between atoms: C10_10  and  C11_11
REMARK    7  A    between atoms: C21_22  and  C23_24
REMARK    8  A    between atoms: C23_24  and  O1_25
REMARK    9  A    between atoms: C24_27  and  O2_28
REMARK   10  A    between atoms: C28_33  and  O3_34
REMARK   11  A    between atoms: C29_36  and  O4_37
ROOT
HETATM    1  C11 UNL     1     -86.031 -15.884  11.103  1.00  0.00    -0.050 C
HETATM    2  C12 UNL     1     -85.046 -16.756  10.808  1.00  0.00    -0.019 C
HETATM    3  C13 UNL     1     -83.618 -16.875  10.960  1.00  0.00     0.028 C
HETATM    4  C14 UNL     1     -82.842 -15.716  10.376  1.00  0.00     0.008 C
HETATM    5  C15 UNL     1     -83.805 -14.562  10.138  1.00  0.00    -0.013 C
HETATM    6  C16 UNL     1     -83.030 -13.490   9.413  1.00  0.00     0.010 C
HETATM    7  C17 UNL     1     -84.364 -14.036  11.389  1.00  0.00     0.006 C
HETATM    8  C18 UNL     1     -83.506 -14.086  12.594  1.00  0.00     0.009 C
HETATM    9  C19 UNL     1     -84.572 -13.702  13.656  1.00  0.00     0.046 C
HETATM   10  C20 UNL     1     -85.633 -14.704  13.290  1.00  0.00     0.127 C
HETATM   11  F1  UNL     1     -85.089 -15.932  13.698  1.00  0.00    -0.241 F
HETATM   12  C21 UNL     1     -86.854 -14.550  14.099  1.00  0.00     0.040 C
HETATM   13  C22 UNL     1     -87.565 -15.908  14.261  1.00  0.00     0.024 C
HETATM   14  C24 UNL     1     -87.785 -13.456  13.699  1.00  0.00     0.131 C
HETATM   15  C25 UNL     1     -87.508 -12.852  12.391  1.00  0.00     0.034 C
HETATM   16  C26 UNL     1     -86.692 -13.541  11.392  1.00  0.00     0.020 C
HETATM   17  C27 UNL     1     -85.749 -14.610  11.797  1.00  0.00     0.028 C
ENDROOT
BRANCH   1  18
HETATM   18  C10 UNL     1     -87.309 -16.357  10.667  1.00  0.00     0.004 C
HETATM   19  C9  UNL     1     -88.079 -17.378  10.873  1.00  0.00    -0.019 C
BRANCH  19  20
HETATM   20  C8  UNL     1     -89.439 -17.525  10.185  1.00  0.00     0.040 C
HETATM   21  C7  UNL     1     -89.890 -16.111   9.974  1.00  0.00     0.023 C
HETATM   22  C6  UNL     1     -91.310 -16.001   9.485  1.00  0.00     0.059 C
HETATM   23  C30 UNL     1     -92.163 -17.104   9.963  1.00  0.00     0.162 C
HETATM   24  C29 UNL     1     -91.668 -18.485  10.193  1.00  0.00     0.217 C
HETATM   25  O5  UNL     1     -93.345 -16.869  10.183  1.00  0.00    -0.295 OA
HETATM   26  C28 UNL     1     -90.377 -18.336  11.011  1.00  0.00     0.162 C
BRANCH  22  27
HETATM   27  C5  UNL     1     -91.378 -15.941   7.979  1.00  0.00     0.012 C
BRANCH  27  28
HETATM   28  C4  UNL     1     -90.056 -16.140   7.314  1.00  0.00     0.001 C
BRANCH  28  29
HETATM   29  C3  UNL     1     -89.868 -15.200   6.139  1.00  0.00    -0.000 C
BRANCH  29  30
HETATM   30  C2  UNL     1     -88.417 -14.995   5.809  1.00  0.00    -0.005 C
HETATM   31  C1  UNL     1     -87.600 -15.483   6.993  1.00  0.00     0.005 C
ENDBRANCH  29  30
ENDBRANCH  28  29
ENDBRANCH  27  28
ENDBRANCH  22  27
BRANCH  24  32
HETATM   32  O4  UNL     1     -92.570 -19.172  11.011  1.00  0.00    -0.385 OA
ATOM     33  H4  UNL     1     -93.087 -18.506  11.450  1.00  0.00     0.210 HD
ENDBRANCH  24  32
BRANCH  26  34
HETATM   34  O3  UNL     1     -90.663 -17.630  12.183  1.00  0.00    -0.392 OA
ATOM     35  H3  UNL     1     -91.287 -18.132  12.694  1.00  0.00     0.210 HD
ENDBRANCH  26  34
ENDBRANCH  19  20
ENDBRANCH   1  18
BRANCH  12  36
HETATM   36  C23 UNL     1     -86.476 -14.198  15.547  1.00  0.00     0.179 C
BRANCH  36  37
HETATM   37  O1  UNL     1     -87.527 -14.026  16.392  1.00  0.00    -0.400 OA
ATOM     38  H1  UNL     1     -87.302 -13.693  17.252  1.00  0.00     0.209 HD
ENDBRANCH  36  37
ENDBRANCH  12  36
BRANCH  14  39
HETATM   39  O2  UNL     1     -89.098 -13.988  13.701  1.00  0.00    -0.395 OA
ATOM     40  H2  UNL     1     -89.705 -13.258  13.679  1.00  0.00     0.210 HD
ENDBRANCH  14  39
TORSDOF 11
ENDMDL