MODEL 1
REMARK VINA RESULT: -8.775168777      0.000      0.000
REMARK  10 active torsions:
REMARK  status: ('A' for Active; 'I' for Inactive)
REMARK    1  A    between atoms: C2_2  and  N1_3
REMARK    2  A    between atoms: N1_3  and  C3_5
REMARK    3  A    between atoms: C9_14  and  C10_15
REMARK    4  A    between atoms: C10_15  and  C11_16
REMARK    5  A    between atoms: C16_23  and  N4_24
REMARK    6  A    between atoms: N4_24  and  C17_26
REMARK    7  A    between atoms: C20_31  and  N6_32
REMARK    8  A    between atoms: N6_32  and  C21_34
REMARK    9  A    between atoms: C21_34  and  C22_35
REMARK   10  A    between atoms: C22_35  and  O1_36
ROOT
HETATM    1  C11 UNL     1     -87.575 -16.105   8.654  1.00  0.00    -0.045 A
HETATM    2  C12 UNL     1     -88.510 -15.895   7.665  1.00  0.00     0.017 A
HETATM    3  C13 UNL     1     -88.195 -15.448   6.398  1.00  0.00    -0.032 A
HETATM    4  C14 UNL     1     -89.215 -15.225   5.338  1.00  0.00     0.050 C
HETATM    5  C15 UNL     1     -86.873 -15.194   6.098  1.00  0.00     0.083 A
HETATM    6  N3  UNL     1     -86.205 -14.761   5.010  1.00  0.00    -0.189 N
ATOM      7  H3  UNL     1     -86.633 -14.522   4.116  1.00  0.00     0.184 HD
HETATM    8  C16 UNL     1     -84.885 -14.694   5.284  1.00  0.00     0.684 A
HETATM    9  N8  UNL     1     -84.690 -15.080   6.547  1.00  0.00    -0.189 N
ATOM     10  H8  UNL     1     -83.791 -15.130   7.028  1.00  0.00     0.184 HD
HETATM   11  C24 UNL     1     -85.892 -15.394   7.074  1.00  0.00     0.083 A
HETATM   12  C25 UNL     1     -86.259 -15.846   8.335  1.00  0.00    -0.026 A
HETATM   13  C26 UNL     1     -85.211 -16.056   9.367  1.00  0.00     0.051 C
ENDROOT
BRANCH   8  14
HETATM   14  N4  UNL     1     -83.960 -14.317   4.465  1.00  0.00    -0.176 N
ATOM     15  H4  UNL     1     -84.212 -13.858   3.589  1.00  0.00     0.186 HD
BRANCH  14  16
HETATM   16  C17 UNL     1     -82.573 -14.541   4.785  1.00  0.00     0.138 A
HETATM   17  C18 UNL     1     -81.914 -15.659   4.334  1.00  0.00     0.067 A
HETATM   18  C19 UNL     1     -80.596 -15.826   4.667  1.00  0.00     0.110 A
HETATM   19  N5  UNL     1     -79.983 -14.889   5.426  1.00  0.00    -0.202 N
HETATM   20  C20 UNL     1     -80.598 -13.783   5.883  1.00  0.00     0.679 A
ATOM     21  H5  UNL     1     -79.002 -15.029   5.666  1.00  0.00     0.183 HD
HETATM   22  N7  UNL     1     -81.901 -13.662   5.528  1.00  0.00    -0.176 N
ATOM     23  H7  UNL     1     -82.405 -12.836   5.853  1.00  0.00     0.186 HD
BRANCH  20  24
HETATM   24  N6  UNL     1     -80.031 -12.877   6.609  1.00  0.00    -0.224 N
ATOM     25  H6  UNL     1     -79.730 -13.119   7.553  1.00  0.00     0.177 HD
BRANCH  24  26
HETATM   26  C21 UNL     1     -79.808 -11.536   6.133  1.00  0.00     0.164 C
BRANCH  26  27
HETATM   27  C22 UNL     1     -80.545 -10.507   6.932  1.00  0.00     0.187 C
BRANCH  27  28
HETATM   28  O1  UNL     1     -80.232  -9.224   6.567  1.00  0.00    -0.394 OA
HETATM   29  C23 UNL     1     -79.566  -9.057   5.390  1.00  0.00     0.201 C
ENDBRANCH  27  28
ENDBRANCH  26  27
ENDBRANCH  24  26
ENDBRANCH  20  24
ENDBRANCH  14  16
ENDBRANCH   8  14
BRANCH   1  30
HETATM   30  C10 UNL     1     -87.877 -16.578  10.011  1.00  0.00     0.082 C
BRANCH  30  31
HETATM   31  C9  UNL     1     -89.223 -16.325  10.481  1.00  0.00    -0.003 A
HETATM   32  C3  UNL     1     -89.568 -15.101  10.995  1.00  0.00     0.108 A
HETATM   33  N2  UNL     1     -90.829 -14.856  11.442  1.00  0.00    -0.344 N
HETATM   34  C4  UNL     1     -91.778 -15.805  11.394  1.00  0.00     0.029 A
ATOM     35  H2  UNL     1     -91.057 -13.936  11.819  1.00  0.00     0.167 HD
HETATM   36  C5  UNL     1     -93.160 -15.514  11.891  1.00  0.00     0.070 C
HETATM   37  C6  UNL     1     -91.488 -17.042  10.891  1.00  0.00     0.062 A
HETATM   38 CL1  UNL     1     -92.708 -18.272  10.826  1.00  0.00    -0.082 Cl
HETATM   39  C7  UNL     1     -90.189 -17.297  10.430  1.00  0.00    -0.028 A
HETATM   40  C8  UNL     1     -89.903 -18.628   9.897  1.00  0.00     0.050 C
BRANCH  32  41
HETATM   41  N1  UNL     1     -88.714 -14.139  11.072  1.00  0.00    -0.376 N
ATOM     42  H1  UNL     1     -88.509 -13.625  10.215  1.00  0.00     0.161 HD
BRANCH  41  43
HETATM   43  C2  UNL     1     -88.030 -13.734  12.258  1.00  0.00     0.116 C
HETATM   44  C1  UNL     1     -86.584 -13.446  11.876  1.00  0.00     0.026 C
ENDBRANCH  41  43
ENDBRANCH  32  41
ENDBRANCH  30  31
ENDBRANCH   1  30
TORSDOF 10
ENDMDL