MODEL 3
REMARK VINA RESULT: -8.882462589      3.407      6.543
REMARK  10 active torsions:
REMARK  status: ('A' for Active; 'I' for Inactive)
REMARK    1  A    between atoms: C2_2  and  C3_3
REMARK    2  A    between atoms: C2_2  and  C12_18
REMARK    3  A    between atoms: C3_3  and  C4_4
REMARK    4  A    between atoms: C4_4  and  C5_5
REMARK    5  A    between atoms: C5_5  and  N1_6
REMARK    6  A    between atoms: N1_6  and  N2_8
REMARK    7  A    between atoms: N2_8  and  C6_10
REMARK    8  A    between atoms: C20_29  and  O1_30
REMARK    9  A    between atoms: C22_33  and  C23_34
REMARK   10  A    between atoms: C23_34  and  O2_35
ROOT
HETATM    1  C12 UNL     1     -86.089 -14.905  11.334  1.00  0.00    -0.010 C
HETATM    2  C13 UNL     1     -86.965 -13.938  12.088  1.00  0.00     0.005 C
HETATM    3  C14 UNL     1     -88.414 -14.289  11.703  1.00  0.00     0.006 C
HETATM    4  C15 UNL     1     -88.688 -15.554  12.425  1.00  0.00    -0.002 C
HETATM    5  C16 UNL     1     -90.060 -16.125  12.226  1.00  0.00    -0.005 C
HETATM    6  C17 UNL     1     -91.175 -15.160  12.318  1.00  0.00     0.007 C
HETATM    7  C18 UNL     1     -92.417 -15.702  11.599  1.00  0.00     0.034 C
HETATM    8  C19 UNL     1     -92.225 -17.142  11.394  1.00  0.00     0.200 C
HETATM    9  N4  UNL     1     -93.277 -17.895  10.819  1.00  0.00    -0.044 N
ATOM     10  H41 UNL     1     -93.768 -17.418  10.064  1.00  0.00     0.280 HD
ATOM     11  H42 UNL     1     -94.089 -18.009  11.426  1.00  0.00     0.280 HD
HETATM   12  C20 UNL     1     -92.648 -19.150  10.423  1.00  0.00     0.319 C
HETATM   13  C21 UNL     1     -91.133 -18.894  10.413  1.00  0.00     0.075 C
HETATM   14  C22 UNL     1     -91.105 -17.405  10.377  1.00  0.00     0.017 C
HETATM   15  C24 UNL     1     -89.910 -16.709  10.822  1.00  0.00     0.003 C
HETATM   16  C25 UNL     1     -88.630 -17.423  10.892  1.00  0.00     0.015 C
HETATM   17  C26 UNL     1     -87.813 -16.661  11.951  1.00  0.00    -0.039 C
HETATM   18  C27 UNL     1     -87.727 -17.648  13.129  1.00  0.00     0.015 C
HETATM   19  C28 UNL     1     -86.474 -16.322  11.445  1.00  0.00     0.014 C
ENDROOT
BRANCH   1  20
HETATM   20  C2  UNL     1     -84.646 -14.600  11.634  1.00  0.00    -0.014 C
HETATM   21  C1  UNL     1     -84.424 -13.468  12.568  1.00  0.00     0.010 C
BRANCH  20  22
HETATM   22  C3  UNL     1     -83.890 -15.852  12.048  1.00  0.00     0.006 C
BRANCH  22  23
HETATM   23  C4  UNL     1     -82.806 -16.184  11.050  1.00  0.00     0.021 C
BRANCH  23  24
HETATM   24  C5  UNL     1     -82.988 -15.317   9.828  1.00  0.00     0.139 C
BRANCH  24  25
HETATM   25  N1  UNL     1     -83.533 -16.108   8.731  1.00  0.00    -0.335 N
ATOM     26  H1  UNL     1     -83.492 -17.127   8.776  1.00  0.00     0.180 HD
BRANCH  25  27
HETATM   27  N2  UNL     1     -84.089 -15.515   7.664  1.00  0.00    -0.290 N
ATOM     28  H2  UNL     1     -83.397 -15.026   7.097  1.00  0.00     0.188 HD
BRANCH  27  29
HETATM   29  C6  UNL     1     -85.250 -15.409   7.184  1.00  0.00     0.121 A
HETATM   30  C7  UNL     1     -86.335 -15.725   8.024  1.00  0.00     0.052 A
HETATM   31  C8  UNL     1     -87.641 -15.654   7.636  1.00  0.00     0.029 A
HETATM   32  C9  UNL     1     -87.921 -15.251   6.354  1.00  0.00     0.049 A
HETATM   33 CL1  UNL     1     -89.573 -15.122   5.743  1.00  0.00    -0.083 Cl
HETATM   34  C10 UNL     1     -86.870 -14.945   5.541  1.00  0.00     0.115 A
HETATM   35  N3  UNL     1     -85.567 -15.020   5.941  1.00  0.00    -0.345 N
HETATM   36  C11 UNL     1     -84.527 -14.675   5.012  1.00  0.00     0.157 C
ENDBRANCH  27  29
ENDBRANCH  25  27
ENDBRANCH  24  25
ENDBRANCH  23  24
ENDBRANCH  22  23
ENDBRANCH  20  22
ENDBRANCH   1  20
BRANCH  14  37
HETATM   37  C23 UNL     1     -91.538 -16.971   8.995  1.00  0.00     0.176 C
BRANCH  37  38
HETATM   38  O2  UNL     1     -90.713 -17.503   8.007  1.00  0.00    -0.400 OA
ATOM     39  H2  UNL     1     -90.222 -16.826   7.556  1.00  0.00     0.209 HD
ENDBRANCH  37  38
ENDBRANCH  14  37
BRANCH  12  40
HETATM   40  O1  UNL     1     -92.969 -20.173  11.317  1.00  0.00    -0.370 OA
ATOM     41  H1  UNL     1     -92.249 -20.338  11.916  1.00  0.00     0.212 HD
ENDBRANCH  12  40
TORSDOF 10
ENDMDL