MODEL 2
REMARK VINA RESULT: -8.032513201      2.338      8.434
REMARK  10 active torsions:
REMARK  status: ('A' for Active; 'I' for Inactive)
REMARK    1  A    between atoms: C2_2  and  C3_3
REMARK    2  A    between atoms: C2_2  and  C11_15
REMARK    3  A    between atoms: C3_3  and  C4_4
REMARK    4  A    between atoms: C5_5  and  C6_6
REMARK    5  A    between atoms: C6_6  and  C8_8
REMARK    6  A    between atoms: C6_6  and  C9_11
REMARK    7  A    between atoms: C9_11  and  O3_13
REMARK    8  A    between atoms: C16_20  and  O4_21
REMARK    9  A    between atoms: C22_28  and  O5_29
REMARK   10  A    between atoms: C24_32  and  O6_33
ROOT
HETATM    1  C11 UNL     1     122.941  14.802  51.448  1.00  0.00     0.005 C
HETATM    2  C12 UNL     1     122.088  13.953  52.310  1.00  0.00     0.006 C
HETATM    3  C13 UNL     1     121.132  13.457  51.184  1.00  0.00     0.007 C
HETATM    4  C14 UNL     1     120.671  14.799  50.649  1.00  0.00     0.010 C
HETATM    5  C15 UNL     1     119.916  14.761  49.407  1.00  0.00     0.044 C
HETATM    6  C16 UNL     1     119.436  13.347  49.149  1.00  0.00     0.124 C
HETATM    7  C17 UNL     1     118.412  13.467  48.007  1.00  0.00     0.038 C
HETATM    8  C18 UNL     1     119.257  13.733  46.772  1.00  0.00     0.011 C
HETATM    9  C19 UNL     1     118.413  13.498  45.584  1.00  0.00    -0.017 C
HETATM   10  C20 UNL     1     119.176  13.216  44.306  1.00  0.00     0.018 C
HETATM   11  C21 UNL     1     117.596  12.216  45.838  1.00  0.00     0.018 C
HETATM   12  C22 UNL     1     117.356  14.577  45.381  1.00  0.00     0.128 C
HETATM   13  C23 UNL     1     118.054  15.888  45.320  1.00  0.00     0.065 C
HETATM   14  C24 UNL     1     118.861  16.195  46.521  1.00  0.00     0.131 C
HETATM   15  C25 UNL     1     119.868  15.095  46.894  1.00  0.00     0.009 C
HETATM   16  C26 UNL     1     120.956  15.297  45.819  1.00  0.00     0.020 C
HETATM   17  C27 UNL     1     120.521  15.393  48.185  1.00  0.00     0.060 C
HETATM   18 CL1  UNL     1     120.436  17.198  48.320  1.00  0.00    -0.117 Cl
HETATM   19  C28 UNL     1     122.005  15.116  48.278  1.00  0.00     0.106 C
HETATM   20  C29 UNL     1     122.448  16.010  49.422  1.00  0.00     0.137 C
HETATM   21  O7  UNL     1     123.187  16.936  49.259  1.00  0.00    -0.297 OA
HETATM   22  C30 UNL     1     121.903  15.661  50.752  1.00  0.00     0.025 C
HETATM   23  C31 UNL     1     121.631  16.850  51.617  1.00  0.00     0.024 C
ENDROOT
BRANCH   1  24
HETATM   24  C2  UNL     1     124.164  15.386  51.922  1.00  0.00    -0.010 C
HETATM   25  C1  UNL     1     124.337  15.811  53.336  1.00  0.00     0.010 C
BRANCH  24  26
HETATM   26  C3  UNL     1     125.410  14.689  51.458  1.00  0.00     0.031 C
BRANCH  26  27
HETATM   27  C4  UNL     1     125.897  15.032  50.113  1.00  0.00    -0.029 C
HETATM   28  C5  UNL     1     126.531  16.199  49.904  1.00  0.00    -0.008 C
BRANCH  28  29
HETATM   29  C6  UNL     1     127.054  16.636  48.603  1.00  0.00     0.087 C
HETATM   30  C7  UNL     1     126.088  16.364  47.473  1.00  0.00     0.034 C
BRANCH  29  31
HETATM   31  C8  UNL     1     128.354  16.054  48.261  1.00  0.00     0.188 C
HETATM   32  O1  UNL     1     128.623  15.712  47.085  1.00  0.00    -0.647 OA
HETATM   33  O2  UNL     1     129.360  15.852  49.224  1.00  0.00    -0.647 OA
ENDBRANCH  29  31
BRANCH  29  34
HETATM   34  C9  UNL     1     127.242  18.153  48.642  1.00  0.00     0.136 C
HETATM   35  C10 UNL     1     126.970  18.700  50.023  1.00  0.00     0.041 C
BRANCH  34  36
HETATM   36  O3  UNL     1     128.512  18.503  48.194  1.00  0.00    -0.394 OA
ATOM     37  H3  UNL     1     128.667  19.432  48.316  1.00  0.00     0.210 HD
ENDBRANCH  34  36
ENDBRANCH  29  34
ENDBRANCH  28  29
ENDBRANCH  26  27
ENDBRANCH  24  26
ENDBRANCH   1  24
BRANCH   6  38
HETATM   38  O4  UNL     1     120.375  12.480  48.665  1.00  0.00    -0.395 OA
ATOM     39  H4  UNL     1     120.054  11.816  48.066  1.00  0.00     0.210 HD
ENDBRANCH   6  38
BRANCH  14  40
HETATM   40  O6  UNL     1     118.058  16.551  47.590  1.00  0.00    -0.395 OA
ATOM     41  H6  UNL     1     118.302  16.079  48.378  1.00  0.00     0.210 HD
ENDBRANCH  14  40
BRANCH  12  42
HETATM   42  O5  UNL     1     116.661  14.300  44.230  1.00  0.00    -0.395 OA
ATOM     43  H5  UNL     1     117.204  14.527  43.484  1.00  0.00     0.210 HD
ENDBRANCH  12  42
TORSDOF 10
ENDMDL