MODEL 5
REMARK VINA RESULT: -8.004171897      3.004      4.879
REMARK  11 active torsions:
REMARK  status: ('A' for Active; 'I' for Inactive)
REMARK    1  A    between atoms: C10_11  and  C11_12
REMARK    2  A    between atoms: C11_12  and  O1_13
REMARK    3  A    between atoms: C11_12  and  C12_15
REMARK    4  A    between atoms: C12_15  and  C13_16
REMARK    5  A    between atoms: C12_15  and  C14_19
REMARK    6  A    between atoms: C13_16  and  O2_17
REMARK    7  A    between atoms: C14_19  and  C15_20
REMARK    8  A    between atoms: C15_20  and  C16_21
REMARK    9  A    between atoms: C16_21  and  C17_22
REMARK   10  A    between atoms: C27_36  and  O3_37
REMARK   11  A    between atoms: C29_40  and  O4_41
ROOT
HETATM    1  C1  UNL     1     120.902  13.532  51.220  1.00  0.00     0.023 C
HETATM    2  C2  UNL     1     121.772  14.525  50.437  1.00  0.00     0.011 C
HETATM    3  C3  UNL     1     121.461  15.922  50.784  1.00  0.00    -0.053 C
HETATM    4  C4  UNL     1     121.886  16.360  51.976  1.00  0.00    -0.008 C
HETATM    5 BR1  UNL     1     121.512  18.174  52.489  1.00  0.00    -0.056 Br
HETATM    6  C5  UNL     1     122.627  15.511  52.914  1.00  0.00     0.052 C
HETATM    7  C6  UNL     1     123.242  14.288  52.340  1.00  0.00    -0.000 C
HETATM    8  C7  UNL     1     124.636  14.145  52.850  1.00  0.00    -0.005 C
HETATM    9  C8  UNL     1     125.251  12.795  52.608  1.00  0.00     0.006 C
HETATM   10  C9  UNL     1     126.743  13.060  52.308  1.00  0.00     0.008 C
HETATM   11  C10 UNL     1     126.924  14.460  52.694  1.00  0.00     0.019 C
HETATM   12  C22 UNL     1     125.597  15.098  52.228  1.00  0.00    -0.004 C
HETATM   13  C23 UNL     1     125.505  15.258  50.770  1.00  0.00     0.006 C
HETATM   14  C24 UNL     1     124.202  14.990  50.117  1.00  0.00     0.006 C
HETATM   15  C25 UNL     1     123.214  14.190  50.863  1.00  0.00     0.005 C
HETATM   16  C26 UNL     1     120.721  16.879  49.934  1.00  0.00     0.068 C
HETATM   17  C27 UNL     1     120.353  16.377  48.585  1.00  0.00     0.124 C
HETATM   18  C28 UNL     1     120.301  14.887  48.514  1.00  0.00     0.065 C
HETATM   19  C29 UNL     1     121.579  14.235  48.985  1.00  0.00     0.133 C
ENDROOT
BRANCH  11  20
HETATM   20  C11 UNL     1     128.076  15.250  52.269  1.00  0.00     0.128 C
BRANCH  20  21
HETATM   21  O1  UNL     1     128.612  15.988  53.385  1.00  0.00    -0.395 OA
ATOM     22  H1  UNL     1     128.317  16.890  53.353  1.00  0.00     0.210 HD
ENDBRANCH  20  21
BRANCH  20  23
HETATM   23  C12 UNL     1     129.138  14.727  51.419  1.00  0.00     0.038 C
BRANCH  23  24
HETATM   24  C13 UNL     1     130.489  15.353  51.599  1.00  0.00     0.171 C
BRANCH  24  25
HETATM   25  O2  UNL     1     131.218  14.691  52.613  1.00  0.00    -0.400 OA
ATOM     26  H2  UNL     1     131.564  15.314  53.242  1.00  0.00     0.209 HD
ENDBRANCH  24  25
ENDBRANCH  23  24
BRANCH  23  27
HETATM   27  C14 UNL     1     128.873  14.778  49.933  1.00  0.00     0.010 C
BRANCH  27  28
HETATM   28  C15 UNL     1     129.234  16.014  49.225  1.00  0.00     0.008 C
BRANCH  28  29
HETATM   29  C16 UNL     1     128.180  17.017  48.928  1.00  0.00     0.076 C
BRANCH  29  30
HETATM   30  C17 UNL     1     127.275  16.679  47.811  1.00  0.00     0.072 C
HETATM   31  N1  UNL     1     127.773  15.875  46.908  1.00  0.00    -0.380 N
HETATM   32  C18 UNL     1     127.250  15.309  45.694  1.00  0.00     0.121 C
ATOM     33  H1  UNL     1     128.732  15.589  47.107  1.00  0.00     0.160 HD
HETATM   34  C19 UNL     1     125.784  14.919  45.861  1.00  0.00     0.021 C
HETATM   35  C20 UNL     1     124.924  16.143  45.791  1.00  0.00     0.021 C
HETATM   36  C21 UNL     1     124.732  16.674  47.196  1.00  0.00     0.121 C
HETATM   37  N2  UNL     1     125.964  17.196  47.743  1.00  0.00    -0.380 N
ATOM     38  H2  UNL     1     125.866  18.120  48.163  1.00  0.00     0.160 HD
ENDBRANCH  29  30
ENDBRANCH  28  29
ENDBRANCH  27  28
ENDBRANCH  23  27
ENDBRANCH  20  23
ENDBRANCH  11  20
BRANCH  19  39
HETATM   39  O4  UNL     1     121.473  12.876  48.759  1.00  0.00    -0.394 OA
ATOM     40  H4  UNL     1     121.986  12.383  49.388  1.00  0.00     0.210 HD
ENDBRANCH  19  39
BRANCH  17  41
HETATM   41  O3  UNL     1     119.072  16.852  48.232  1.00  0.00    -0.395 OA
ATOM     42  H3  UNL     1     118.567  16.150  47.840  1.00  0.00     0.210 HD
ENDBRANCH  17  41
TORSDOF 11
ENDMDL