MODEL 2
REMARK VINA RESULT: -8.063802504      2.593      3.503
REMARK  12 active torsions:
REMARK  status: ('A' for Active; 'I' for Inactive)
REMARK    1  A    between atoms: C3_3  and  C5_5
REMARK    2  A    between atoms: C5_5  and  O1_6
REMARK    3  A    between atoms: C14_16  and  O2_17
REMARK    4  A    between atoms: C18_22  and  C19_23
REMARK    5  A    between atoms: C19_23  and  C21_25
REMARK    6  A    between atoms: C21_25  and  C22_26
REMARK    7  A    between atoms: C23_27  and  C25_29
REMARK    8  A    between atoms: C25_29  and  O3_30
REMARK    9  A    between atoms: C26_32  and  C27_33
REMARK   10  A    between atoms: C27_33  and  C28_34
REMARK   11  A    between atoms: C32_39  and  O4_40
REMARK   12  A    between atoms: C33_42  and  O5_43
ROOT
HETATM    1  C5  UNL     1     125.535  15.312  54.876  1.00  0.00     0.133 C
HETATM    2  C6  UNL     1     125.420  15.753  53.458  1.00  0.00    -0.033 C
HETATM    3  C7  UNL     1     124.271  16.214  53.053  1.00  0.00    -0.019 C
HETATM    4  C8  UNL     1     124.041  16.688  51.645  1.00  0.00     0.034 C
HETATM    5  C9  UNL     1     125.038  15.992  50.771  1.00  0.00     0.015 C
HETATM    6  C10 UNL     1     124.643  16.087  49.376  1.00  0.00    -0.015 C
HETATM    7  C11 UNL     1     123.449  16.980  49.120  1.00  0.00     0.020 C
HETATM    8  C12 UNL     1     124.138  14.735  48.803  1.00  0.00     0.016 C
HETATM    9  C13 UNL     1     123.625  14.941  47.397  1.00  0.00     0.033 C
HETATM   10  C14 UNL     1     124.536  15.636  46.452  1.00  0.00     0.122 C
HETATM   11  C15 UNL     1     125.320  16.793  47.057  1.00  0.00     0.066 C
HETATM   12  C16 UNL     1     125.741  16.364  48.425  1.00  0.00    -0.069 C
HETATM   13  C17 UNL     1     126.963  16.143  48.804  1.00  0.00     0.007 C
HETATM   14  C18 UNL     1     127.280  15.617  50.147  1.00  0.00    -0.065 C
HETATM   15  C26 UNL     1     126.474  16.236  51.200  1.00  0.00     0.001 C
HETATM   16  C29 UNL     1     126.647  15.551  52.580  1.00  0.00    -0.003 C
HETATM   17  C30 UNL     1     127.795  16.157  53.300  1.00  0.00     0.021 C
HETATM   18  C31 UNL     1     126.671  14.065  52.525  1.00  0.00     0.049 C
HETATM   19  C32 UNL     1     126.962  13.498  53.903  1.00  0.00     0.151 C
HETATM   20  C33 UNL     1     125.913  13.849  54.930  1.00  0.00     0.190 C
ENDROOT
BRANCH  14  21
HETATM   21  C19 UNL     1     128.705  15.318  50.189  1.00  0.00     0.015 C
HETATM   22  C20 UNL     1     129.185  15.478  48.711  1.00  0.00     0.015 C
BRANCH  21  23
HETATM   23  C21 UNL     1     129.683  16.218  50.860  1.00  0.00     0.036 C
BRANCH  23  24
HETATM   24  C22 UNL     1     129.807  17.474  50.102  1.00  0.00    -0.022 C
HETATM   25  C23 UNL     1     130.061  18.669  50.548  1.00  0.00    -0.064 C
HETATM   26  C24 UNL     1     130.142  19.827  49.582  1.00  0.00     0.045 C
BRANCH  25  27
HETATM   27  C25 UNL     1     130.294  18.991  51.959  1.00  0.00     0.197 C
BRANCH  27  28
HETATM   28  O3  UNL     1     131.656  18.876  52.305  1.00  0.00    -0.397 OA
ATOM     29  H3  UNL     1     131.999  19.687  52.661  1.00  0.00     0.209 HD
ENDBRANCH  27  28
ENDBRANCH  25  27
ENDBRANCH  23  24
ENDBRANCH  21  23
ENDBRANCH  14  21
BRANCH  15  30
HETATM   30  C27 UNL     1     126.642  17.677  51.482  1.00  0.00     0.030 C
BRANCH  30  31
HETATM   31  C28 UNL     1     125.870  18.762  50.910  1.00  0.00     0.116 C
HETATM   32 CL1  UNL     1     126.895  19.419  49.536  1.00  0.00    -0.130 Cl
ENDBRANCH  30  31
ENDBRANCH  15  30
BRANCH  10  33
HETATM   33  O2  UNL     1     125.383  14.754  45.766  1.00  0.00    -0.395 OA
ATOM     34  H2  UNL     1     126.239  15.127  45.590  1.00  0.00     0.210 HD
ENDBRANCH  10  33
BRANCH   1  35
HETATM   35  C3  UNL     1     124.355  15.532  55.731  1.00  0.00    -0.047 C
HETATM   36  C2  UNL     1     124.202  16.567  56.560  1.00  0.00    -0.025 C
HETATM   37  C1  UNL     1     122.917  16.625  57.351  1.00  0.00     0.036 C
HETATM   38  C4  UNL     1     123.186  14.562  55.722  1.00  0.00     0.046 C
ENDBRANCH   1  35
BRANCH   1  39
HETATM   39  O1  UNL     1     126.520  16.049  55.594  1.00  0.00    -0.378 OA
ATOM     40  H1  UNL     1     127.306  15.575  55.349  1.00  0.00     0.211 HD
ENDBRANCH   1  39
BRANCH  19  41
HETATM   41  O4  UNL     1     126.874  12.089  53.678  1.00  0.00    -0.393 OA
ATOM     42  H4  UNL     1     127.455  11.740  54.344  1.00  0.00     0.210 HD
ENDBRANCH  19  41
BRANCH  20  43
HETATM   43  O5  UNL     1     126.409  13.558  56.183  1.00  0.00    -0.389 OA
ATOM     44  H5  UNL     1     126.612  12.632  56.229  1.00  0.00     0.210 HD
ENDBRANCH  20  43
TORSDOF 12
ENDMDL