MODEL 3
REMARK VINA RESULT: -8.075414322      3.328      9.438
REMARK  12 active torsions:
REMARK  status: ('A' for Active; 'I' for Inactive)
REMARK    1  A    between atoms: C2_2  and  C3_3
REMARK    2  A    between atoms: C3_3  and  O1_4
REMARK    3  A    between atoms: C4_6  and  O2_7
REMARK    4  A    between atoms: C17_21  and  O3_22
REMARK    5  A    between atoms: C17_21  and  C18_24
REMARK    6  A    between atoms: C18_24  and  C19_25
REMARK    7  A    between atoms: C19_25  and  C21_27
REMARK    8  A    between atoms: C21_27  and  C22_28
REMARK    9  A    between atoms: C22_28  and  O4_29
REMARK   10  A    between atoms: C22_28  and  C23_31
REMARK   11  A    between atoms: C23_31  and  N1_33
REMARK   12  A    between atoms: C27_36  and  O5_37
ROOT
HETATM    1  C3  UNL     1     120.501  14.988  47.504  1.00  0.00     0.088 C
HETATM    2  C4  UNL     1     119.091  15.480  47.479  1.00  0.00     0.153 C
HETATM    3  C5  UNL     1     118.396  15.391  48.800  1.00  0.00     0.036 C
HETATM    4  C6  UNL     1     119.314  14.824  49.821  1.00  0.00     0.016 C
HETATM    5  C7  UNL     1     120.618  15.599  49.966  1.00  0.00    -0.020 C
HETATM    6  C8  UNL     1     120.125  17.027  50.144  1.00  0.00     0.020 C
HETATM    7  C9  UNL     1     121.386  15.179  51.170  1.00  0.00    -0.020 C
HETATM    8  C10 UNL     1     122.685  14.566  51.143  1.00  0.00    -0.017 C
HETATM    9  C11 UNL     1     123.994  15.138  51.000  1.00  0.00     0.010 C
HETATM   10  C12 UNL     1     124.935  13.986  50.649  1.00  0.00     0.023 C
HETATM   11  C13 UNL     1     124.317  16.144  49.936  1.00  0.00     0.019 C
HETATM   12  C14 UNL     1     124.103  17.419  50.686  1.00  0.00     0.014 C
HETATM   13  C15 UNL     1     124.980  17.083  51.919  1.00  0.00     0.017 C
HETATM   14  C16 UNL     1     124.775  18.181  52.931  1.00  0.00     0.013 C
HETATM   15  C17 UNL     1     124.593  15.750  52.294  1.00  0.00     0.072 C
HETATM   16  C30 UNL     1     123.715  16.029  48.622  1.00  0.00     0.088 C
HETATM   17 CL1  UNL     1     124.683  16.882  47.392  1.00  0.00    -0.125 Cl
HETATM   18  C31 UNL     1     122.290  16.509  48.487  1.00  0.00     0.029 C
HETATM   19  C32 UNL     1     121.333  15.385  48.662  1.00  0.00     0.036 C
ENDROOT
BRANCH  15  20
HETATM   20  O3  UNL     1     123.478  15.885  53.201  1.00  0.00    -0.388 OA
ATOM     21  H3  UNL     1     123.803  15.587  54.043  1.00  0.00     0.210 HD
ENDBRANCH  15  20
BRANCH  15  22
HETATM   22  C18 UNL     1     125.470  14.809  52.982  1.00  0.00     0.043 C
BRANCH  22  23
HETATM   23  C19 UNL     1     126.798  15.184  53.531  1.00  0.00    -0.013 C
HETATM   24  C20 UNL     1     126.949  14.393  54.910  1.00  0.00     0.010 C
BRANCH  23  25
HETATM   25  C21 UNL     1     127.986  14.609  52.718  1.00  0.00     0.038 C
BRANCH  25  26
HETATM   26  C22 UNL     1     128.927  15.749  52.362  1.00  0.00     0.140 C
BRANCH  26  27
HETATM   27  O4  UNL     1     128.749  16.638  53.485  1.00  0.00    -0.394 OA
ATOM     28  H4  UNL     1     128.850  17.489  53.075  1.00  0.00     0.210 HD
ENDBRANCH  26  27
BRANCH  26  29
HETATM   29  C23 UNL     1     128.518  16.470  51.117  1.00  0.00     0.103 C
HETATM   30  C24 UNL     1     128.912  15.694  49.867  1.00  0.00     0.034 C
BRANCH  29  31
HETATM   31  N1  UNL     1     128.790  17.837  51.055  1.00  0.00    -0.406 N
HETATM   32  C25 UNL     1     130.047  18.352  50.735  1.00  0.00     0.119 C
HETATM   33  C26 UNL     1     129.857  19.679  49.977  1.00  0.00     0.051 C
HETATM   34  C27 UNL     1     129.018  19.346  48.765  1.00  0.00     0.121 C
HETATM   35  C28 UNL     1     127.622  19.070  49.281  1.00  0.00     0.051 C
HETATM   36  C29 UNL     1     127.646  18.671  50.741  1.00  0.00     0.119 C
BRANCH  34  37
HETATM   37  O5  UNL     1     129.038  20.375  47.825  1.00  0.00    -0.395 OA
ATOM     38  H5  UNL     1     128.373  20.255  47.158  1.00  0.00     0.210 HD
ENDBRANCH  34  37
ENDBRANCH  29  31
ENDBRANCH  26  29
ENDBRANCH  25  26
ENDBRANCH  23  25
ENDBRANCH  22  23
ENDBRANCH  15  22
BRANCH   1  39
HETATM   39  C2  UNL     1     121.131  15.312  46.165  1.00  0.00     0.036 C
HETATM   40  C1  UNL     1     120.517  14.387  45.096  1.00  0.00     0.008 C
ENDBRANCH   1  39
BRANCH   1  41
HETATM   41  O1  UNL     1     120.395  13.562  47.447  1.00  0.00    -0.387 OA
ATOM     42  H1  UNL     1     119.487  13.420  47.687  1.00  0.00     0.210 HD
ENDBRANCH   1  41
BRANCH   2  43
HETATM   43  O2  UNL     1     118.942  16.728  46.843  1.00  0.00    -0.393 OA
ATOM     44  H2  UNL     1     119.245  17.460  47.366  1.00  0.00     0.210 HD
ENDBRANCH   2  43
TORSDOF 12
ENDMDL