MODEL 1
REMARK VINA RESULT: -8.428722411      0.000      0.000
REMARK  11 active torsions:
REMARK  status: ('A' for Active; 'I' for Inactive)
REMARK    1  A    between atoms: C2_2  and  C4_4
REMARK    2  A    between atoms: C4_4  and  O1_5
REMARK    3  A    between atoms: C4_4  and  C5_7
REMARK    4  A    between atoms: C6_8  and  C7_9
REMARK    5  A    between atoms: C8_10  and  C9_11
REMARK    6  A    between atoms: C8_10  and  C30_40
REMARK    7  A    between atoms: C12_14  and  O2_15
REMARK    8  A    between atoms: C13_17  and  O3_18
REMARK    9  A    between atoms: C14_20  and  O4_21
REMARK   10  A    between atoms: C17_25  and  C18_26
REMARK   11  A    between atoms: C30_40  and  O6_43
ROOT
HETATM    1  C9  UNL     1     127.592  15.716  51.114  1.00  0.00    -0.043 C
HETATM    2  C10 UNL     1     128.533  14.687  50.334  1.00  0.00     0.049 C
HETATM    3  C11 UNL     1     127.279  15.016  52.335  1.00  0.00    -0.008 C
HETATM    4  C12 UNL     1     128.229  14.769  53.446  1.00  0.00     0.082 C
HETATM    5  C13 UNL     1     127.888  15.150  54.834  1.00  0.00     0.204 C
HETATM    6  C14 UNL     1     126.482  14.957  55.252  1.00  0.00     0.158 C
HETATM    7  C15 UNL     1     125.823  14.214  54.093  1.00  0.00     0.034 C
HETATM    8  C16 UNL     1     124.594  13.548  54.559  1.00  0.00     0.019 C
HETATM    9  C17 UNL     1     123.295  14.230  54.541  1.00  0.00     0.038 C
HETATM   10  C21 UNL     1     122.613  14.355  53.236  1.00  0.00     0.051 C
HETATM   11 CL1  UNL     1     121.301  15.578  53.420  1.00  0.00    -0.118 Cl
HETATM   12  C22 UNL     1     121.920  13.084  52.814  1.00  0.00     0.027 C
HETATM   13  C23 UNL     1     121.770  13.247  51.343  1.00  0.00     0.002 C
HETATM   14  C24 UNL     1     122.631  14.373  50.891  1.00  0.00     0.010 C
HETATM   15  C25 UNL     1     123.441  14.833  52.096  1.00  0.00     0.048 C
HETATM   16  C26 UNL     1     124.830  14.343  51.964  1.00  0.00     0.100 A
HETATM   17  C27 UNL     1     125.058  12.848  51.708  1.00  0.00     0.208 A
HETATM   18  O5  UNL     1     125.169  13.804  50.753  1.00  0.00    -0.373 OA
HETATM   19  C28 UNL     1     125.816  15.061  52.859  1.00  0.00     0.026 C
HETATM   20  C29 UNL     1     125.390  16.451  53.035  1.00  0.00     0.024 C
ENDROOT
BRANCH   1  21
HETATM   21  C8  UNL     1     128.002  17.039  50.723  1.00  0.00    -0.018 C
HETATM   22  C7  UNL     1     127.258  17.667  49.823  1.00  0.00     0.010 C
BRANCH  22  23
HETATM   23  C6  UNL     1     126.071  17.237  49.137  1.00  0.00    -0.001 C
HETATM   24  C5  UNL     1     126.080  16.283  48.192  1.00  0.00     0.009 C
BRANCH  24  25
HETATM   25  C4  UNL     1     124.882  15.835  47.488  1.00  0.00     0.169 C
BRANCH  25  26
HETATM   26  C2  UNL     1     125.217  15.470  46.085  1.00  0.00    -0.061 C
HETATM   27  C1  UNL     1     124.283  15.280  45.165  1.00  0.00     0.017 C
HETATM   28  C3  UNL     1     126.642  15.302  45.659  1.00  0.00     0.045 C
ENDBRANCH  25  26
BRANCH  25  29
HETATM   29  O1  UNL     1     123.907  16.818  47.451  1.00  0.00    -0.387 OA
ATOM     30  H1  UNL     1     124.116  17.463  48.116  1.00  0.00     0.210 HD
ENDBRANCH  25  29
ENDBRANCH  24  25
ENDBRANCH  22  23
BRANCH  21  31
HETATM   31  C30 UNL     1     129.149  17.859  51.138  1.00  0.00     0.078 C
HETATM   32  C31 UNL     1     130.526  17.248  50.802  1.00  0.00     0.051 C
HETATM   33  C32 UNL     1     129.310  19.188  50.452  1.00  0.00     0.051 C
BRANCH  31  34
HETATM   34  O6  UNL     1     129.292  17.953  52.548  1.00  0.00    -0.386 OA
ATOM     35  H6  UNL     1     128.470  17.861  53.016  1.00  0.00     0.211 HD
ENDBRANCH  31  34
ENDBRANCH  21  31
ENDBRANCH   1  21
BRANCH   4  36
HETATM   36  O2  UNL     1     129.553  15.114  53.235  1.00  0.00    -0.362 OA
ATOM     37  H2  UNL     1     130.135  15.083  53.985  1.00  0.00     0.217 HD
ENDBRANCH   4  36
BRANCH   5  38
HETATM   38  O3  UNL     1     128.315  16.421  55.210  1.00  0.00    -0.386 OA
ATOM     39  H3  UNL     1     128.023  16.699  56.070  1.00  0.00     0.210 HD
ENDBRANCH   5  38
BRANCH   6  40
HETATM   40  O4  UNL     1     125.809  16.084  55.646  1.00  0.00    -0.392 OA
ATOM     41  H4  UNL     1     125.147  16.407  55.046  1.00  0.00     0.210 HD
ENDBRANCH   6  40
BRANCH   9  42
HETATM   42  C18 UNL     1     122.359  13.519  55.469  1.00  0.00    -0.087 C
HETATM   43  C19 UNL     1     122.372  12.222  55.711  1.00  0.00     0.014 C
HETATM   44  C20 UNL     1     121.329  14.294  56.260  1.00  0.00     0.043 C
ENDBRANCH   9  42
TORSDOF 11
ENDMDL