MODEL 2
REMARK VINA RESULT: -7.867284170      2.988      5.462
REMARK  12 active torsions:
REMARK  status: ('A' for Active; 'I' for Inactive)
REMARK    1  A    between atoms: C2_2  and  C3_3
REMARK    2  A    between atoms: C3_3  and  C4_4
REMARK    3  A    between atoms: C4_4  and  O1_5
REMARK    4  A    between atoms: C4_4  and  C5_7
REMARK    5  A    between atoms: C5_7  and  C7_9
REMARK    6  A    between atoms: C8_10  and  C9_11
REMARK    7  A    between atoms: C9_11  and  N1_12
REMARK    8  A    between atoms: N1_12  and  C10_15
REMARK    9  A    between atoms: C10_15  and  C11_16
REMARK   10  A    between atoms: C15_22  and  O2_23
REMARK   11  A    between atoms: C20_29  and  O3_30
REMARK   12  A    between atoms: C30_42  and  O4_43
ROOT
HETATM    1  C7  UNL     1     121.849  14.110  49.882  1.00  0.00     0.008 C
HETATM    2  C8  UNL     1     122.466  13.515  51.118  1.00  0.00     0.017 C
HETATM    3  C16 UNL     1     123.929  13.424  50.701  1.00  0.00     0.012 C
HETATM    4  C17 UNL     1     124.047  14.827  50.307  1.00  0.00     0.001 C
HETATM    5  C18 UNL     1     125.293  15.325  49.729  1.00  0.00    -0.002 C
HETATM    6  C19 UNL     1     126.460  14.659  50.413  1.00  0.00     0.037 C
HETATM    7  C20 UNL     1     127.648  15.566  50.146  1.00  0.00     0.123 C
HETATM    8  C21 UNL     1     127.441  16.693  51.168  1.00  0.00     0.024 C
HETATM    9  C22 UNL     1     128.638  17.614  51.232  1.00  0.00     0.028 C
HETATM   10  C23 UNL     1     128.882  18.374  49.976  1.00  0.00     0.083 C
HETATM   11 CL1  UNL     1     129.833  19.828  50.398  1.00  0.00    -0.125 Cl
HETATM   12  C24 UNL     1     127.552  18.839  49.432  1.00  0.00     0.021 C
HETATM   13  C25 UNL     1     126.530  18.836  50.521  1.00  0.00     0.011 C
HETATM   14  C26 UNL     1     126.140  17.404  50.944  1.00  0.00    -0.034 C
HETATM   15  C27 UNL     1     125.509  17.602  52.320  1.00  0.00     0.016 C
HETATM   16  C28 UNL     1     125.244  16.829  49.925  1.00  0.00     0.001 C
HETATM   17  C29 UNL     1     123.842  17.280  50.161  1.00  0.00     0.038 C
HETATM   18  C30 UNL     1     122.807  16.497  49.303  1.00  0.00     0.127 C
HETATM   19  C31 UNL     1     122.852  15.070  49.339  1.00  0.00    -0.010 C
HETATM   20  C32 UNL     1     123.326  14.522  47.975  1.00  0.00     0.018 C
ENDROOT
BRANCH   2  21
HETATM   21  C9  UNL     1     122.215  13.865  52.486  1.00  0.00     0.237 C
BRANCH  21  22
HETATM   22  N1  UNL     1     122.552  12.850  53.430  1.00  0.00    -0.070 N
ATOM     23  H12 UNL     1     121.748  12.249  53.615  1.00  0.00     0.277 HD
ATOM     24  H11 UNL     1     123.184  12.166  53.013  1.00  0.00     0.277 HD
BRANCH  22  25
HETATM   25  C10 UNL     1     123.099  13.362  54.664  1.00  0.00     0.286 C
BRANCH  25  26
HETATM   26  C11 UNL     1     124.581  13.326  54.554  1.00  0.00     0.037 C
HETATM   27  N2  UNL     1     125.225  12.494  53.823  1.00  0.00    -0.393 N
HETATM   28  C12 UNL     1     126.663  12.494  53.746  1.00  0.00     0.119 C
ATOM     29  H2  UNL     1     124.702  11.808  53.278  1.00  0.00     0.159 HD
HETATM   30  C13 UNL     1     127.275  13.853  53.764  1.00  0.00     0.022 C
HETATM   31  C14 UNL     1     126.362  14.918  54.291  1.00  0.00     0.039 C
HETATM   32  C15 UNL     1     125.446  14.297  55.318  1.00  0.00     0.165 C
BRANCH  32  33
HETATM   33  O2  UNL     1     126.207  13.557  56.210  1.00  0.00    -0.390 OA
ATOM     34  H2  UNL     1     127.113  13.815  56.088  1.00  0.00     0.210 HD
ENDBRANCH  32  33
ENDBRANCH  25  26
ENDBRANCH  22  25
ENDBRANCH  21  22
ENDBRANCH   2  21
BRANCH   1  35
HETATM   35  C5  UNL     1     120.421  14.454  49.987  1.00  0.00     0.016 C
HETATM   36  C6  UNL     1     120.111  15.734  50.759  1.00  0.00     0.013 C
BRANCH  35  37
HETATM   37  C4  UNL     1     119.591  14.640  48.758  1.00  0.00     0.125 C
BRANCH  37  38
HETATM   38  C3  UNL     1     118.978  15.894  48.327  1.00  0.00     0.058 C
BRANCH  38  39
HETATM   39  C2  UNL     1     119.776  16.336  47.106  1.00  0.00    -0.034 C
HETATM   40  C1  UNL     1     120.181  15.457  46.244  1.00  0.00     0.007 C
ENDBRANCH  38  39
ENDBRANCH  37  38
BRANCH  37  41
HETATM   41  O1  UNL     1     118.417  13.763  48.937  1.00  0.00    -0.395 OA
ATOM     42  H1  UNL     1     118.244  13.843  49.867  1.00  0.00     0.210 HD
ENDBRANCH  37  41
ENDBRANCH  35  37
ENDBRANCH   1  35
BRANCH  18  43
HETATM   43  O4  UNL     1     123.151  16.968  47.988  1.00  0.00    -0.395 OA
ATOM     44  H4  UNL     1     122.343  17.404  47.745  1.00  0.00     0.210 HD
ENDBRANCH  18  43
BRANCH   7  45
HETATM   45  O3  UNL     1     128.790  14.865  50.503  1.00  0.00    -0.395 OA
ATOM     46  H3  UNL     1     129.514  15.480  50.492  1.00  0.00     0.210 HD
ENDBRANCH   7  45
TORSDOF 12
ENDMDL