MODEL 3
REMARK VINA RESULT: -7.433122141      1.138      1.193
REMARK  12 active torsions:
REMARK  status: ('A' for Active; 'I' for Inactive)
REMARK    1  A    between atoms: C2_2  and  O1_4
REMARK    2  A    between atoms: C2_2  and  C4_6
REMARK    3  A    between atoms: C4_6  and  C5_7
REMARK    4  A    between atoms: C5_7  and  C6_8
REMARK    5  A    between atoms: C6_8  and  C7_9
REMARK    6  A    between atoms: C7_9  and  N1_10
REMARK    7  A    between atoms: N1_10  and  C8_13
REMARK    8  A    between atoms: C8_13  and  C9_14
REMARK    9  A    between atoms: C11_17  and  C12_18
REMARK   10  A    between atoms: C21_28  and  O3_29
REMARK   11  A    between atoms: C24_33  and  O4_34
REMARK   12  A    between atoms: C30_42  and  O5_43
ROOT
HETATM    1  C9  UNL     1     125.805  16.041  50.942  1.00  0.00     0.089 C
HETATM    2  C10 UNL     1     124.884  17.301  50.940  1.00  0.00     0.048 C
HETATM    3  O2  UNL     1     126.965  16.563  50.410  1.00  0.00    -0.371 OA
HETATM    4  C11 UNL     1     127.468  17.723  50.825  1.00  0.00     0.145 C
HETATM    5  C15 UNL     1     128.330  17.654  52.093  1.00  0.00     0.035 C
HETATM    6  C16 UNL     1     127.715  16.837  53.156  1.00  0.00     0.012 C
HETATM    7  C17 UNL     1     127.354  15.425  52.758  1.00  0.00    -0.030 C
HETATM    8  C18 UNL     1     128.306  14.779  51.814  1.00  0.00     0.016 C
HETATM    9  C19 UNL     1     127.542  14.649  54.074  1.00  0.00     0.003 C
HETATM   10  C20 UNL     1     126.994  15.231  55.274  1.00  0.00     0.070 C
HETATM   11  C21 UNL     1     125.712  14.610  55.856  1.00  0.00     0.047 C
HETATM   12  C22 UNL     1     124.555  14.975  55.056  1.00  0.00    -0.037 C
HETATM   13  C23 UNL     1     123.326  15.136  55.967  1.00  0.00     0.069 C
HETATM   14  C24 UNL     1     122.546  13.917  56.195  1.00  0.00     0.122 C
HETATM   15  C25 UNL     1     122.619  12.861  55.169  1.00  0.00     0.033 C
HETATM   16  C26 UNL     1     123.134  13.234  53.844  1.00  0.00     0.020 C
HETATM   17  C27 UNL     1     124.093  14.406  53.815  1.00  0.00     0.021 C
HETATM   18  C28 UNL     1     123.128  15.509  53.281  1.00  0.00     0.024 C
HETATM   19  C29 UNL     1     125.151  14.210  52.696  1.00  0.00     0.147 C
HETATM   20  F1  UNL     1     124.310  13.612  51.750  1.00  0.00    -0.238 F
HETATM   21  C30 UNL     1     125.979  12.973  53.097  1.00  0.00     0.160 C
HETATM   22  C31 UNL     1     127.251  13.222  53.789  1.00  0.00     0.041 C
HETATM   23  C32 UNL     1     125.891  15.387  52.277  1.00  0.00     0.073 C
ENDROOT
BRANCH   1  24
HETATM   24  C8  UNL     1     125.165  15.257  49.843  1.00  0.00     0.270 C
BRANCH  24  25
HETATM   25  N1  UNL     1     124.828  16.204  48.723  1.00  0.00    -0.072 N
ATOM     26  H12 UNL     1     124.882  17.187  48.993  1.00  0.00     0.277 HD
ATOM     27  H11 UNL     1     123.840  16.198  48.471  1.00  0.00     0.277 HD
BRANCH  25  28
HETATM   28  C7  UNL     1     125.714  15.856  47.613  1.00  0.00     0.232 C
BRANCH  28  29
HETATM   29  C6  UNL     1     125.006  16.016  46.257  1.00  0.00     0.027 C
BRANCH  29  30
HETATM   30  C5  UNL     1     124.075  14.858  46.105  1.00  0.00     0.004 C
BRANCH  30  31
HETATM   31  C4  UNL     1     122.649  15.071  45.881  1.00  0.00     0.037 C
BRANCH  31  32
HETATM   32  C2  UNL     1     121.709  15.143  47.034  1.00  0.00     0.051 C
HETATM   33  C1  UNL     1     120.250  15.066  46.683  1.00  0.00     0.045 C
HETATM   34  C3  UNL     1     122.000  14.021  48.027  1.00  0.00     0.045 C
BRANCH  32  35
HETATM   35  O1  UNL     1     121.951  16.333  47.789  1.00  0.00    -0.391 OA
ATOM     36  H1  UNL     1     122.876  16.387  48.002  1.00  0.00     0.210 HD
ENDBRANCH  32  35
ENDBRANCH  31  32
ENDBRANCH  30  31
ENDBRANCH  29  30
ENDBRANCH  28  29
ENDBRANCH  25  28
ENDBRANCH  24  25
ENDBRANCH   1  24
BRANCH   4  37
HETATM   37  C12 UNL     1     128.323  18.485  49.849  1.00  0.00     0.056 C
HETATM   38  C13 UNL     1     129.500  19.221  50.415  1.00  0.00     0.035 C
HETATM   39  C14 UNL     1     128.920  17.510  48.814  1.00  0.00     0.035 C
HETATM   40 CL1  UNL     1     127.439  19.666  48.858  1.00  0.00    -0.117 Cl
ENDBRANCH   4  37
BRANCH  21  41
HETATM   41  O5  UNL     1     126.140  12.095  52.001  1.00  0.00    -0.392 OA
ATOM     42  H5  UNL     1     126.918  12.314  51.501  1.00  0.00     0.210 HD
ENDBRANCH  21  41
BRANCH  11  43
HETATM   43  O3  UNL     1     125.856  13.459  56.492  1.00  0.00    -0.365 OA
ATOM     44  H3  UNL     1     125.251  12.768  56.250  1.00  0.00     0.217 HD
ENDBRANCH  11  43
BRANCH  14  45
HETATM   45  O4  UNL     1     121.189  14.300  56.351  1.00  0.00    -0.395 OA
ATOM     46  H4  UNL     1     120.837  13.815  57.088  1.00  0.00     0.210 HD
ENDBRANCH  14  45
TORSDOF 12
ENDMDL