MODEL 4
REMARK VINA RESULT: -8.271726909      2.240      9.808
REMARK  12 active torsions:
REMARK  status: ('A' for Active; 'I' for Inactive)
REMARK    1  A    between atoms: C2_2  and  C4_4
REMARK    2  A    between atoms: C4_4  and  C5_5
REMARK    3  A    between atoms: C4_4  and  C29_39
REMARK    4  A    between atoms: C5_5  and  C6_6
REMARK    5  A    between atoms: C6_6  and  C7_7
REMARK    6  A    between atoms: C7_7  and  C8_9
REMARK    7  A    between atoms: C13_14  and  O1_15
REMARK    8  A    between atoms: C20_23  and  O2_24
REMARK    9  A    between atoms: C21_26  and  O3_27
REMARK   10  A    between atoms: C28_36  and  O5_37
REMARK   11  A    between atoms: C29_39  and  C30_40
REMARK   12  A    between atoms: C30_40  and  O6_43
ROOT
HETATM    1  C8  UNL     1     121.997  14.889  46.778  1.00  0.00     0.055 C
HETATM    2  C9  UNL     1     121.412  14.316  48.032  1.00  0.00     0.011 C
HETATM    3  C10 UNL     1     122.559  14.297  49.066  1.00  0.00     0.016 C
HETATM    4  C11 UNL     1     123.266  15.574  48.727  1.00  0.00     0.019 C
HETATM    5  C12 UNL     1     122.326  16.671  49.175  1.00  0.00     0.021 C
HETATM    6  C13 UNL     1     123.301  15.363  47.222  1.00  0.00     0.074 C
HETATM    7  C14 UNL     1     123.987  16.509  46.630  1.00  0.00     0.040 C
HETATM    8  C15 UNL     1     125.460  16.445  47.044  1.00  0.00     0.011 C
HETATM    9  C16 UNL     1     125.730  15.810  48.352  1.00  0.00     0.030 C
HETATM   10  C17 UNL     1     127.043  16.355  48.897  1.00  0.00    -0.024 C
HETATM   11  C18 UNL     1     127.971  16.130  47.695  1.00  0.00     0.016 C
HETATM   12  C19 UNL     1     127.110  17.770  49.263  1.00  0.00     0.044 C
HETATM   13  C20 UNL     1     128.618  18.089  49.406  1.00  0.00     0.148 C
HETATM   14  C21 UNL     1     129.139  17.335  50.559  1.00  0.00     0.155 C
HETATM   15  C22 UNL     1     128.728  15.902  50.710  1.00  0.00    -0.008 C
HETATM   16  C23 UNL     1     129.835  14.986  50.157  1.00  0.00     0.018 C
HETATM   17  C24 UNL     1     128.765  15.625  52.225  1.00  0.00     0.018 C
HETATM   18  C25 UNL     1     127.439  15.530  50.096  1.00  0.00     0.074 C
HETATM   19  C26 UNL     1     126.269  15.502  51.010  1.00  0.00     0.135 C
HETATM   20  O4  UNL     1     126.215  15.902  52.135  1.00  0.00    -0.297 OA
HETATM   21  C27 UNL     1     124.997  14.898  50.450  1.00  0.00     0.117 C
HETATM   22  C28 UNL     1     124.596  15.817  49.315  1.00  0.00     0.079 C
ENDROOT
BRANCH   1  23
HETATM   23  C7  UNL     1     121.131  15.774  45.962  1.00  0.00     0.177 C
HETATM   24  F1  UNL     1     119.937  16.153  46.524  1.00  0.00    -0.249 F
BRANCH  23  25
HETATM   25  C6  UNL     1     120.644  14.977  44.686  1.00  0.00     0.038 C
BRANCH  25  26
HETATM   26  C5  UNL     1     119.212  14.870  44.847  1.00  0.00     0.008 C
BRANCH  26  27
HETATM   27  C4  UNL     1     118.527  13.487  44.669  1.00  0.00    -0.008 C
BRANCH  27  28
HETATM   28  C2  UNL     1     118.734  12.939  43.334  1.00  0.00    -0.019 C
HETATM   29  C1  UNL     1     118.154  13.780  42.191  1.00  0.00     0.010 C
HETATM   30  C3  UNL     1     118.150  11.553  43.074  1.00  0.00     0.010 C
ENDBRANCH  27  28
BRANCH  27  31
HETATM   31  C29 UNL     1     118.818  12.783  45.921  1.00  0.00     0.042 C
BRANCH  31  32
HETATM   32  C30 UNL     1     117.985  11.923  46.734  1.00  0.00     0.051 C
HETATM   33  C31 UNL     1     118.495  12.101  48.250  1.00  0.00     0.045 C
HETATM   34  C32 UNL     1     118.183  10.406  46.613  1.00  0.00     0.045 C
BRANCH  32  35
HETATM   35  O6  UNL     1     116.643  12.168  46.819  1.00  0.00    -0.391 OA
ATOM     36  H6  UNL     1     116.051  11.460  47.045  1.00  0.00     0.210 HD
ENDBRANCH  32  35
ENDBRANCH  31  32
ENDBRANCH  27  31
ENDBRANCH  26  27
ENDBRANCH  25  26
ENDBRANCH  23  25
ENDBRANCH   1  23
BRANCH   6  37
HETATM   37  O1  UNL     1     124.153  14.237  46.993  1.00  0.00    -0.388 OA
ATOM     38  H1  UNL     1     124.091  14.104  46.055  1.00  0.00     0.210 HD
ENDBRANCH   6  37
BRANCH  22  39
HETATM   39  O5  UNL     1     124.593  17.141  49.831  1.00  0.00    -0.388 OA
ATOM     40  H5  UNL     1     125.213  17.165  50.550  1.00  0.00     0.210 HD
ENDBRANCH  22  39
BRANCH  13  41
HETATM   41  O2  UNL     1     128.622  19.467  49.747  1.00  0.00    -0.393 OA
ATOM     42  H2  UNL     1     129.144  19.857  49.055  1.00  0.00     0.210 HD
ENDBRANCH  13  41
BRANCH  14  43
HETATM   43  O3  UNL     1     130.553  17.369  50.518  1.00  0.00    -0.392 OA
ATOM     44  H3  UNL     1     130.837  18.272  50.590  1.00  0.00     0.210 HD
ENDBRANCH  14  43
TORSDOF 12
ENDMDL