MODEL 3
REMARK VINA RESULT: -7.660425023      2.891      5.708
REMARK  13 active torsions:
REMARK  status: ('A' for Active; 'I' for Inactive)
REMARK    1  A    between atoms: C2_2  and  C5_6
REMARK    2  A    between atoms: C8_9  and  C10_11
REMARK    3  A    between atoms: C10_11  and  C12_13
REMARK    4  A    between atoms: C12_13  and  O1_14
REMARK    5  A    between atoms: C12_13  and  C13_16
REMARK    6  A    between atoms: C13_16  and  C14_17
REMARK    7  A    between atoms: C14_17  and  C15_18
REMARK    8  A    between atoms: C15_18  and  C16_19
REMARK    9  A    between atoms: C15_18  and  C17_22
REMARK   10  A    between atoms: C16_19  and  O2_20
REMARK   11  A    between atoms: C22_27  and  O3_28
REMARK   12  A    between atoms: C23_30  and  O4_32
REMARK   13  A    between atoms: C25_34  and  O5_35
ROOT
HETATM    1  C1  UNL     1     125.748  17.663  49.740  1.00  0.00     0.049 C
HETATM    2  C2  UNL     1     125.675  16.827  48.531  1.00  0.00    -0.052 C
HETATM    3  C3  UNL     1     126.878  16.539  47.970  1.00  0.00     0.100 C
HETATM    4  C4  UNL     1     128.068  17.029  48.548  1.00  0.00     0.088 C
HETATM    5  N1  UNL     1     129.055  17.424  49.002  1.00  0.00    -0.192 NA
ENDROOT
BRANCH   2   6
HETATM    6  C5  UNL     1     124.485  16.254  47.939  1.00  0.00     0.011 C
HETATM    7  C6  UNL     1     123.277  16.066  48.379  1.00  0.00    -0.070 C
HETATM    8  C7  UNL     1     122.832  16.455  49.712  1.00  0.00     0.047 C
HETATM    9  C31 UNL     1     122.309  15.328  47.444  1.00  0.00    -0.013 C
HETATM   10  C8  UNL     1     121.342  16.751  49.845  1.00  0.00    -0.008 C
HETATM   11  C9  UNL     1     121.177  18.194  49.322  1.00  0.00     0.018 C
HETATM   12  C25 UNL     1     120.482  15.904  48.986  1.00  0.00     0.133 C
HETATM   13  C26 UNL     1     121.020  16.030  47.568  1.00  0.00     0.046 C
HETATM   14  C27 UNL     1     119.959  15.696  46.557  1.00  0.00     0.090 C
HETATM   15 CL1  UNL     1     119.029  14.247  46.931  1.00  0.00    -0.124 Cl
HETATM   16  C28 UNL     1     120.560  15.552  45.184  1.00  0.00     0.021 C
HETATM   17  C29 UNL     1     121.750  14.662  45.162  1.00  0.00     0.002 C
HETATM   18  C30 UNL     1     122.835  15.302  46.048  1.00  0.00     0.014 C
HETATM   19  C32 UNL     1     122.313  13.913  47.981  1.00  0.00     0.021 C
BRANCH  10  20
HETATM   20  C10 UNL     1     121.021  16.809  51.298  1.00  0.00     0.021 C
HETATM   21  C11 UNL     1     119.756  17.556  51.643  1.00  0.00     0.013 C
BRANCH  20  22
HETATM   22  C12 UNL     1     122.164  17.140  52.206  1.00  0.00     0.122 C
BRANCH  22  23
HETATM   23  O1  UNL     1     122.083  18.413  52.751  1.00  0.00    -0.395 OA
ATOM     24  H1  UNL     1     121.482  18.472  53.484  1.00  0.00     0.210 HD
ENDBRANCH  22  23
BRANCH  22  25
HETATM   25  C13 UNL     1     122.275  16.172  53.396  1.00  0.00     0.032 C
BRANCH  25  26
HETATM   26  C14 UNL     1     121.618  14.879  53.018  1.00  0.00     0.010 C
BRANCH  26  27
HETATM   27  C15 UNL     1     122.517  13.686  53.118  1.00  0.00     0.016 C
BRANCH  27  28
HETATM   28  C16 UNL     1     121.920  12.537  52.378  1.00  0.00     0.169 C
BRANCH  28  29
HETATM   29  O2  UNL     1     120.785  12.915  51.658  1.00  0.00    -0.400 OA
ATOM     30  H2  UNL     1     120.972  13.020  50.732  1.00  0.00     0.209 HD
ENDBRANCH  28  29
ENDBRANCH  27  28
BRANCH  27  31
HETATM   31  C17 UNL     1     123.923  14.040  52.694  1.00  0.00     0.028 C
HETATM   32  C18 UNL     1     124.295  13.497  51.334  1.00  0.00     0.009 C
HETATM   33  C19 UNL     1     125.543  14.270  50.876  1.00  0.00     0.007 C
HETATM   34  C20 UNL     1     126.666  13.944  51.824  1.00  0.00     0.013 C
HETATM   35  C21 UNL     1     127.930  14.662  51.455  1.00  0.00     0.012 C
HETATM   36  C22 UNL     1     126.261  14.379  53.219  1.00  0.00     0.156 C
HETATM   37  C23 UNL     1     124.991  13.611  53.644  1.00  0.00     0.084 C
HETATM   38  C24 UNL     1     124.743  13.937  55.079  1.00  0.00     0.049 C
BRANCH  36  39
HETATM   39  O3  UNL     1     127.269  14.172  54.147  1.00  0.00    -0.392 OA
ATOM     40  H3  UNL     1     126.940  13.805  54.959  1.00  0.00     0.210 HD
ENDBRANCH  36  39
BRANCH  37  41
HETATM   41  O4  UNL     1     125.240  12.236  53.502  1.00  0.00    -0.387 OA
ATOM     42  H4  UNL     1     125.427  11.848  54.349  1.00  0.00     0.210 HD
ENDBRANCH  37  41
ENDBRANCH  27  31
ENDBRANCH  26  27
ENDBRANCH  25  26
ENDBRANCH  22  25
ENDBRANCH  20  22
ENDBRANCH  10  20
BRANCH  12  43
HETATM   43  O5  UNL     1     120.287  14.622  49.407  1.00  0.00    -0.394 OA
ATOM     44  H5  UNL     1     119.735  14.080  48.856  1.00  0.00     0.210 HD
ENDBRANCH  12  43
ENDBRANCH   2   6
TORSDOF 13
ENDMDL