MODEL 1
REMARK VINA RESULT: -8.270010093      0.000      0.000
REMARK  13 active torsions:
REMARK  status: ('A' for Active; 'I' for Inactive)
REMARK    1  A    between atoms: C2_2  and  C3_3
REMARK    2  A    between atoms: C2_2  and  C12_13
REMARK    3  A    between atoms: C5_5  and  O1_6
REMARK    4  A    between atoms: O1_6  and  C6_7
REMARK    5  A    between atoms: C19_20  and  C20_21
REMARK    6  A    between atoms: C20_21  and  O2_22
REMARK    7  A    between atoms: C20_21  and  C21_24
REMARK    8  A    between atoms: C21_24  and  O3_26
REMARK    9  A    between atoms: C21_24  and  C23_28
REMARK   10  A    between atoms: C23_28  and  C24_29
REMARK   11  A    between atoms: C24_29  and  O4_30
REMARK   12  A    between atoms: C25_32  and  O5_33
REMARK   13  A    between atoms: C28_38  and  O6_39
ROOT
HETATM    1  C12 UNL     1     124.430  16.244  47.007  1.00  0.00     0.023 C
HETATM    2  C13 UNL     1     123.767  16.690  48.338  1.00  0.00     0.010 C
HETATM    3  C14 UNL     1     122.617  15.718  48.510  1.00  0.00     0.006 C
HETATM    4  C15 UNL     1     122.208  15.568  47.094  1.00  0.00    -0.001 C
HETATM    5  C16 UNL     1     121.136  14.547  46.815  1.00  0.00    -0.003 C
HETATM    6  C17 UNL     1     119.990  14.853  47.717  1.00  0.00     0.006 C
HETATM    7  C18 UNL     1     118.622  14.562  47.237  1.00  0.00     0.018 C
HETATM    8  C19 UNL     1     118.472  13.949  45.869  1.00  0.00     0.049 C
HETATM    9  C25 UNL     1     117.202  14.345  45.177  1.00  0.00     0.135 C
HETATM   10  C26 UNL     1     117.512  14.924  43.822  1.00  0.00     0.073 C
HETATM   11  C27 UNL     1     119.011  14.845  43.645  1.00  0.00     0.208 C
HETATM   12  F1  UNL     1     119.328  16.066  43.011  1.00  0.00    -0.246 F
HETATM   13  C28 UNL     1     119.448  14.815  45.054  1.00  0.00     0.105 C
HETATM   14  C29 UNL     1     120.873  14.548  45.349  1.00  0.00     0.028 C
HETATM   15  C30 UNL     1     121.722  15.576  44.638  1.00  0.00     0.009 C
HETATM   16  C31 UNL     1     123.187  15.498  44.926  1.00  0.00     0.011 C
HETATM   17  C32 UNL     1     123.521  15.260  46.396  1.00  0.00    -0.033 C
HETATM   18  C33 UNL     1     123.925  13.827  46.515  1.00  0.00     0.016 C
ENDROOT
BRANCH   1  19
HETATM   19  C2  UNL     1     125.815  15.915  47.339  1.00  0.00    -0.073 C
HETATM   20  C1  UNL     1     126.778  15.676  46.202  1.00  0.00     0.044 C
BRANCH  19  21
HETATM   21  C3  UNL     1     126.457  16.550  48.512  1.00  0.00    -0.057 C
HETATM   22  C4  UNL     1     126.738  16.140  49.722  1.00  0.00     0.012 C
HETATM   23  C5  UNL     1     127.415  17.210  50.552  1.00  0.00     0.146 C
HETATM   24  C10 UNL     1     126.958  18.457  49.864  1.00  0.00     0.040 C
HETATM   25  C11 UNL     1     126.943  17.993  48.424  1.00  0.00     0.041 C
BRANCH  23  26
HETATM   26  O1  UNL     1     128.783  17.006  50.373  1.00  0.00    -0.372 OA
BRANCH  26  27
HETATM   27  C6  UNL     1     129.488  16.996  51.565  1.00  0.00     0.051 C
HETATM   28  C7  UNL     1     130.239  15.683  51.631  1.00  0.00     0.045 C
HETATM   29  C8  UNL     1     128.611  17.091  52.775  1.00  0.00     0.045 C
HETATM   30  C9  UNL     1     130.516  18.103  51.638  1.00  0.00     0.045 C
ENDBRANCH  26  27
ENDBRANCH  23  26
ENDBRANCH  19  21
ENDBRANCH   1  19
BRANCH  13  31
HETATM   31  O6  UNL     1     119.088  16.141  45.473  1.00  0.00    -0.386 OA
ATOM     32  H6  UNL     1     119.748  16.670  45.040  1.00  0.00     0.210 HD
ENDBRANCH  13  31
BRANCH   8  33
HETATM   33  C20 UNL     1     118.764  12.509  45.861  1.00  0.00     0.170 C
BRANCH  33  34
HETATM   34  O2  UNL     1     118.948  11.997  44.557  1.00  0.00    -0.391 OA
ATOM     35  H2  UNL     1     119.864  11.869  44.339  1.00  0.00     0.210 HD
ENDBRANCH  33  34
BRANCH  33  36
HETATM   36  C21 UNL     1     118.067  11.545  46.703  1.00  0.00     0.100 C
HETATM   37  C22 UNL     1     118.514  11.732  48.203  1.00  0.00     0.053 C
BRANCH  36  38
HETATM   38  O3  UNL     1     116.663  11.747  46.860  1.00  0.00    -0.383 OA
ATOM     39  H3  UNL     1     116.351  11.847  47.752  1.00  0.00     0.211 HD
ENDBRANCH  36  38
BRANCH  36  40
HETATM   40  C23 UNL     1     118.158  10.085  46.473  1.00  0.00     0.036 C
BRANCH  40  41
HETATM   41  C24 UNL     1     117.229   9.327  45.653  1.00  0.00     0.130 C
BRANCH  41  42
HETATM   42  O4  UNL     1     116.702   9.772  44.505  1.00  0.00    -0.373 OA
ATOM     43  H4  UNL     1     115.780   9.721  44.284  1.00  0.00     0.216 HD
ENDBRANCH  41  42
ENDBRANCH  40  41
ENDBRANCH  36  40
ENDBRANCH  33  36
ENDBRANCH   8  33
BRANCH   9  44
HETATM   44  O5  UNL     1     116.477  15.261  45.969  1.00  0.00    -0.395 OA
ATOM     45  H5  UNL     1     115.968  14.799  46.625  1.00  0.00     0.210 HD
ENDBRANCH   9  44
TORSDOF 13
ENDMDL