MODEL 5
REMARK VINA RESULT: -7.779857370      2.609      5.932
REMARK  11 active torsions:
REMARK  status: ('A' for Active; 'I' for Inactive)
REMARK    1  A    between atoms: O1_2  and  C2_3
REMARK    2  A    between atoms: C2_3  and  C3_5
REMARK    3  A    between atoms: C10_13  and  O3_14
REMARK    4  A    between atoms: O3_14  and  C11_15
REMARK    5  A    between atoms: C11_15  and  O4_16
REMARK    6  A    between atoms: C11_15  and  O5_18
REMARK    7  A    between atoms: O5_18  and  C12_19
REMARK    8  A    between atoms: C16_23  and  C17_24
REMARK       I    between atoms: C17_24  and  N1_26
REMARK    9  A    between atoms: N1_26  and  C18_28
REMARK   10  A    between atoms: C18_28  and  C19_29
REMARK   11  A    between atoms: C19_29  and  C20_30
ROOT
HETATM    1  C3  UNL     1    -100.744 -14.724  51.660  1.00  0.00     0.249 C
HETATM    2  C4  UNL     1     -99.723 -14.099  52.502  1.00  0.00     0.075 C
HETATM    3  C5  UNL     1     -99.601 -14.485  53.929  1.00  0.00     0.006 C
HETATM    4  C6  UNL     1     -98.191 -14.064  54.370  1.00  0.00     0.026 C
HETATM    5  C7  UNL     1    -100.551 -13.723  54.839  1.00  0.00     0.026 C
HETATM    6  S1  UNL     1     -99.692 -16.283  54.137  1.00  0.00    -0.126 SA
HETATM    7  C8  UNL     1    -100.024 -16.907  52.446  1.00  0.00     0.255 C
HETATM    8  C9  UNL     1     -98.826 -16.629  51.606  1.00  0.00     0.109 C
HETATM    9  C10 UNL     1     -99.241 -15.956  50.293  1.00  0.00     0.069 C
HETATM   10  C16 UNL     1    -100.225 -15.002  50.285  1.00  0.00     0.085 C
HETATM   11  N2  UNL     1    -101.166 -16.127  52.005  1.00  0.00    -0.039 N
ATOM     12  H21 UNL     1    -101.657 -16.576  51.232  1.00  0.00     0.280 HD
ATOM     13  H22 UNL     1    -101.920 -16.138  52.691  1.00  0.00     0.280 HD
ENDROOT
BRANCH  10  14
HETATM   14  C17 UNL     1    -100.908 -14.822  49.015  1.00  0.00     0.256 C
HETATM   15  O6  UNL     1    -100.967 -13.691  48.441  1.00  0.00    -0.267 OA
HETATM   16  N1  UNL     1    -101.528 -15.880  48.314  1.00  0.00    -0.336 N
ATOM     17  H1  UNL     1    -101.625 -16.715  48.892  1.00  0.00     0.168 HD
BRANCH  16  18
HETATM   18  C18 UNL     1    -102.033 -16.071  47.048  1.00  0.00     0.069 C
BRANCH  18  19
HETATM   19  C19 UNL     1    -103.229 -15.538  46.420  1.00  0.00     0.083 C
BRANCH  19  20
HETATM   20  C20 UNL     1    -104.357 -16.271  47.140  1.00  0.00    -0.053 A
HETATM   21  C21 UNL     1    -105.293 -15.497  47.768  1.00  0.00     0.010 A
HETATM   22  C22 UNL     1    -106.212 -16.155  48.570  1.00  0.00     0.043 A
HETATM   23  C23 UNL     1    -106.202 -17.529  48.744  1.00  0.00     0.116 A
HETATM   24  F1  UNL     1    -107.150 -18.090  49.555  1.00  0.00    -0.206 F
HETATM   25  C24 UNL     1    -105.241 -18.281  48.093  1.00  0.00     0.043 A
HETATM   26  C25 UNL     1    -104.304 -17.636  47.278  1.00  0.00     0.010 A
ENDBRANCH  19  20
ENDBRANCH  18  19
ENDBRANCH  16  18
ENDBRANCH  10  14
BRANCH   1  27
HETATM   27  C2  UNL     1    -101.985 -14.001  51.814  1.00  0.00     0.300 C
HETATM   28  O2  UNL     1    -102.181 -12.771  51.687  1.00  0.00    -0.262 OA
BRANCH  27  29
HETATM   29  O1  UNL     1    -103.240 -14.639  52.127  1.00  0.00    -0.324 OA
HETATM   30  C1  UNL     1    -104.212 -14.891  51.162  1.00  0.00     0.213 C
ENDBRANCH  27  29
ENDBRANCH   1  27
BRANCH   9  31
HETATM   31  O3  UNL     1     -98.665 -16.259  49.163  1.00  0.00    -0.300 OA
BRANCH  31  32
HETATM   32  C11 UNL     1     -97.831 -15.952  48.270  1.00  0.00     0.416 C
BRANCH  32  33
HETATM   33  O4  UNL     1     -96.564 -15.932  48.612  1.00  0.00    -0.349 OA
ATOM     34  H4  UNL     1     -96.020 -16.649  48.311  1.00  0.00     0.215 HD
ENDBRANCH  32  33
BRANCH  32  35
HETATM   35  O5  UNL     1     -97.978 -15.611  46.957  1.00  0.00    -0.329 OA
BRANCH  35  36
HETATM   36  C12 UNL     1     -97.835 -14.421  46.270  1.00  0.00     0.055 C
HETATM   37  C13 UNL     1     -96.684 -14.298  45.327  1.00  0.00     0.045 C
HETATM   38  C14 UNL     1     -97.778 -13.209  47.183  1.00  0.00     0.045 C
HETATM   39  C15 UNL     1     -99.136 -14.222  45.446  1.00  0.00     0.045 C
ENDBRANCH  35  36
ENDBRANCH  32  35
ENDBRANCH  31  32
ENDBRANCH   9  31
TORSDOF 11
ENDMDL