MODEL 2
REMARK VINA RESULT: -8.135671777      2.849      5.430
REMARK  9 active torsions:
REMARK  status: ('A' for Active; 'I' for Inactive)
REMARK    1  A    between atoms: C4_4  and  C5_5
REMARK    2  A    between atoms: C5_5  and  C6_6
REMARK    3  A    between atoms: C6_6  and  C8_8
REMARK    4  A    between atoms: C12_13  and  O2_14
REMARK    5  A    between atoms: C14_17  and  O3_18
REMARK    6  A    between atoms: O3_18  and  C15_19
REMARK    7  A    between atoms: C15_19  and  C16_21
REMARK    8  A    between atoms: C19_24  and  N1_25
REMARK    9  A    between atoms: C24_35  and  O7_36
ROOT
HETATM    1  C8  UNL     1    -101.341 -15.191  52.802  1.00  0.00     0.139 C
HETATM    2  O1  UNL     1    -102.608 -15.402  52.307  1.00  0.00    -0.378 OA
HETATM    3  C9  UNL     1    -101.924 -15.933  51.181  1.00  0.00     0.142 C
HETATM    4  C10 UNL     1    -102.775 -15.953  50.008  1.00  0.00     0.060 C
HETATM    5  C11 UNL     1    -104.077 -15.145  50.153  1.00  0.00     0.042 C
HETATM    6  C12 UNL     1    -105.191 -15.850  49.355  1.00  0.00     0.121 C
HETATM    7  C13 UNL     1    -104.511 -16.326  48.082  1.00  0.00     0.067 C
HETATM    8  C14 UNL     1    -103.329 -15.442  47.715  1.00  0.00     0.174 C
HETATM    9  C21 UNL     1    -102.158 -15.709  48.679  1.00  0.00     0.136 C
HETATM   10  F1  UNL     1    -101.623 -16.927  48.214  1.00  0.00    -0.240 F
HETATM   11  C22 UNL     1    -101.089 -14.717  48.567  1.00  0.00     0.049 C
HETATM   12  C23 UNL     1    -101.156 -13.474  49.363  1.00  0.00     0.036 C
HETATM   13  C24 UNL     1    -101.061 -13.583  50.831  1.00  0.00     0.131 C
HETATM   14  C25 UNL     1    -100.901 -14.912  51.410  1.00  0.00     0.035 C
HETATM   15  C26 UNL     1     -99.448 -15.394  51.252  1.00  0.00     0.023 C
ENDROOT
BRANCH   8  16
HETATM   16  O3  UNL     1    -102.916 -15.860  46.414  1.00  0.00    -0.308 OA
BRANCH  16  17
HETATM   17  C15 UNL     1    -102.696 -14.948  45.400  1.00  0.00     0.295 C
HETATM   18  O4  UNL     1    -103.692 -14.413  44.862  1.00  0.00    -0.259 OA
BRANCH  17  19
HETATM   19  C16 UNL     1    -101.341 -14.623  44.977  1.00  0.00     0.055 A
HETATM   20  C17 UNL     1    -100.232 -14.942  45.744  1.00  0.00     0.023 A
HETATM   21  C18 UNL     1     -98.958 -14.615  45.305  1.00  0.00     0.056 A
HETATM   22  C19 UNL     1     -98.744 -13.968  44.106  1.00  0.00     0.173 A
HETATM   23  N2  UNL     1     -99.834 -13.667  43.378  1.00  0.00    -0.346 N
HETATM   24  C20 UNL     1    -101.086 -13.976  43.784  1.00  0.00     0.107 A
ATOM     25  H2  UNL     1     -99.711 -13.188  42.486  1.00  0.00     0.167 HD
BRANCH  22  26
HETATM   26  N1  UNL     1     -97.427 -13.630  43.652  1.00  0.00    -0.098 N
HETATM   27  O5  UNL     1     -97.196 -13.330  42.467  1.00  0.00    -0.531 OA
HETATM   28  O6  UNL     1     -96.392 -13.633  44.533  1.00  0.00    -0.531 OA
ENDBRANCH  22  26
ENDBRANCH  17  19
ENDBRANCH  16  17
ENDBRANCH   8  16
BRANCH   6  29
HETATM   29  O2  UNL     1    -105.648 -16.915  50.121  1.00  0.00    -0.395 OA
ATOM     30  H2  UNL     1    -106.201 -17.453  49.565  1.00  0.00     0.210 HD
ENDBRANCH   6  29
BRANCH  13  31
HETATM   31  O7  UNL     1    -102.132 -12.828  51.370  1.00  0.00    -0.395 OA
ATOM     32  H7  UNL     1    -101.856 -11.920  51.372  1.00  0.00     0.210 HD
ENDBRANCH  13  31
BRANCH   1  33
HETATM   33  C6  UNL     1    -101.232 -14.225  53.888  1.00  0.00     0.015 C
HETATM   34  C7  UNL     1     -99.926 -13.435  53.855  1.00  0.00     0.012 C
BRANCH  33  35
HETATM   35  C5  UNL     1    -101.204 -15.012  55.211  1.00  0.00     0.034 C
BRANCH  35  36
HETATM   36  C4  UNL     1    -100.071 -15.932  55.303  1.00  0.00    -0.024 C
HETATM   37  C2  UNL     1    -100.269 -17.240  55.355  1.00  0.00    -0.091 C
HETATM   38  C1  UNL     1    -101.642 -17.813  55.322  1.00  0.00     0.042 C
HETATM   39  C3  UNL     1     -99.114 -18.192  55.449  1.00  0.00     0.042 C
ENDBRANCH  35  36
ENDBRANCH  33  35
ENDBRANCH   1  33
TORSDOF 9
ENDMDL