MODEL 5
REMARK VINA RESULT: -8.371871986      2.388      3.167
REMARK  7 active torsions:
REMARK  status: ('A' for Active; 'I' for Inactive)
REMARK    1  A    between atoms: N1_1  and  C1_4
REMARK    2  A    between atoms: C2_7  and  C3_8
REMARK    3  A    between atoms: C6_12  and  C7_13
REMARK    4  A    between atoms: N5_22  and  C14_23
REMARK    5  A    between atoms: C14_23  and  C15_24
REMARK    6  A    between atoms: C21_33  and  O2_34
REMARK    7  A    between atoms: O2_34  and  C22_35
ROOT
HETATM    1  C3  UNL     1    -101.320 -15.164  49.340  1.00  0.00     0.080 A
HETATM    2  C4  UNL     1    -100.238 -16.006  49.243  1.00  0.00     0.134 A
HETATM    3  N3  UNL     1     -99.093 -15.634  49.843  1.00  0.00    -0.165 N
HETATM    4  C5  UNL     1     -97.865 -16.224  49.931  1.00  0.00     0.145 A
HETATM    5  C6  UNL     1     -97.010 -15.428  50.664  1.00  0.00     0.076 A
HETATM    6  N4  UNL     1     -97.742 -14.358  51.012  1.00  0.00    -0.188 N
ATOM      7  H4  UNL     1     -97.404 -13.571  51.566  1.00  0.00     0.184 HD
HETATM    8  C13 UNL     1     -99.005 -14.480  50.516  1.00  0.00     0.698 A
HETATM    9  N5  UNL     1    -100.076 -13.631  50.621  1.00  0.00    -0.118 N
HETATM   10  C20 UNL     1    -101.228 -13.980  50.031  1.00  0.00     0.280 A
HETATM   11  O1  UNL     1    -102.211 -13.224  50.115  1.00  0.00    -0.266 OA
ENDROOT
BRANCH   1  12
HETATM   12  C2  UNL     1    -102.647 -15.489  48.745  1.00  0.00     0.101 A
HETATM   13  N2  UNL     1    -103.642 -15.824  49.575  1.00  0.00    -0.188 N
HETATM   14  C1  UNL     1    -104.853 -16.082  49.104  1.00  0.00     0.676 A
ATOM     15  H2  UNL     1    -103.467 -15.882  50.579  1.00  0.00     0.184 HD
HETATM   16  N7  UNL     1    -105.124 -16.015  47.768  1.00  0.00    -0.199 N
HETATM   17  C28 UNL     1    -104.165 -15.687  46.929  1.00  0.00     0.145 A
ATOM     18  H7  UNL     1    -106.062 -16.217  47.423  1.00  0.00     0.183 HD
HETATM   19  C21 UNL     1    -102.855 -15.404  47.394  1.00  0.00     0.120 A
BRANCH  14  20
HETATM   20  N1  UNL     1    -105.803 -16.402  49.908  1.00  0.00    -0.234 N
ATOM     21  H12 UNL     1    -106.541 -15.721  50.085  1.00  0.00     0.174 HD
ATOM     22  H11 UNL     1    -105.808 -17.319  50.356  1.00  0.00     0.174 HD
ENDBRANCH  14  20
BRANCH  19  23
HETATM   23  O2  UNL     1    -101.944 -15.081  46.540  1.00  0.00    -0.307 OA
BRANCH  23  24
HETATM   24  C22 UNL     1    -101.039 -14.718  45.737  1.00  0.00     0.076 A
HETATM   25  C23 UNL     1    -101.228 -14.480  44.371  1.00  0.00     0.040 A
HETATM   26  C24 UNL     1    -100.209 -14.088  43.539  1.00  0.00     0.045 A
HETATM   27  C25 UNL     1     -98.942 -13.912  44.034  1.00  0.00     0.116 A
HETATM   28  F1  UNL     1     -97.918 -13.528  43.251  1.00  0.00    -0.206 F
HETATM   29  C26 UNL     1     -98.699 -14.132  45.363  1.00  0.00     0.045 A
HETATM   30  C27 UNL     1     -99.715 -14.524  46.193  1.00  0.00     0.040 A
ENDBRANCH  23  24
ENDBRANCH  19  23
ENDBRANCH   1  12
BRANCH   9  31
HETATM   31  C14 UNL     1     -99.866 -12.418  51.361  1.00  0.00     0.148 C
BRANCH  31  32
HETATM   32  C15 UNL     1     -99.539 -12.571  52.764  1.00  0.00     0.048 A
HETATM   33  C16 UNL     1    -100.243 -13.435  53.571  1.00  0.00     0.031 A
HETATM   34  C17 UNL     1     -99.905 -13.565  54.929  1.00  0.00     0.004 A
HETATM   35  C18 UNL     1     -98.868 -12.824  55.447  1.00  0.00     0.017 A
HETATM   36  C19 UNL     1     -98.191 -11.972  54.606  1.00  0.00     0.088 A
HETATM   37  N6  UNL     1     -98.541 -11.873  53.317  1.00  0.00    -0.365 N
ATOM     38  H6  UNL     1     -98.018 -11.230  52.723  1.00  0.00     0.165 HD
ENDBRANCH  31  32
ENDBRANCH   9  31
BRANCH   5  39
HETATM   39  C7  UNL     1     -95.611 -15.692  50.981  1.00  0.00    -0.007 A
HETATM   40  C8  UNL     1     -94.635 -15.387  50.028  1.00  0.00     0.014 A
HETATM   41  C9  UNL     1     -93.303 -15.615  50.280  1.00  0.00     0.001 A
HETATM   42  C10 UNL     1     -92.856 -16.150  51.463  1.00  0.00     0.000 A
HETATM   43  C11 UNL     1     -93.830 -16.457  52.419  1.00  0.00     0.001 A
HETATM   44  C12 UNL     1     -95.171 -16.226  52.166  1.00  0.00     0.014 A
ENDBRANCH   5  39
TORSDOF 7
ENDMDL