MODEL 3
REMARK VINA RESULT: -8.238785445      1.930      6.487
REMARK  7 active torsions:
REMARK  status: ('A' for Active; 'I' for Inactive)
REMARK    1  A    between atoms: O1_2  and  C2_3
REMARK    2  A    between atoms: C2_3  and  C3_4
REMARK    3  A    between atoms: C4_8  and  C5_9
REMARK    4  A    between atoms: C7_11  and  N2_12
REMARK    5  A    between atoms: N2_12  and  C8_14
REMARK    6  A    between atoms: C17_28  and  O3_29
REMARK    7  A    between atoms: C19_31  and  O4_32
ROOT
HETATM    1  C5  UNL     1     -99.183 -15.741  50.124  1.00  0.00     0.088 A
HETATM    2  C6  UNL     1    -100.492 -15.486  49.794  1.00  0.00     0.064 A
HETATM    3  C7  UNL     1    -100.812 -15.032  48.512  1.00  0.00     0.047 A
HETATM    4  C15 UNL     1     -99.777 -14.858  47.618  1.00  0.00     0.020 A
HETATM    5  C16 UNL     1    -100.089 -14.407  46.345  1.00  0.00     0.055 A
HETATM    6  C17 UNL     1     -99.045 -14.238  45.460  1.00  0.00     0.102 A
HETATM    7  C19 UNL     1     -97.723 -14.486  45.765  1.00  0.00     0.103 A
HETATM    8  C21 UNL     1     -97.462 -14.940  47.064  1.00  0.00     0.070 A
HETATM    9  C22 UNL     1     -98.461 -15.123  47.975  1.00  0.00     0.048 A
HETATM   10  N5  UNL     1     -98.201 -15.556  49.213  1.00  0.00    -0.352 N
ATOM     11  H5  UNL     1     -97.236 -15.752  49.478  1.00  0.00     0.166 HD
ENDROOT
BRANCH   3  12
HETATM   12  N2  UNL     1    -102.009 -14.772  48.132  1.00  0.00    -0.354 N
ATOM     13  H2  UNL     1    -102.245 -13.827  47.831  1.00  0.00     0.166 HD
BRANCH  12  14
HETATM   14  C8  UNL     1    -103.011 -15.780  48.124  1.00  0.00     0.051 A
HETATM   15  C9  UNL     1    -103.007 -16.754  47.147  1.00  0.00     0.046 A
HETATM   16  C10 UNL     1    -103.960 -17.729  47.122  1.00  0.00     0.011 A
HETATM   17  C11 UNL     1    -104.173 -18.805  46.260  1.00  0.00     0.120 A
HETATM   18  C12 UNL     1    -104.930 -17.719  48.100  1.00  0.00     0.061 A
HETATM   19  N3  UNL     1    -105.268 -19.412  46.745  1.00  0.00    -0.311 N
HETATM   20  N4  UNL     1    -105.717 -18.781  47.822  1.00  0.00    -0.300 N
ATOM     21  H3  UNL     1    -105.695 -20.245  46.341  1.00  0.00     0.186 HD
ATOM     22  H4  UNL     1    -106.538 -19.058  48.360  1.00  0.00     0.187 HD
HETATM   23  C13 UNL     1    -104.955 -16.757  49.085  1.00  0.00     0.053 A
HETATM   24  C14 UNL     1    -103.987 -15.770  49.106  1.00  0.00     0.040 A
HETATM   25 BR1  UNL     1    -103.990 -14.410  50.466  1.00  0.00    -0.049 Br
ENDBRANCH  12  14
ENDBRANCH   3  12
BRANCH   1  26
HETATM   26  C4  UNL     1     -98.811 -16.214  51.441  1.00  0.00     0.198 A
HETATM   27  O2  UNL     1     -97.559 -16.274  51.848  1.00  0.00    -0.216 OA
HETATM   28  N1  UNL     1     -97.518 -16.732  53.058  1.00  0.00    -0.244 N
HETATM   29  C3  UNL     1     -98.780 -16.981  53.464  1.00  0.00     0.128 A
ATOM     30  H1  UNL     1     -96.674 -16.878  53.611  1.00  0.00     0.196 HD
HETATM   31  N6  UNL     1     -99.574 -16.652  52.441  1.00  0.00    -0.320 N
ATOM     32  H6  UNL     1    -100.591 -16.724  52.428  1.00  0.00     0.169 HD
BRANCH  29  33
HETATM   33  C2  UNL     1     -99.138 -17.508  54.797  1.00  0.00     0.245 C
BRANCH  33  34
HETATM   34  O1  UNL     1    -100.226 -18.333  54.836  1.00  0.00    -0.389 OA
HETATM   35  C1  UNL     1    -101.362 -17.832  55.409  1.00  0.00     0.202 C
ENDBRANCH  33  34
ENDBRANCH  29  33
ENDBRANCH   1  26
BRANCH   6  36
HETATM   36  O3  UNL     1     -99.280 -13.784  44.150  1.00  0.00    -0.353 OA
HETATM   37  C18 UNL     1    -100.467 -14.200  43.515  1.00  0.00     0.210 C
ENDBRANCH   6  36
BRANCH   7  38
HETATM   38  O4  UNL     1     -96.704 -14.302  44.841  1.00  0.00    -0.353 OA
HETATM   39  C20 UNL     1     -95.388 -14.156  45.337  1.00  0.00     0.210 C
ENDBRANCH   7  38
TORSDOF 7
ENDMDL