MODEL 5
REMARK VINA RESULT: -7.445447257      2.556      3.595
REMARK  8 active torsions:
REMARK  status: ('A' for Active; 'I' for Inactive)
REMARK    1  A    between atoms: O1_2  and  C2_3
REMARK    2  A    between atoms: C4_5  and  C5_6
REMARK    3  A    between atoms: C9_15  and  N3_16
REMARK    4  A    between atoms: C11_20  and  C12_21
REMARK    5  A    between atoms: C14_24  and  O2_25
REMARK    6  A    between atoms: O2_25  and  C15_26
REMARK    7  A    between atoms: C15_26  and  C16_27
REMARK    8  A    between atoms: N4_29  and  C18_30
ROOT
HETATM    1  C2  UNL     1     -99.588 -15.478  49.329  1.00  0.00     0.102 A
HETATM    2  C3  UNL     1    -100.832 -16.035  49.165  1.00  0.00     0.052 A
HETATM    3  C4  UNL     1    -101.535 -15.918  47.998  1.00  0.00    -0.015 A
HETATM    4  C11 UNL     1    -101.028 -15.240  46.938  1.00  0.00    -0.034 A
HETATM    5  C13 UNL     1     -99.753 -14.676  47.122  1.00  0.00     0.048 A
HETATM    6  C14 UNL     1     -99.025 -14.775  48.277  1.00  0.00     0.103 A
ENDROOT
BRANCH   3   7
HETATM    7  C5  UNL     1    -102.858 -16.605  47.869  1.00  0.00    -0.002 A
HETATM    8  C6  UNL     1    -102.970 -17.824  47.268  1.00  0.00     0.065 A
HETATM    9  S1  UNL     1    -104.605 -18.224  47.475  1.00  0.00    -0.082 SA
HETATM   10  C7  UNL     1    -105.128 -16.835  48.323  1.00  0.00     0.089 A
HETATM   11  N1  UNL     1    -106.335 -16.421  48.828  1.00  0.00    -0.346 N
HETATM   12  C10 UNL     1    -103.985 -16.069  48.429  1.00  0.00     0.053 A
HETATM   13  C8  UNL     1    -106.468 -15.250  49.449  1.00  0.00     0.182 A
ATOM     14  H1  UNL     1    -107.151 -17.025  48.724  1.00  0.00     0.167 HD
HETATM   15  N2  UNL     1    -105.383 -14.493  49.564  1.00  0.00    -0.338 N
HETATM   16  C9  UNL     1    -104.178 -14.832  49.098  1.00  0.00     0.113 A
ATOM     17  H2  UNL     1    -105.477 -13.594  50.038  1.00  0.00     0.168 HD
BRANCH  16  18
HETATM   18  N3  UNL     1    -103.187 -14.032  49.238  1.00  0.00    -0.385 N
ATOM     19  H32 UNL     1    -102.765 -13.916  50.160  1.00  0.00     0.157 HD
ATOM     20  H31 UNL     1    -102.819 -13.528  48.432  1.00  0.00     0.157 HD
ENDBRANCH  16  18
ENDBRANCH   3   7
BRANCH   4  21
HETATM   21  C12 UNL     1    -101.701 -15.034  45.632  1.00  0.00     0.124 C
HETATM   22 BR1  UNL     1    -100.658 -14.207  44.257  1.00  0.00    -0.091 Br
ENDBRANCH   4  21
BRANCH   1  23
HETATM   23  O1  UNL     1     -98.937 -15.631  50.521  1.00  0.00    -0.353 OA
HETATM   24  C1  UNL     1     -98.221 -16.743  50.950  1.00  0.00     0.210 C
ENDBRANCH   1  23
BRANCH   6  25
HETATM   25  O2  UNL     1     -97.793 -14.237  48.481  1.00  0.00    -0.342 OA
BRANCH  25  26
HETATM   26  C15 UNL     1     -97.093 -13.219  47.903  1.00  0.00     0.236 C
BRANCH  26  27
HETATM   27  C16 UNL     1     -96.169 -13.532  46.806  1.00  0.00     0.068 A
HETATM   28  C17 UNL     1     -96.271 -13.368  45.444  1.00  0.00     0.141 A
HETATM   29  N4  UNL     1     -95.154 -13.842  44.856  1.00  0.00    -0.278 N
HETATM   30  N5  UNL     1     -94.370 -14.292  45.822  1.00  0.00    -0.240 N
HETATM   31  N6  UNL     1     -94.952 -14.118  46.973  1.00  0.00    -0.287 N
ATOM     32  H5  UNL     1     -93.450 -14.712  45.686  1.00  0.00     0.208 HD
ATOM     33  H6  UNL     1     -94.553 -14.382  47.874  1.00  0.00     0.188 HD
BRANCH  29  34
HETATM   34  C18 UNL     1     -94.801 -13.898  43.461  1.00  0.00     0.043 C
HETATM   35  C19 UNL     1     -93.631 -14.867  43.316  1.00  0.00     0.039 C
HETATM   36  C20 UNL     1     -95.968 -14.492  42.699  1.00  0.00     0.039 C
HETATM   37  C21 UNL     1     -94.432 -12.534  42.914  1.00  0.00     0.039 C
ENDBRANCH  29  34
ENDBRANCH  26  27
ENDBRANCH  25  26
ENDBRANCH   6  25
TORSDOF 8
ENDMDL