MODEL 1
REMARK VINA RESULT: -9.082385731      0.000      0.000
REMARK  7 active torsions:
REMARK  status: ('A' for Active; 'I' for Inactive)
REMARK    1  A    between atoms: N1_2  and  C3_4
REMARK    2  A    between atoms: C3_4  and  C4_5
REMARK    3  A    between atoms: C7_8  and  N2_9
REMARK    4  A    between atoms: N2_9  and  C8_11
REMARK    5  A    between atoms: C11_16  and  C12_17
REMARK    6  A    between atoms: C19_26  and  C20_27
REMARK    7  A    between atoms: C23_35  and  N7_36
ROOT
HETATM    1  C20 UNL     1    -100.449 -15.845  51.689  1.00  0.00     0.130 A
HETATM    2  N4  UNL     1    -100.236 -16.995  52.355  1.00  0.00    -0.327 N
ATOM      3  H4  UNL     1    -100.317 -17.928  51.950  1.00  0.00     0.168 HD
HETATM    4  C21 UNL     1     -99.905 -16.744  53.610  1.00  0.00     0.190 A
HETATM    5  C22 UNL     1     -99.615 -17.773  54.575  1.00  0.00     0.137 C
HETATM    6  N5  UNL     1     -99.363 -18.604  55.357  1.00  0.00    -0.188 NA
HETATM    7  N6  UNL     1     -99.902 -15.420  53.768  1.00  0.00    -0.318 N
ATOM      8  H6  UNL     1     -99.684 -14.929  54.635  1.00  0.00     0.169 HD
HETATM    9  C23 UNL     1    -100.240 -14.823  52.582  1.00  0.00     0.136 A
ENDROOT
BRANCH   1  10
HETATM   10  C19 UNL     1    -100.824 -15.729  50.270  1.00  0.00     0.179 A
HETATM   11  O1  UNL     1    -101.871 -16.256  49.685  1.00  0.00    -0.288 OA
HETATM   12  C18 UNL     1    -101.922 -15.966  48.402  1.00  0.00     0.119 A
HETATM   13  C11 UNL     1    -102.932 -16.398  47.537  1.00  0.00     0.012 C
HETATM   14  C26 UNL     1    -100.813 -15.188  48.144  1.00  0.00     0.114 A
HETATM   15  C10 UNL     1    -102.870 -16.421  46.165  1.00  0.00     0.032 C
HETATM   16  C9  UNL     1    -101.953 -15.762  45.372  1.00  0.00     0.090 C
HETATM   17  N3  UNL     1    -101.039 -14.836  45.740  1.00  0.00    -0.350 N
HETATM   18  C8  UNL     1    -100.442 -14.642  46.930  1.00  0.00     0.135 C
ATOM     19  H3  UNL     1    -100.760 -14.187  45.004  1.00  0.00     0.166 HD
HETATM   20  N8  UNL     1    -100.179 -15.071  49.300  1.00  0.00    -0.329 N
ATOM     21  H8  UNL     1     -99.313 -14.548  49.434  1.00  0.00     0.168 HD
BRANCH  13  22
HETATM   22  C12 UNL     1    -104.144 -16.860  48.155  1.00  0.00    -0.023 A
HETATM   23  C13 UNL     1    -104.541 -18.155  47.914  1.00  0.00     0.015 A
HETATM   24  C14 UNL     1    -105.703 -18.611  48.502  1.00  0.00     0.043 A
HETATM   25  C15 UNL     1    -106.435 -17.764  49.313  1.00  0.00     0.116 A
HETATM   26  F1  UNL     1    -107.568 -18.195  49.890  1.00  0.00    -0.206 F
HETATM   27  C16 UNL     1    -106.041 -16.458  49.559  1.00  0.00     0.043 A
HETATM   28  C17 UNL     1    -104.877 -16.016  48.966  1.00  0.00     0.015 A
ENDBRANCH  13  22
BRANCH  18  29
HETATM   29  N2  UNL     1     -99.417 -13.883  47.016  1.00  0.00    -0.341 N
ATOM     30  H2  UNL     1     -99.330 -13.225  47.790  1.00  0.00     0.167 HD
BRANCH  29  31
HETATM   31  C7  UNL     1     -98.401 -13.957  46.029  1.00  0.00     0.033 A
HETATM   32  C6  UNL     1     -97.162 -14.422  46.402  1.00  0.00     0.030 A
HETATM   33  C5  UNL     1     -96.180 -14.491  45.433  1.00  0.00     0.011 A
HETATM   34  C4  UNL     1     -96.360 -14.128  44.129  1.00  0.00    -0.030 A
HETATM   35  C28 UNL     1     -97.624 -13.656  43.761  1.00  0.00     0.011 A
HETATM   36  C27 UNL     1     -98.637 -13.577  44.727  1.00  0.00     0.030 A
BRANCH  34  37
HETATM   37  C3  UNL     1     -95.306 -14.205  43.094  1.00  0.00     0.309 C
BRANCH  37  38
HETATM   38  N1  UNL     1     -94.980 -12.931  42.506  1.00  0.00     0.084 N
HETATM   39  C1  UNL     1     -94.366 -13.055  41.208  1.00  0.00     0.309 C
HETATM   40  C2  UNL     1     -94.053 -12.230  43.372  1.00  0.00     0.309 C
ENDBRANCH  37  38
ENDBRANCH  34  37
ENDBRANCH  29  31
ENDBRANCH  18  29
ENDBRANCH   1  10
BRANCH   9  41
HETATM   41  N7  UNL     1    -100.352 -13.420  52.400  1.00  0.00    -0.374 N
HETATM   42  C24 UNL     1    -101.639 -12.782  52.227  1.00  0.00     0.150 C
HETATM   43  C25 UNL     1     -99.168 -12.598  52.385  1.00  0.00     0.150 C
ENDBRANCH   9  41
TORSDOF 7
ENDMDL