MODEL 4
REMARK VINA RESULT: -8.071983616      3.710      9.897
REMARK  7 active torsions:
REMARK  status: ('A' for Active; 'I' for Inactive)
REMARK    1  A    between atoms: C2_2  and  C3_3
REMARK    2  A    between atoms: C3_3  and  C4_4
REMARK    3  A    between atoms: C4_4  and  C5_5
REMARK    4  A    between atoms: C6_9  and  C7_10
REMARK    5  A    between atoms: C8_12  and  C9_13
REMARK    6  A    between atoms: C9_13  and  O3_15
REMARK    7  A    between atoms: O3_15  and  C10_16
REMARK       I    between atoms: N2_23  and  C16_24
ROOT
HETATM    1  C9  UNL     1     -97.667 -13.371  45.867  1.00  0.00     0.300 C
HETATM    2  O2  UNL     1     -97.388 -12.719  46.872  1.00  0.00    -0.259 OA
ENDROOT
BRANCH   1   3
HETATM    3  C8  UNL     1     -96.636 -13.770  44.881  1.00  0.00     0.082 A
HETATM    4  S1  UNL     1     -96.709 -13.752  43.176  1.00  0.00    -0.078 SA
HETATM    5  C7  UNL     1     -95.150 -14.349  42.830  1.00  0.00     0.076 A
HETATM    6  C20 UNL     1     -94.616 -14.545  44.068  1.00  0.00     0.034 A
HETATM    7  C19 UNL     1     -95.375 -14.249  45.129  1.00  0.00     0.045 A
HETATM    8 BR1  UNL     1     -92.810 -15.233  44.255  1.00  0.00    -0.049 Br
BRANCH   5   9
HETATM    9  C6  UNL     1     -94.535 -14.592  41.505  1.00  0.00     0.190 A
HETATM   10  O1  UNL     1     -94.230 -13.699  40.612  1.00  0.00    -0.217 OA
HETATM   11  N1  UNL     1     -93.702 -14.297  39.566  1.00  0.00    -0.247 N
HETATM   12  C5  UNL     1     -93.677 -15.625  39.811  1.00  0.00     0.104 A
ATOM     13  H1  UNL     1     -93.371 -13.837  38.717  1.00  0.00     0.196 HD
HETATM   14  N5  UNL     1     -94.205 -15.798  41.038  1.00  0.00    -0.322 N
ATOM     15  H5  UNL     1     -94.331 -16.688  41.522  1.00  0.00     0.169 HD
BRANCH  12  16
HETATM   16  C4  UNL     1     -93.180 -16.724  38.944  1.00  0.00     0.078 C
BRANCH  16  17
HETATM   17  C3  UNL     1     -94.193 -17.864  38.884  1.00  0.00     0.007 C
BRANCH  17  18
HETATM   18  C2  UNL     1     -94.133 -18.503  37.524  1.00  0.00    -0.004 C
HETATM   19  C1  UNL     1     -94.379 -17.420  36.485  1.00  0.00     0.005 C
ENDBRANCH  17  18
ENDBRANCH  16  17
ENDBRANCH  12  16
ENDBRANCH   5   9
ENDBRANCH   1   3
BRANCH   1  20
HETATM   20  O3  UNL     1     -98.960 -13.733  45.663  1.00  0.00    -0.312 OA
BRANCH  20  21
HETATM   21  C10 UNL     1     -99.467 -15.045  45.805  1.00  0.00     0.134 C
HETATM   22  C11 UNL     1     -98.816 -15.581  47.048  1.00  0.00     0.033 C
HETATM   23  C12 UNL     1     -99.390 -15.143  48.334  1.00  0.00     0.012 C
HETATM   24  C13 UNL     1    -100.719 -14.494  48.077  1.00  0.00     0.042 C
HETATM   25  C14 UNL     1    -101.664 -14.507  49.215  1.00  0.00     0.154 C
HETATM   26  C17 UNL     1    -101.415 -15.513  47.156  1.00  0.00     0.127 C
HETATM   27  C15 UNL     1    -101.570 -13.247  50.038  1.00  0.00     0.042 C
HETATM   28  O4  UNL     1    -102.915 -14.478  48.554  1.00  0.00    -0.270 OA
HETATM   29  N2  UNL     1    -102.764 -15.239  47.454  1.00  0.00    -0.224 N
HETATM   30  C16 UNL     1    -103.868 -15.700  46.698  1.00  0.00     0.208 C
HETATM   31  N3  UNL     1    -104.790 -14.916  46.254  1.00  0.00    -0.372 N
HETATM   32  N4  UNL     1    -103.915 -17.090  46.445  1.00  0.00    -0.062 NA
ATOM     33  H32 UNL     1    -104.756 -13.913  46.438  1.00  0.00     0.158 HD
ATOM     34  H31 UNL     1    -105.586 -15.248  45.709  1.00  0.00     0.158 HD
HETATM   35  C18 UNL     1    -100.947 -15.138  45.777  1.00  0.00     0.061 C
ENDBRANCH  20  21
ENDBRANCH   1  20
TORSDOF 7
ENDMDL