MODEL 2
REMARK VINA RESULT: -7.503121251      2.833      7.464
REMARK  8 active torsions:
REMARK  status: ('A' for Active; 'I' for Inactive)
REMARK    1  A    between atoms: C2_2  and  C3_3
REMARK    2  A    between atoms: C3_3  and  C4_4
REMARK    3  A    between atoms: C4_4  and  O2_6
REMARK    4  A    between atoms: O2_6  and  C5_7
REMARK    5  A    between atoms: C22_26  and  O4_27
REMARK    6  A    between atoms: N2_29  and  C23_30
REMARK    7  A    between atoms: C23_30  and  C24_31
REMARK    8  A    between atoms: C25_33  and  O5_34
ROOT
HETATM    1  C5  UNL     1     -97.252 -14.195  47.220  1.00  0.00     0.188 C
HETATM    2  C6  UNL     1     -95.969 -13.486  46.871  1.00  0.00     0.084 C
HETATM    3  C7  UNL     1     -97.028 -15.284  48.234  1.00  0.00     0.044 C
HETATM    4  C8  UNL     1     -97.961 -15.635  49.098  1.00  0.00    -0.067 C
HETATM    5  C9  UNL     1     -97.640 -16.719  50.055  1.00  0.00     0.044 C
HETATM    6  C10 UNL     1     -99.281 -14.960  49.093  1.00  0.00     0.038 C
HETATM    7  C11 UNL     1    -100.314 -16.061  49.027  1.00  0.00     0.052 C
HETATM    8  C12 UNL     1    -101.660 -15.512  48.588  1.00  0.00     0.282 C
HETATM    9  N1  UNL     1    -102.486 -15.211  49.694  1.00  0.00     0.157 N
HETATM   10  C13 UNL     1    -102.161 -14.091  50.472  1.00  0.00     0.404 C
HETATM   11  O3  UNL     1    -102.751 -13.288  49.503  1.00  0.00    -0.312 OA
HETATM   12  C14 UNL     1    -103.639 -14.380  49.301  1.00  0.00     0.266 C
HETATM   13  C15 UNL     1    -104.715 -14.460  50.307  1.00  0.00     0.072 C
HETATM   14  C16 UNL     1    -106.095 -14.705  49.863  1.00  0.00     0.005 C
HETATM   15  C17 UNL     1    -106.390 -14.419  48.430  1.00  0.00     0.000 C
HETATM   16  C18 UNL     1    -105.342 -15.201  47.627  1.00  0.00     0.005 C
HETATM   17  C19 UNL     1    -104.046 -14.430  47.887  1.00  0.00     0.072 C
HETATM   18  C20 UNL     1    -100.777 -13.854  50.833  1.00  0.00     0.063 A
HETATM   19  C21 UNL     1     -99.535 -14.176  50.326  1.00  0.00     0.023 A
HETATM   20  C22 UNL     1     -98.568 -13.641  51.157  1.00  0.00     0.152 A
HETATM   21  N2  UNL     1     -99.163 -13.004  52.155  1.00  0.00    -0.306 N
HETATM   22  C25 UNL     1    -100.488 -13.111  51.994  1.00  0.00     0.155 A
HETATM   23  C26 UNL     1     -99.372 -14.004  47.919  1.00  0.00     0.191 C
HETATM   24  O6  UNL     1     -98.159 -13.321  47.848  1.00  0.00    -0.350 OA
ENDROOT
BRANCH  20  25
HETATM   25  O4  UNL     1     -97.190 -13.781  50.930  1.00  0.00    -0.345 OA
ATOM     26  H4  UNL     1     -96.550 -13.868  51.627  1.00  0.00     0.219 HD
ENDBRANCH  20  25
BRANCH   1  27
HETATM   27  O2  UNL     1     -97.855 -14.660  46.053  1.00  0.00    -0.280 OA
BRANCH  27  28
HETATM   28  C4  UNL     1     -97.877 -14.004  44.854  1.00  0.00     0.261 C
HETATM   29  O1  UNL     1     -96.866 -14.053  44.119  1.00  0.00    -0.265 OA
BRANCH  28  30
HETATM   30  C3  UNL     1     -99.072 -13.257  44.446  1.00  0.00     0.111 C
BRANCH  30  31
HETATM   31  C2  UNL     1    -100.084 -14.122  43.730  1.00  0.00     0.005 C
HETATM   32  C1  UNL     1    -101.215 -14.464  44.648  1.00  0.00     0.005 C
ENDBRANCH  30  31
ENDBRANCH  28  30
ENDBRANCH  27  28
ENDBRANCH   1  27
BRANCH  22  33
HETATM   33  O5  UNL     1    -101.432 -12.549  52.876  1.00  0.00    -0.345 OA
ATOM     34  H5  UNL     1    -102.308 -12.877  53.042  1.00  0.00     0.219 HD
ENDBRANCH  22  33
BRANCH  21  35
HETATM   35  C23 UNL     1     -98.518 -12.301  53.250  1.00  0.00     0.148 C
BRANCH  35  36
HETATM   36  C24 UNL     1     -98.062 -13.317  54.272  1.00  0.00     0.135 C
HETATM   37 CL1  UNL     1     -99.405 -13.501  55.448  1.00  0.00    -0.129 Cl
ENDBRANCH  35  36
ENDBRANCH  21  35
TORSDOF 8
ENDMDL