MODEL 1
REMARK VINA RESULT: -7.787457424      0.000      0.000
REMARK  8 active torsions:
REMARK  status: ('A' for Active; 'I' for Inactive)
REMARK    1  A    between atoms: C2_2  and  O1_4
REMARK    2  A    between atoms: O1_4  and  C4_5
REMARK    3  A    between atoms: C4_5  and  C5_7
REMARK    4  A    between atoms: C5_7  and  C6_8
REMARK    5  A    between atoms: C6_8  and  O3_10
REMARK    6  A    between atoms: O3_10  and  C8_11
REMARK    7  A    between atoms: C12_16  and  N1_17
REMARK       I    between atoms: N1_17  and  C13_19
REMARK       I    between atoms: C13_19  and  N2_21
REMARK    8  A    between atoms: N3_23  and  C14_25
ROOT
HETATM    1  C8  UNL     1    -101.676 -15.409  48.163  1.00  0.00     0.156 C
HETATM    2  C9  UNL     1    -102.585 -15.181  49.312  1.00  0.00     0.147 C
HETATM    3  C10 UNL     1    -102.652 -13.680  49.631  1.00  0.00     0.042 C
HETATM    4  O4  UNL     1    -102.366 -15.840  50.469  1.00  0.00    -0.374 OA
HETATM    5  C11 UNL     1    -101.202 -16.523  50.548  1.00  0.00     0.176 C
HETATM    6  C12 UNL     1    -100.722 -16.750  51.973  1.00  0.00     0.141 C
HETATM    7  C21 UNL     1     -99.224 -16.793  51.759  1.00  0.00     0.196 C
HETATM    8  O6  UNL     1     -98.971 -16.338  50.483  1.00  0.00    -0.381 OA
HETATM    9  C22 UNL     1    -100.072 -15.623  50.064  1.00  0.00     0.158 C
HETATM   10  C23 UNL     1    -100.218 -15.539  48.573  1.00  0.00     0.045 C
HETATM   11  C24 UNL     1     -99.378 -14.376  48.089  1.00  0.00     0.015 C
ENDROOT
BRANCH   6  12
HETATM   12  N1  UNL     1    -101.049 -15.580  52.780  1.00  0.00    -0.333 N
HETATM   13  C13 UNL     1    -100.824 -15.553  54.181  1.00  0.00     0.335 C
HETATM   14  O5  UNL     1    -100.323 -16.560  54.789  1.00  0.00    -0.246 OA
HETATM   15  N2  UNL     1    -101.146 -14.410  54.951  1.00  0.00    -0.250 N
HETATM   16  N3  UNL     1    -100.413 -13.408  55.104  1.00  0.00    -0.280 N
ATOM     17  H2  UNL     1    -102.051 -14.403  55.422  1.00  0.00     0.192 HD
ATOM     18  H3  UNL     1    -100.766 -12.649  55.686  1.00  0.00     0.189 HD
ATOM     19  H1  UNL     1    -101.449 -14.758  52.326  1.00  0.00     0.164 HD
BRANCH  16  20
HETATM   20  C14 UNL     1     -99.125 -13.249  54.523  1.00  0.00     0.147 A
HETATM   21  N4  UNL     1     -97.913 -13.451  55.071  1.00  0.00    -0.283 N
HETATM   22  N5  UNL     1     -96.977 -13.185  54.186  1.00  0.00    -0.298 N
ATOM     23  H4  UNL     1     -97.746 -13.763  56.028  1.00  0.00     0.188 HD
HETATM   24  C15 UNL     1     -97.547 -12.801  53.032  1.00  0.00     0.062 A
ATOM     25  H5  UNL     1     -95.973 -13.259  54.351  1.00  0.00     0.187 HD
HETATM   26  C16 UNL     1     -97.029 -12.419  51.812  1.00  0.00     0.035 A
HETATM   27  C20 UNL     1     -98.905 -12.835  53.222  1.00  0.00     0.042 A
HETATM   28  C17 UNL     1     -97.859 -12.061  50.755  1.00  0.00     0.044 A
HETATM   29  C18 UNL     1     -99.230 -12.091  50.938  1.00  0.00     0.117 A
HETATM   30  F1  UNL     1    -100.048 -11.740  49.903  1.00  0.00    -0.206 F
HETATM   31  C19 UNL     1     -99.708 -12.476  52.165  1.00  0.00     0.060 A
ENDBRANCH  16  20
ENDBRANCH   6  12
BRANCH   1  32
HETATM   32  O3  UNL     1    -101.974 -16.526  47.400  1.00  0.00    -0.378 OA
BRANCH  32  33
HETATM   33  C6  UNL     1    -103.245 -16.525  46.869  1.00  0.00     0.127 C
HETATM   34  C7  UNL     1    -103.460 -15.341  45.963  1.00  0.00     0.040 C
BRANCH  33  35
HETATM   35  C5  UNL     1    -103.657 -17.812  46.227  1.00  0.00     0.142 C
BRANCH  35  36
HETATM   36  C4  UNL     1    -104.667 -18.452  47.129  1.00  0.00     0.261 C
HETATM   37  O2  UNL     1    -105.319 -19.481  46.790  1.00  0.00    -0.265 OA
BRANCH  36  38
HETATM   38  O1  UNL     1    -104.948 -17.951  48.397  1.00  0.00    -0.317 OA
BRANCH  38  39
HETATM   39  C2  UNL     1    -106.233 -17.471  48.765  1.00  0.00     0.123 C
HETATM   40  C1  UNL     1    -106.160 -16.065  49.317  1.00  0.00     0.040 C
HETATM   41  C3  UNL     1    -106.848 -18.427  49.764  1.00  0.00     0.040 C
ENDBRANCH  38  39
ENDBRANCH  36  38
ENDBRANCH  35  36
ENDBRANCH  33  35
ENDBRANCH  32  33
ENDBRANCH   1  32
TORSDOF 8
ENDMDL