MODEL 3
REMARK VINA RESULT: -9.913797834      2.173      3.215
REMARK  6 active torsions:
REMARK  status: ('A' for Active; 'I' for Inactive)
REMARK    1  A    between atoms: C3_3  and  C4_4
REMARK    2  A    between atoms: C7_9  and  C8_10
REMARK    3  A    between atoms: C16_23  and  N4_24
REMARK    4  A    between atoms: N4_24  and  C17_26
REMARK    5  A    between atoms: C17_26  and  C18_27
REMARK    6  A    between atoms: C18_27  and  N5_28
ROOT
HETATM    1  C1  UNL     1     -14.250  12.999 -25.299  1.00  0.00     0.054 C
HETATM    2  C2  UNL     1     -13.726  13.652 -24.054  1.00  0.00     0.005 A
HETATM    3  C3  UNL     1     -13.548  12.896 -22.908  1.00  0.00     0.024 A
HETATM    4  N1  UNL     1     -13.085  13.442 -21.790  1.00  0.00    -0.343 N
ATOM      5  H1  UNL     1     -12.972  12.845 -20.972  1.00  0.00     0.167 HD
HETATM    6  C7  UNL     1     -12.752  14.769 -21.678  1.00  0.00     0.137 A
HETATM    7  N3  UNL     1     -12.920  15.483 -22.765  1.00  0.00    -0.326 N
ATOM      8  H3  UNL     1     -12.683  16.474 -22.725  1.00  0.00     0.169 HD
HETATM    9  C16 UNL     1     -13.401  14.977 -23.971  1.00  0.00     0.110 A
ENDROOT
BRANCH   6  10
HETATM   10  C8  UNL     1     -12.301  15.222 -20.367  1.00  0.00     0.107 A
HETATM   11  N2  UNL     1     -13.101  15.993 -19.539  1.00  0.00    -0.257 N
HETATM   12  O1  UNL     1     -12.476  16.256 -18.447  1.00  0.00    -0.241 OA
ATOM     13  H2  UNL     1     -14.045  16.306 -19.763  1.00  0.00     0.195 HD
HETATM   14  C9  UNL     1     -11.302  15.740 -18.426  1.00  0.00     0.085 A
HETATM   15  C10 UNL     1     -11.153  15.065 -19.653  1.00  0.00     0.006 A
HETATM   16  C15 UNL     1     -10.271  15.802 -17.357  1.00  0.00     0.068 C
HETATM   17  C11 UNL     1      -9.952  14.354 -20.067  1.00  0.00     0.044 C
HETATM   18  C12 UNL     1      -9.904  13.046 -19.287  1.00  0.00     0.005 C
HETATM   19  C13 UNL     1     -10.169  13.312 -17.816  1.00  0.00     0.001 C
HETATM   20  C14 UNL     1      -9.472  14.520 -17.297  1.00  0.00     0.007 C
ENDBRANCH   6  10
BRANCH   3  21
HETATM   21  C4  UNL     1     -13.892  11.460 -22.950  1.00  0.00     0.036 A
HETATM   22  C5  UNL     1     -15.212  11.059 -22.225  1.00  0.00     0.011 A
HETATM   23  C6  UNL     1     -13.877  10.580 -21.781  1.00  0.00     0.011 A
ENDBRANCH   3  21
BRANCH   9  24
HETATM   24  N4  UNL     1     -13.510  15.784 -24.928  1.00  0.00    -0.374 N
ATOM     25  H4  UNL     1     -12.626  15.834 -25.433  1.00  0.00     0.161 HD
BRANCH  24  26
HETATM   26  C17 UNL     1     -14.421  16.619 -25.519  1.00  0.00     0.151 C
BRANCH  26  27
HETATM   27  C18 UNL     1     -14.808  17.704 -24.496  1.00  0.00     0.292 C
BRANCH  27  28
HETATM   28  N5  UNL     1     -13.657  18.544 -24.202  1.00  0.00     0.094 N
HETATM   29  C19 UNL     1     -13.849  19.771 -24.986  1.00  0.00     0.298 C
HETATM   30  C20 UNL     1     -12.712  20.736 -24.796  1.00  0.00     0.198 C
HETATM   31  O2  UNL     1     -12.361  20.836 -23.455  1.00  0.00    -0.388 OA
HETATM   32  C21 UNL     1     -13.421  20.435 -22.657  1.00  0.00     0.198 C
HETATM   33  C22 UNL     1     -13.735  18.967 -22.798  1.00  0.00     0.298 C
ENDBRANCH  27  28
ENDBRANCH  26  27
ENDBRANCH  24  26
ENDBRANCH   9  24
TORSDOF 6
ENDMDL