MODEL 3
REMARK VINA RESULT: -7.475113229      2.341      6.963
REMARK  8 active torsions:
REMARK  status: ('A' for Active; 'I' for Inactive)
REMARK    1  A    between atoms: O1_2  and  C2_3
REMARK    2  A    between atoms: C2_3  and  C3_4
REMARK    3  A    between atoms: C4_5  and  C5_6
REMARK    4  A    between atoms: C5_6  and  C6_7
REMARK    5  A    between atoms: N3_23  and  C19_24
REMARK    6  A    between atoms: C19_24  and  C20_25
REMARK    7  A    between atoms: C20_25  and  C21_26
REMARK    8  A    between atoms: C21_26  and  O2_30
ROOT
HETATM    1  C6  UNL     1     -12.744  14.820 -23.694  1.00  0.00     0.154 C
HETATM    2  C7  UNL     1     -12.831  14.283 -25.031  1.00  0.00    -0.143 C
HETATM    3  C8  UNL     1     -12.556  13.964 -26.381  1.00  0.00     0.088 C
HETATM    4  C9  UNL     1     -11.094  14.393 -26.702  1.00  0.00     0.056 C
HETATM    5  C10 UNL     1     -10.666  15.668 -26.110  1.00  0.00     0.066 C
HETATM    6  N1  UNL     1     -10.609  15.911 -24.706  1.00  0.00    -0.352 N
HETATM    7  C11 UNL     1      -9.614  16.896 -24.301  1.00  0.00     0.156 C
HETATM    8  C12 UNL     1     -11.329  15.386 -23.570  1.00  0.00     0.121 C
HETATM    9  N2  UNL     1     -10.710  15.386 -22.498  1.00  0.00    -0.366 N
ATOM     10  H2  UNL     1      -9.771  15.784 -22.491  1.00  0.00     0.161 HD
HETATM   11  C13 UNL     1     -11.242  14.849 -21.227  1.00  0.00     0.049 C
HETATM   12  C14 UNL     1     -11.477  16.114 -20.390  1.00  0.00     0.041 C
HETATM   13  C15 UNL     1     -10.043  14.212 -20.494  1.00  0.00     0.041 C
HETATM   14  C16 UNL     1     -12.420  13.971 -21.402  1.00  0.00     0.051 C
HETATM   15  C17 UNL     1     -12.009  12.612 -20.801  1.00  0.00     0.041 C
HETATM   16  C18 UNL     1     -13.480  14.449 -20.382  1.00  0.00     0.041 C
HETATM   17  N3  UNL     1     -12.967  13.800 -22.680  1.00  0.00    -0.356 N
ENDROOT
BRANCH  17  18
HETATM   18  C19 UNL     1     -13.973  12.919 -23.028  1.00  0.00     0.069 C
BRANCH  18  19
HETATM   19  C20 UNL     1     -13.892  11.451 -22.963  1.00  0.00     0.128 C
BRANCH  19  20
HETATM   20  C21 UNL     1     -14.929  10.818 -23.893  1.00  0.00     0.115 C
HETATM   21  N4  UNL     1     -15.435   9.690 -23.619  1.00  0.00    -0.383 N
ATOM     22  H42 UNL     1     -15.151   9.198 -22.773  1.00  0.00     0.157 HD
ATOM     23  H41 UNL     1     -16.127   9.268 -24.239  1.00  0.00     0.157 HD
BRANCH  20  24
HETATM   24  O2  UNL     1     -15.312  11.479 -25.032  1.00  0.00    -0.344 OA
HETATM   25  C22 UNL     1     -14.960  11.000 -26.333  1.00  0.00     0.211 C
ENDBRANCH  20  24
ENDBRANCH  19  20
ENDBRANCH  18  19
ENDBRANCH  17  18
BRANCH   1  26
HETATM   26  C5  UNL     1     -13.747  15.910 -23.397  1.00  0.00     0.146 C
BRANCH  26  27
HETATM   27  C4  UNL     1     -13.272  17.242 -23.794  1.00  0.00    -0.101 C
HETATM   28  C3  UNL     1     -12.895  18.352 -24.103  1.00  0.00    -0.080 C
BRANCH  28  29
HETATM   29  C2  UNL     1     -12.452  19.690 -24.495  1.00  0.00     0.260 C
BRANCH  29  30
HETATM   30  O1  UNL     1     -12.209  20.505 -23.387  1.00  0.00    -0.384 OA
HETATM   31  C1  UNL     1     -13.391  20.698 -22.665  1.00  0.00     0.202 C
ENDBRANCH  29  30
ENDBRANCH  28  29
ENDBRANCH  26  27
ENDBRANCH   1  26
TORSDOF 8
ENDMDL