MODEL 2
REMARK VINA RESULT: -10.249675400      3.708      5.320
REMARK  6 active torsions:
REMARK  status: ('A' for Active; 'I' for Inactive)
REMARK    1  A    between atoms: C1_2  and  C2_3
REMARK       I    between atoms: C1_2  and  N4_20
REMARK    2  A    between atoms: C2_3  and  N1_4
REMARK    3  A    between atoms: C4_6  and  C5_7
REMARK    4  A    between atoms: C5_7  and  C6_8
REMARK    5  A    between atoms: C16_23  and  O2_24
REMARK    6  A    between atoms: C16_23  and  C17_26
ROOT
HETATM    1  N1  UNL     1     -12.055  16.532 -21.726  1.00  0.00    -0.278 N
HETATM    2  C3  UNL     1     -11.061  16.126 -20.929  1.00  0.00     0.139 A
HETATM    3  C4  UNL     1     -11.524  15.097 -20.152  1.00  0.00     0.057 A
HETATM    4  N2  UNL     1     -12.811  14.905 -20.506  1.00  0.00    -0.288 N
ATOM      5  H2  UNL     1     -13.446  14.210 -20.113  1.00  0.00     0.188 HD
HETATM    6  N3  UNL     1     -13.102  15.778 -21.451  1.00  0.00    -0.240 N
ATOM      7  H3  UNL     1     -14.011  15.860 -21.906  1.00  0.00     0.208 HD
ENDROOT
BRANCH   1   8
HETATM    8  C2  UNL     1     -11.917  17.629 -22.689  1.00  0.00     0.252 C
BRANCH   8   9
HETATM    9  C1  UNL     1     -13.239  17.759 -23.344  1.00  0.00     0.239 C
HETATM   10  O1  UNL     1     -14.089  18.524 -22.816  1.00  0.00    -0.271 OA
HETATM   11  N4  UNL     1     -13.528  17.056 -24.518  1.00  0.00    -0.350 N
HETATM   12  C14 UNL     1     -14.862  17.305 -25.088  1.00  0.00     0.129 C
HETATM   13  C22 UNL     1     -12.648  16.154 -25.181  1.00  0.00     0.129 C
HETATM   14  C15 UNL     1     -14.897  16.597 -26.421  1.00  0.00     0.065 C
HETATM   15  C16 UNL     1     -14.731  15.110 -26.131  1.00  0.00     0.109 C
HETATM   16  C21 UNL     1     -13.336  14.907 -25.625  1.00  0.00     0.065 C
BRANCH  15  17
HETATM   17  O2  UNL     1     -15.638  14.748 -25.114  1.00  0.00    -0.383 OA
ATOM     18  H2  UNL     1     -16.099  15.529 -24.829  1.00  0.00     0.211 HD
ENDBRANCH  15  17
BRANCH  15  19
HETATM   19  C17 UNL     1     -15.037  14.401 -27.382  1.00  0.00     0.087 A
HETATM   20  C18 UNL     1     -14.375  13.404 -28.060  1.00  0.00     0.038 A
HETATM   21  C19 UNL     1     -15.134  13.136 -29.171  1.00  0.00     0.027 A
HETATM   22  C20 UNL     1     -16.225  13.969 -29.137  1.00  0.00     0.142 A
HETATM   23  O3  UNL     1     -16.149  14.712 -28.067  1.00  0.00    -0.324 OA
ENDBRANCH  15  19
ENDBRANCH   8   9
ENDBRANCH   1   8
BRANCH   3  24
HETATM   24  C5  UNL     1     -10.725  14.355 -19.154  1.00  0.00     0.032 A
HETATM   25  C12 UNL     1      -9.539  13.616 -19.841  1.00  0.00     0.022 A
HETATM   26  C13 UNL     1     -10.683  12.876 -19.194  1.00  0.00     0.022 A
BRANCH  24  27
HETATM   27  C6  UNL     1     -10.401  15.082 -17.918  1.00  0.00    -0.043 A
HETATM   28  C7  UNL     1      -9.514  14.615 -16.988  1.00  0.00     0.008 A
HETATM   29  C8  UNL     1      -9.199  15.306 -15.815  1.00  0.00     0.001 A
HETATM   30  C9  UNL     1      -9.822  16.524 -15.597  1.00  0.00     0.000 A
HETATM   31  C10 UNL     1     -10.721  17.022 -16.520  1.00  0.00     0.001 A
HETATM   32  C11 UNL     1     -11.012  16.316 -17.666  1.00  0.00     0.008 A
ENDBRANCH  24  27
ENDBRANCH   3  24
TORSDOF 6
ENDMDL