MODEL 4
REMARK VINA RESULT: -8.984535343      2.003      4.372
REMARK  5 active torsions:
REMARK  status: ('A' for Active; 'I' for Inactive)
REMARK    1  A    between atoms: N1_4  and  C4_5
REMARK    2  A    between atoms: C4_5  and  C5_6
REMARK    3  A    between atoms: C5_6  and  C6_7
REMARK    4  A    between atoms: C6_7  and  C7_8
REMARK    5  A    between atoms: C7_8  and  N2_9
ROOT
HETATM    1  C1  UNL     1     -12.770  12.228 -21.395  1.00  0.00     0.041 C
HETATM    2  C2  UNL     1     -13.232  13.600 -21.856  1.00  0.00     0.200 C
HETATM    3  C3  UNL     1     -12.657  14.616 -20.926  1.00  0.00     0.157 C
HETATM    4  N1  UNL     1     -12.805  15.974 -21.316  1.00  0.00    -0.364 N
HETATM    5  C13 UNL     1     -13.119  16.709 -22.487  1.00  0.00     0.127 A
HETATM    6  N4  UNL     1     -12.628  17.956 -22.261  1.00  0.00    -0.337 N
ATOM      7  H4  UNL     1     -12.160  18.159 -21.377  1.00  0.00     0.167 HD
HETATM    8  C14 UNL     1     -12.749  18.928 -23.184  1.00  0.00     0.087 A
HETATM    9  C15 UNL     1     -12.370  20.254 -23.255  1.00  0.00     0.058 A
HETATM   10  C16 UNL     1     -12.785  20.723 -24.482  1.00  0.00     0.147 A
HETATM   11  O1  UNL     1     -13.368  19.729 -25.081  1.00  0.00    -0.304 OA
HETATM   12  C17 UNL     1     -13.377  18.633 -24.358  1.00  0.00     0.174 A
HETATM   13  N5  UNL     1     -13.864  17.378 -24.572  1.00  0.00    -0.335 N
ATOM     14  H5  UNL     1     -14.331  17.180 -25.457  1.00  0.00     0.168 HD
HETATM   15  C18 UNL     1     -13.756  16.390 -23.667  1.00  0.00     0.058 A
HETATM   16  C19 UNL     1     -14.407  15.207 -24.272  1.00  0.00     0.099 C
HETATM   17  C20 UNL     1     -13.643  13.935 -24.196  1.00  0.00     0.124 C
HETATM   18  C21 UNL     1     -14.692  12.818 -24.049  1.00  0.00     0.046 C
HETATM   19  C22 UNL     1     -12.911  13.605 -25.505  1.00  0.00     0.046 C
HETATM   20  N6  UNL     1     -12.658  13.862 -23.161  1.00  0.00    -0.061 N
ATOM     21  H61 UNL     1     -11.939  13.174 -23.389  1.00  0.00     0.278 HD
ATOM     22  H62 UNL     1     -12.082  14.704 -23.145  1.00  0.00     0.278 HD
ENDROOT
BRANCH   4  23
HETATM   23  C4  UNL     1     -12.557  16.878 -20.190  1.00  0.00     0.124 C
BRANCH  23  24
HETATM   24  C5  UNL     1     -13.155  16.213 -18.978  1.00  0.00     0.021 C
BRANCH  24  25
HETATM   25  C6  UNL     1     -12.382  16.573 -17.721  1.00  0.00     0.021 C
BRANCH  25  26
HETATM   26  C7  UNL     1     -10.939  16.193 -17.999  1.00  0.00     0.117 C
BRANCH  26  27
HETATM   27  N2  UNL     1     -10.580  14.908 -17.509  1.00  0.00    -0.409 N
HETATM   28  C8  UNL     1      -9.915  14.045 -18.426  1.00  0.00     0.147 C
HETATM   29  C9  UNL     1      -9.709  12.702 -17.724  1.00  0.00     0.291 C
HETATM   30  N3  UNL     1      -8.732  12.898 -16.692  1.00  0.00     0.087 N
HETATM   31  C10 UNL     1      -8.603  11.730 -15.839  1.00  0.00     0.310 C
HETATM   32  C11 UNL     1      -8.856  14.115 -15.953  1.00  0.00     0.291 C
HETATM   33  C12 UNL     1     -10.179  14.818 -16.150  1.00  0.00     0.147 C
ENDBRANCH  26  27
ENDBRANCH  25  26
ENDBRANCH  24  25
ENDBRANCH  23  24
ENDBRANCH   4  23
TORSDOF 5
ENDMDL