MODEL 4
REMARK VINA RESULT: -8.782695097      2.138      4.123
REMARK  5 active torsions:
REMARK  status: ('A' for Active; 'I' for Inactive)
REMARK    1  A    between atoms: N1_4  and  C4_5
REMARK    2  A    between atoms: C7_8  and  C8_9
REMARK    3  A    between atoms: C8_9  and  N2_10
REMARK    4  A    between atoms: C11_13  and  C12_14
REMARK    5  A    between atoms: C15_21  and  N5_22
ROOT
HETATM    1  N2  UNL     1     -11.954  17.454 -21.536  1.00  0.00    -0.389 N
HETATM    2  C9  UNL     1     -12.478  18.690 -21.996  1.00  0.00     0.123 C
HETATM    3  C10 UNL     1     -13.109  18.448 -23.350  1.00  0.00     0.030 C
HETATM    4  C11 UNL     1     -12.077  18.008 -24.393  1.00  0.00     0.042 C
HETATM    5  C20 UNL     1     -10.822  17.580 -23.714  1.00  0.00     0.030 C
HETATM    6  C21 UNL     1     -11.225  16.709 -22.513  1.00  0.00     0.123 C
ENDROOT
BRANCH   4   7
HETATM    7  C12 UNL     1     -11.996  19.042 -25.386  1.00  0.00     0.058 A
HETATM    8  N3  UNL     1     -12.412  20.284 -25.037  1.00  0.00    -0.365 N
HETATM    9  C13 UNL     1     -12.388  21.352 -25.815  1.00  0.00     0.105 A
ATOM     10  H3  UNL     1     -12.775  20.404 -24.092  1.00  0.00     0.165 HD
HETATM   11  C14 UNL     1     -11.899  21.197 -27.094  1.00  0.00     0.106 A
HETATM   12  N4  UNL     1     -11.476  19.992 -27.486  1.00  0.00    -0.349 N
HETATM   13  C15 UNL     1     -11.519  18.896 -26.638  1.00  0.00     0.126 A
ATOM     14  H4  UNL     1     -11.113  19.876 -28.433  1.00  0.00     0.167 HD
BRANCH  13  15
HETATM   15  N5  UNL     1     -11.079  17.674 -27.112  1.00  0.00    -0.362 N
HETATM   16  C16 UNL     1      -9.695  17.356 -27.290  1.00  0.00     0.152 C
HETATM   17  C17 UNL     1      -9.381  15.959 -26.764  1.00  0.00     0.252 C
HETATM   18  N6  UNL     1     -10.308  14.989 -27.328  1.00  0.00    -0.072 N
HETATM   19  C18 UNL     1     -11.619  15.309 -26.803  1.00  0.00     0.252 C
ATOM     20  H62 UNL     1     -10.282  14.954 -28.347  1.00  0.00     0.277 HD
ATOM     21  H61 UNL     1     -10.032  14.023 -27.158  1.00  0.00     0.277 HD
HETATM   22  C19 UNL     1     -12.034  16.633 -27.415  1.00  0.00     0.152 C
ENDBRANCH  13  15
ENDBRANCH   4   7
BRANCH   1  23
HETATM   23  C8  UNL     1     -12.658  16.719 -20.578  1.00  0.00     0.096 C
BRANCH  23  24
HETATM   24  C7  UNL     1     -11.846  16.001 -19.564  1.00  0.00    -0.021 A
HETATM   25  C6  UNL     1     -11.319  14.739 -19.821  1.00  0.00     0.015 A
HETATM   26  C5  UNL     1     -10.570  14.073 -18.873  1.00  0.00     0.031 A
HETATM   27  C4  UNL     1     -10.306  14.617 -17.629  1.00  0.00     0.038 A
HETATM   28  C23 UNL     1     -10.826  15.868 -17.372  1.00  0.00     0.031 A
HETATM   29  C22 UNL     1     -11.574  16.536 -18.317  1.00  0.00     0.015 A
BRANCH  27  30
HETATM   30  N1  UNL     1      -9.529  13.899 -16.675  1.00  0.00    -0.333 N
HETATM   31  C3  UNL     1      -9.390  12.564 -16.715  1.00  0.00     0.096 A
HETATM   32  C2  UNL     1      -8.596  12.166 -15.681  1.00  0.00     0.019 A
HETATM   33  C1  UNL     1      -8.234  13.297 -14.979  1.00  0.00     0.019 A
HETATM   34  C24 UNL     1      -8.828  14.369 -15.618  1.00  0.00     0.096 A
ENDBRANCH  27  30
ENDBRANCH  23  24
ENDBRANCH   1  23
TORSDOF 5
ENDMDL