MODEL 3
REMARK VINA RESULT: -9.164288366      3.539     10.141
REMARK  6 active torsions:
REMARK  status: ('A' for Active; 'I' for Inactive)
REMARK    1  A    between atoms: C4_4  and  C5_5
REMARK    2  A    between atoms: C5_5  and  N1_6
REMARK    3  A    between atoms: N1_6  and  C6_8
REMARK    4  A    between atoms: N5_19  and  C11_20
REMARK    5  A    between atoms: C11_20  and  C12_21
REMARK    6  A    between atoms: C15_24  and  N6_25
ROOT
HETATM    1  C6  UNL     1     -12.477  16.881 -21.076  1.00  0.00     0.132 A
HETATM    2  N2  UNL     1     -12.907  15.785 -21.727  1.00  0.00    -0.351 N
ATOM      3  H2  UNL     1     -12.795  14.881 -21.267  1.00  0.00     0.166 HD
HETATM    4  C7  UNL     1     -13.472  15.806 -22.937  1.00  0.00     0.092 A
HETATM    5  C8  UNL     1     -13.652  17.009 -23.613  1.00  0.00     0.051 A
HETATM    6  C9  UNL     1     -13.224  18.151 -22.978  1.00  0.00     0.085 A
HETATM    7  C10 UNL     1     -12.649  18.087 -21.735  1.00  0.00     0.121 A
HETATM    8  N3  UNL     1     -12.343  19.345 -21.397  1.00  0.00    -0.280 N
ATOM      9  H3  UNL     1     -11.901  19.645 -20.527  1.00  0.00     0.188 HD
HETATM   10  N4  UNL     1     -12.723  20.134 -22.401  1.00  0.00    -0.239 N
ATOM     11  H4  UNL     1     -12.612  21.148 -22.415  1.00  0.00     0.208 HD
HETATM   12  N5  UNL     1     -13.260  19.427 -23.371  1.00  0.00    -0.271 N
ENDROOT
BRANCH  12  13
HETATM   13  C11 UNL     1     -13.785  19.950 -24.609  1.00  0.00     0.189 C
BRANCH  13  14
HETATM   14  C12 UNL     1     -12.736  20.193 -25.638  1.00  0.00    -0.038 A
HETATM   15  C13 UNL     1     -11.795  19.236 -25.936  1.00  0.00     0.011 A
HETATM   16  C14 UNL     1     -10.804  19.449 -26.906  1.00  0.00     0.030 A
HETATM   17  C15 UNL     1     -10.726  20.630 -27.604  1.00  0.00     0.030 A
HETATM   18  C20 UNL     1     -11.687  21.588 -27.290  1.00  0.00     0.030 A
HETATM   19  C21 UNL     1     -12.663  21.385 -26.338  1.00  0.00     0.011 A
BRANCH  17  20
HETATM   20  N6  UNL     1      -9.746  20.900 -28.595  1.00  0.00    -0.377 N
HETATM   21  C16 UNL     1      -9.966  20.718 -29.988  1.00  0.00     0.149 C
HETATM   22  C17 UNL     1      -8.969  19.690 -30.481  1.00  0.00     0.187 C
HETATM   23  O1  UNL     1      -7.716  19.927 -29.975  1.00  0.00    -0.388 OA
HETATM   24  C18 UNL     1      -7.545  21.196 -29.435  1.00  0.00     0.187 C
HETATM   25  C19 UNL     1      -8.415  21.394 -28.212  1.00  0.00     0.149 C
ENDBRANCH  17  20
ENDBRANCH  13  14
ENDBRANCH  12  13
BRANCH   1  26
HETATM   26  N1  UNL     1     -11.933  16.836 -19.902  1.00  0.00    -0.370 N
ATOM     27  H1  UNL     1     -11.781  17.681 -19.351  1.00  0.00     0.161 HD
BRANCH  26  28
HETATM   28  C5  UNL     1     -11.548  15.524 -19.407  1.00  0.00     0.160 C
BRANCH  28  29
HETATM   29  C4  UNL     1     -10.817  15.609 -18.132  1.00  0.00    -0.041 A
HETATM   30  C3  UNL     1     -11.001  16.718 -17.334  1.00  0.00     0.009 A
HETATM   31  C2  UNL     1     -10.342  16.843 -16.137  1.00  0.00     0.001 A
HETATM   32  C1  UNL     1      -9.486  15.839 -15.734  1.00  0.00     0.000 A
HETATM   33  C23 UNL     1      -9.303  14.732 -16.531  1.00  0.00     0.001 A
HETATM   34  C22 UNL     1      -9.964  14.596 -17.743  1.00  0.00     0.009 A
ENDBRANCH  28  29
ENDBRANCH  26  28
ENDBRANCH   1  26
TORSDOF 6
ENDMDL