MODEL 4
REMARK VINA RESULT: -9.852620739      2.468      4.987
REMARK  7 active torsions:
REMARK  status: ('A' for Active; 'I' for Inactive)
REMARK    1  A    between atoms: C4_5  and  C5_6
REMARK    2  A    between atoms: C5_6  and  N1_7
REMARK    3  A    between atoms: N2_10  and  C8_11
REMARK    4  A    between atoms: C16_21  and  O2_22
REMARK    5  A    between atoms: O2_22  and  C17_23
REMARK    6  A    between atoms: C17_23  and  O3_24
REMARK    7  A    between atoms: C17_23  and  C18_26
ROOT
HETATM    1  C1  UNL     1     -13.080  15.904 -19.813  1.00  0.00     0.015 C
HETATM    2  C2  UNL     1     -11.806  16.056 -20.620  1.00  0.00     0.035 C
HETATM    3  C3  UNL     1     -12.058  16.749 -21.952  1.00  0.00     0.175 C
HETATM    4  O1  UNL     1     -11.748  15.938 -23.019  1.00  0.00    -0.384 OA
HETATM    5  C4  UNL     1     -12.461  14.748 -23.067  1.00  0.00     0.152 C
HETATM    6  C15 UNL     1     -12.401  14.003 -21.749  1.00  0.00     0.066 C
HETATM    7  C16 UNL     1     -11.292  14.684 -20.922  1.00  0.00     0.133 C
ENDROOT
BRANCH   5   8
HETATM    8  C5  UNL     1     -13.864  15.088 -23.466  1.00  0.00     0.304 C
BRANCH   8   9
HETATM    9  N1  UNL     1     -14.326  14.458 -24.675  1.00  0.00     0.094 N
HETATM   10  C6  UNL     1     -14.979  15.521 -25.457  1.00  0.00     0.292 C
HETATM   11  C7  UNL     1     -14.079  16.676 -25.739  1.00  0.00     0.154 C
HETATM   12  N2  UNL     1     -12.923  16.143 -26.476  1.00  0.00    -0.364 N
HETATM   13  C13 UNL     1     -12.947  14.739 -26.714  1.00  0.00     0.154 C
HETATM   14  C14 UNL     1     -13.239  13.930 -25.472  1.00  0.00     0.292 C
BRANCH  12  15
HETATM   15  C8  UNL     1     -11.915  17.047 -26.874  1.00  0.00     0.102 A
HETATM   16  C9  UNL     1     -10.927  16.745 -27.775  1.00  0.00     0.048 A
HETATM   17  C10 UNL     1      -9.945  17.654 -28.151  1.00  0.00     0.005 A
HETATM   18  C11 UNL     1      -9.944  18.918 -27.608  1.00  0.00     0.017 A
HETATM   19  C12 UNL     1     -10.946  19.209 -26.702  1.00  0.00     0.089 A
HETATM   20  N3  UNL     1     -11.876  18.308 -26.365  1.00  0.00    -0.352 N
ATOM     21  H3  UNL     1     -12.592  18.581 -25.691  1.00  0.00     0.166 HD
ENDBRANCH  12  15
ENDBRANCH   8   9
ENDBRANCH   5   8
BRANCH   7  22
HETATM   22  O2  UNL     1     -11.011  13.942 -19.789  1.00  0.00    -0.351 OA
BRANCH  22  23
HETATM   23  C17 UNL     1      -9.715  14.173 -19.350  1.00  0.00     0.291 C
BRANCH  23  24
HETATM   24  O3  UNL     1      -8.789  13.856 -20.381  1.00  0.00    -0.367 OA
ATOM     25  H3  UNL     1      -9.173  14.039 -21.230  1.00  0.00     0.213 HD
ENDBRANCH  23  24
BRANCH  23  26
HETATM   26  C18 UNL     1      -9.341  13.429 -18.130  1.00  0.00    -0.004 A
HETATM   27  C19 UNL     1      -9.745  12.125 -17.927  1.00  0.00     0.012 A
HETATM   28  C20 UNL     1      -9.369  11.442 -16.766  1.00  0.00     0.001 A
HETATM   29  C21 UNL     1      -8.596  12.042 -15.804  1.00  0.00     0.000 A
HETATM   30  C22 UNL     1      -8.189  13.340 -15.997  1.00  0.00     0.001 A
HETATM   31  C23 UNL     1      -8.569  13.998 -17.146  1.00  0.00     0.012 A
ENDBRANCH  23  26
ENDBRANCH  22  23
ENDBRANCH   7  22
TORSDOF 7
ENDMDL