MODEL 2
REMARK VINA RESULT: -9.640374372      3.515      9.328
REMARK  7 active torsions:
REMARK  status: ('A' for Active; 'I' for Inactive)
REMARK    1  A    between atoms: C2_2  and  C3_3
REMARK    2  A    between atoms: C6_9  and  C7_10
REMARK    3  A    between atoms: C7_10  and  C8_11
REMARK       I    between atoms: N2_14  and  C11_15
REMARK    4  A    between atoms: C11_15  and  O3_17
REMARK    5  A    between atoms: O3_17  and  C12_18
REMARK    6  A    between atoms: C15_21  and  C16_22
REMARK    7  A    between atoms: C16_22  and  O4_23
ROOT
HETATM    1  C8  UNL     1     -13.384  12.572 -22.644  1.00  0.00    -0.007 C
HETATM    2  C9  UNL     1     -12.943  12.139 -21.274  1.00  0.00     0.025 C
HETATM    3  C10 UNL     1     -11.636  12.787 -20.868  1.00  0.00     0.128 C
HETATM    4  N2  UNL     1     -11.755  14.221 -21.057  1.00  0.00    -0.328 N
HETATM    5  C11 UNL     1     -11.591  15.141 -19.980  1.00  0.00     0.363 C
HETATM    6  O2  UNL     1     -11.706  16.369 -20.207  1.00  0.00    -0.238 OA
HETATM    7  C21 UNL     1     -12.049  14.675 -22.401  1.00  0.00     0.128 C
HETATM    8  C22 UNL     1     -13.376  14.075 -22.799  1.00  0.00     0.025 C
ENDROOT
BRANCH   5   9
HETATM    9  O3  UNL     1     -11.306  14.747 -18.683  1.00  0.00    -0.295 OA
BRANCH   9  10
HETATM   10  C12 UNL     1     -10.001  14.615 -18.184  1.00  0.00     0.167 C
HETATM   11  C13 UNL     1      -9.643  13.139 -17.964  1.00  0.00     0.152 C
HETATM   12  C14 UNL     1      -8.133  13.062 -18.085  1.00  0.00     0.041 C
HETATM   13  O5  UNL     1      -9.948  12.731 -16.672  1.00  0.00    -0.378 OA
HETATM   14  C15 UNL     1      -7.583  14.135 -17.173  1.00  0.00     0.018 C
HETATM   15  C17 UNL     1      -8.581  14.672 -16.220  1.00  0.00     0.027 C
HETATM   16  C18 UNL     1      -9.575  13.651 -15.711  1.00  0.00     0.127 C
HETATM   17  C20 UNL     1      -9.754  15.351 -16.898  1.00  0.00     0.027 C
HETATM   18  C19 UNL     1     -10.602  14.799 -15.741  1.00  0.00     0.040 C
BRANCH  14  19
HETATM   19  C16 UNL     1      -6.394  13.583 -16.461  1.00  0.00     0.169 C
BRANCH  19  20
HETATM   20  O4  UNL     1      -5.225  13.873 -17.151  1.00  0.00    -0.400 OA
ATOM     21  H4  UNL     1      -5.367  14.570 -17.780  1.00  0.00     0.209 HD
ENDBRANCH  19  20
ENDBRANCH  14  19
ENDBRANCH   9  10
ENDBRANCH   5   9
BRANCH   1  22
HETATM   22  C7  UNL     1     -14.786  12.096 -22.881  1.00  0.00     0.048 C
BRANCH  22  23
HETATM   23  C6  UNL     1     -14.921  10.890 -23.699  1.00  0.00    -0.002 A
HETATM   24  C3  UNL     1     -14.908  10.831 -25.070  1.00  0.00     0.041 A
HETATM   25  N1  UNL     1     -15.066   9.523 -25.383  1.00  0.00    -0.265 N
HETATM   26  O1  UNL     1     -15.167   8.842 -24.310  1.00  0.00    -0.242 OA
ATOM     27  H1  UNL     1     -15.099   9.142 -26.328  1.00  0.00     0.194 HD
HETATM   28  C4  UNL     1     -15.086   9.615 -23.259  1.00  0.00     0.081 A
HETATM   29  C5  UNL     1     -15.174   9.089 -21.880  1.00  0.00     0.079 C
BRANCH  24  30
HETATM   30  C2  UNL     1     -14.774  11.885 -26.087  1.00  0.00     0.055 C
HETATM   31  C1  UNL     1     -14.609  11.205 -27.430  1.00  0.00     0.011 C
ENDBRANCH  24  30
ENDBRANCH  22  23
ENDBRANCH   1  22
TORSDOF 7
ENDMDL