MODEL 4
REMARK VINA RESULT: -9.770014006      2.665      4.861
REMARK  6 active torsions:
REMARK  status: ('A' for Active; 'I' for Inactive)
REMARK    1  A    between atoms: C2_2  and  C4_4
REMARK    2  A    between atoms: C2_2  and  N1_10
REMARK    3  A    between atoms: C12_13  and  C13_14
REMARK    4  A    between atoms: C13_14  and  O1_15
REMARK    5  A    between atoms: N3_22  and  C18_23
REMARK    6  A    between atoms: C18_23  and  C19_24
ROOT
HETATM    1  C13 UNL     1     -13.192  15.803 -23.533  1.00  0.00     0.114 C
HETATM    2  C14 UNL     1     -12.656  16.278 -24.839  1.00  0.00     0.066 C
HETATM    3  C15 UNL     1     -13.613  16.185 -25.986  1.00  0.00     0.109 C
HETATM    4  C16 UNL     1     -12.882  15.505 -27.076  1.00  0.00     0.065 C
HETATM    5  N2  UNL     1     -12.286  14.953 -27.921  1.00  0.00    -0.197 NA
HETATM    6  C17 UNL     1     -14.779  15.214 -25.658  1.00  0.00     0.114 C
HETATM    7  N3  UNL     1     -14.050  14.130 -24.985  1.00  0.00    -0.287 NA
HETATM    8  C24 UNL     1     -14.009  14.568 -23.593  1.00  0.00     0.139 C
ENDROOT
BRANCH   1   9
HETATM    9  C12 UNL     1     -12.043  15.491 -22.633  1.00  0.00     0.063 A
HETATM   10  C11 UNL     1     -10.737  15.919 -22.825  1.00  0.00     0.048 A
HETATM   11  C10 UNL     1      -9.947  15.431 -21.828  1.00  0.00     0.113 A
HETATM   12  N1  UNL     1     -10.749  14.718 -21.035  1.00  0.00    -0.289 N
HETATM   13  N5  UNL     1     -12.005  14.752 -21.516  1.00  0.00    -0.299 N
ATOM     14  H5  UNL     1     -12.807  14.285 -21.094  1.00  0.00     0.187 HD
BRANCH  12  15
HETATM   15  C2  UNL     1     -10.422  13.979 -19.848  1.00  0.00     0.072 C
HETATM   16  C1  UNL     1     -11.349  12.795 -19.694  1.00  0.00     0.046 C
HETATM   17  C3  UNL     1      -9.016  13.363 -20.034  1.00  0.00     0.046 C
BRANCH  15  18
HETATM   18  C4  UNL     1     -10.389  14.775 -18.611  1.00  0.00    -0.029 A
HETATM   19  C5  UNL     1      -9.532  14.449 -17.597  1.00  0.00     0.010 A
HETATM   20  C6  UNL     1      -9.529  15.220 -16.449  1.00  0.00     0.001 A
HETATM   21  C7  UNL     1     -10.357  16.308 -16.280  1.00  0.00     0.000 A
HETATM   22  C8  UNL     1     -11.227  16.652 -17.292  1.00  0.00     0.001 A
HETATM   23  C9  UNL     1     -11.227  15.875 -18.439  1.00  0.00     0.010 A
ENDBRANCH  15  18
ENDBRANCH  12  15
ENDBRANCH   1   9
BRANCH   1  24
HETATM   24  O1  UNL     1     -13.884  16.892 -22.935  1.00  0.00    -0.382 OA
ATOM     25  H1  UNL     1     -13.240  17.579 -22.805  1.00  0.00     0.211 HD
ENDBRANCH   1  24
BRANCH   7  26
HETATM   26  C18 UNL     1     -14.547  12.827 -25.158  1.00  0.00     0.071 C
BRANCH  26  27
HETATM   27  C19 UNL     1     -14.411  11.862 -24.097  1.00  0.00    -0.023 A
HETATM   28  C20 UNL     1     -13.711  12.084 -22.954  1.00  0.00     0.029 A
HETATM   29  C21 UNL     1     -13.654  11.082 -22.015  1.00  0.00     0.088 A
HETATM   30  N4  UNL     1     -14.276   9.894 -22.211  1.00  0.00    -0.375 N
HETATM   31  C22 UNL     1     -14.976   9.633 -23.324  1.00  0.00     0.088 A
ATOM     32  H4  UNL     1     -14.210   9.176 -21.490  1.00  0.00     0.164 HD
HETATM   33  C23 UNL     1     -15.047  10.616 -24.273  1.00  0.00     0.029 A
ENDBRANCH  26  27
ENDBRANCH   7  26
TORSDOF 6
ENDMDL