MODEL 1
REMARK VINA RESULT: -10.842256203      0.000      0.000
REMARK  5 active torsions:
REMARK  status: ('A' for Active; 'I' for Inactive)
REMARK       I    between atoms: C1_2  and  N1_3
REMARK    1  A    between atoms: C1_2  and  C8_10
REMARK    2  A    between atoms: N1_3  and  C2_4
REMARK       I    between atoms: N2_14  and  C12_15
REMARK    3  A    between atoms: C12_15  and  C13_17
REMARK    4  A    between atoms: N6_24  and  C14_25
REMARK    5  A    between atoms: C14_25  and  C15_26
ROOT
HETATM    1  C8  UNL     1     -13.102  14.488 -26.222  1.00  0.00     0.111 C
HETATM    2  C9  UNL     1     -14.063  15.608 -26.537  1.00  0.00     0.018 C
HETATM    3  C10 UNL     1     -14.934  15.854 -25.341  1.00  0.00     0.021 C
HETATM    4  C11 UNL     1     -14.024  16.573 -24.319  1.00  0.00     0.126 C
HETATM    5  N2  UNL     1     -12.790  15.858 -24.169  1.00  0.00    -0.345 N
HETATM    6  C12 UNL     1     -11.835  16.307 -23.202  1.00  0.00     0.290 C
HETATM    7  O2  UNL     1     -10.783  15.642 -23.058  1.00  0.00    -0.264 OA
HETATM    8  C21 UNL     1     -12.396  14.703 -24.947  1.00  0.00     0.141 C
ENDROOT
BRANCH   6   9
HETATM    9  C13 UNL     1     -12.032  17.501 -22.379  1.00  0.00     0.208 A
HETATM   10  N3  UNL     1     -11.765  18.776 -22.760  1.00  0.00    -0.264 N
HETATM   11  N4  UNL     1     -12.092  19.590 -21.804  1.00  0.00    -0.226 N
ATOM     12  H3  UNL     1     -11.368  19.052 -23.658  1.00  0.00     0.190 HD
HETATM   13  N5  UNL     1     -12.560  18.883 -20.825  1.00  0.00    -0.224 N
ATOM     14  H4  UNL     1     -11.997  20.605 -21.821  1.00  0.00     0.210 HD
HETATM   15  N6  UNL     1     -12.532  17.561 -21.162  1.00  0.00    -0.255 N
ATOM     16  H5  UNL     1     -12.898  19.258 -19.939  1.00  0.00     0.210 HD
BRANCH  15  17
HETATM   17  C14 UNL     1     -12.951  16.562 -20.201  1.00  0.00     0.157 C
BRANCH  17  18
HETATM   18  C15 UNL     1     -11.792  16.151 -19.368  1.00  0.00     0.006 C
HETATM   19  C16 UNL     1     -12.084  16.346 -17.867  1.00  0.00     0.006 C
HETATM   20  C17 UNL     1     -10.717  16.397 -17.230  1.00  0.00     0.000 C
HETATM   21  C18 UNL     1      -9.945  15.132 -17.416  1.00  0.00     0.000 C
HETATM   22  C19 UNL     1     -10.041  14.509 -18.763  1.00  0.00     0.000 C
HETATM   23  C20 UNL     1     -11.297  14.784 -19.531  1.00  0.00     0.006 C
ENDBRANCH  17  18
ENDBRANCH  15  17
ENDBRANCH   6   9
BRANCH   1  24
HETATM   24  C1  UNL     1     -13.847  13.137 -26.252  1.00  0.00     0.292 C
HETATM   25  O1  UNL     1     -13.945  12.698 -27.425  1.00  0.00    -0.257 OA
HETATM   26  N1  UNL     1     -14.298  12.587 -25.087  1.00  0.00    -0.409 NA
BRANCH  26  27
HETATM   27  C2  UNL     1     -14.752  12.033 -23.914  1.00  0.00     0.166 C
HETATM   28  C3  UNL     1     -15.019  10.563 -24.088  1.00  0.00     0.039 C
HETATM   29  C4  UNL     1     -15.093   9.763 -22.834  1.00  0.00     0.003 C
HETATM   30  C5  UNL     1     -13.859  10.058 -22.004  1.00  0.00     0.000 C
HETATM   31  C6  UNL     1     -14.024  11.500 -21.550  1.00  0.00     0.003 C
HETATM   32  C7  UNL     1     -13.840  12.363 -22.747  1.00  0.00     0.039 C
ENDBRANCH  26  27
ENDBRANCH   1  24
TORSDOF 5
ENDMDL