MODEL 4
REMARK VINA RESULT: -6.131078559      4.536      8.586
REMARK  12 active torsions:
REMARK  status: ('A' for Active; 'I' for Inactive)
REMARK    1  A    between atoms: C2_2  and  C3_3
REMARK    2  A    between atoms: C3_3  and  C4_4
REMARK    3  A    between atoms: C4_4  and  O2_6
REMARK    4  A    between atoms: O2_6  and  C5_7
REMARK    5  A    between atoms: C12_15  and  O4_16
REMARK    6  A    between atoms: C13_18  and  C15_20
REMARK    7  A    between atoms: C15_20  and  C16_21
REMARK    8  A    between atoms: C16_21  and  C17_22
REMARK    9  A    between atoms: C18_23  and  C20_25
REMARK   10  A    between atoms: C20_25  and  C21_26
REMARK   11  A    between atoms: C21_26  and  C22_27
REMARK   12  A    between atoms: C22_27  and  O5_30
ROOT
HETATM    1  C5  UNL     1      10.398  19.519   5.957  1.00  0.00     0.196 C
HETATM    2  C6  UNL     1      11.112  20.780   5.574  1.00  0.00     0.297 C
HETATM    3  O3  UNL     1      11.525  20.786   4.247  1.00  0.00    -0.323 OA
HETATM    4  C7  UNL     1      12.831  20.579   4.753  1.00  0.00     0.167 C
HETATM    5  C8  UNL     1      13.794  21.497   4.081  1.00  0.00     0.079 C
HETATM    6  C9  UNL     1      13.099  19.132   4.702  1.00  0.00     0.074 C
HETATM    7  C10 UNL     1      12.636  18.333   5.872  1.00  0.00     0.005 C
HETATM    8  C11 UNL     1      13.324  18.604   7.168  1.00  0.00     0.038 C
HETATM    9  C12 UNL     1      12.212  18.523   8.188  1.00  0.00     0.127 C
HETATM   10  C13 UNL     1      11.143  17.727   7.551  1.00  0.00    -0.008 C
HETATM   11  C14 UNL     1       9.854  18.024   8.269  1.00  0.00     0.019 C
HETATM   12  C25 UNL     1      11.167  18.304   6.122  1.00  0.00     0.001 C
HETATM   13  C26 UNL     1      10.583  17.236   5.174  1.00  0.00     0.019 C
HETATM   14  O6  UNL     1      12.376  20.957   6.007  1.00  0.00    -0.323 OA
ENDROOT
BRANCH  10  15
HETATM   15  C15 UNL     1      11.298  16.249   7.500  1.00  0.00     0.016 C
BRANCH  15  16
HETATM   16  C16 UNL     1      10.844  15.449   8.656  1.00  0.00     0.028 C
BRANCH  16  17
HETATM   17  C17 UNL     1      11.783  14.266   8.772  1.00  0.00    -0.024 C
HETATM   18  C18 UNL     1      11.384  13.065   9.149  1.00  0.00    -0.087 C
HETATM   19  C19 UNL     1       9.949  12.871   9.474  1.00  0.00     0.043 C
BRANCH  18  20
HETATM   20  C20 UNL     1      12.295  11.902   9.264  1.00  0.00     0.036 C
BRANCH  20  21
HETATM   21  C21 UNL     1      12.095  11.151  10.560  1.00  0.00     0.041 C
BRANCH  21  22
HETATM   22  C22 UNL     1      13.391  10.464  10.905  1.00  0.00     0.051 C
HETATM   23  C23 UNL     1      14.577  11.145  10.237  1.00  0.00     0.045 C
HETATM   24  C24 UNL     1      13.654  10.539  12.413  1.00  0.00     0.045 C
BRANCH  22  25
HETATM   25  O5  UNL     1      13.388   9.139  10.478  1.00  0.00    -0.391 OA
ATOM     26  H5  UNL     1      12.730   8.630  10.937  1.00  0.00     0.210 HD
ENDBRANCH  22  25
ENDBRANCH  21  22
ENDBRANCH  20  21
ENDBRANCH  18  20
ENDBRANCH  16  17
ENDBRANCH  15  16
ENDBRANCH  10  15
BRANCH   9  27
HETATM   27  O4  UNL     1      12.654  18.116   9.429  1.00  0.00    -0.395 OA
ATOM     28  H4  UNL     1      11.981  18.175  10.098  1.00  0.00     0.210 HD
ENDBRANCH   9  27
BRANCH   1  29
HETATM   29  O2  UNL     1       9.409  19.374   4.914  1.00  0.00    -0.310 OA
BRANCH  29  30
HETATM   30  C4  UNL     1       8.228  20.055   4.874  1.00  0.00     0.259 C
HETATM   31  O1  UNL     1       7.769  20.441   3.770  1.00  0.00    -0.265 OA
BRANCH  30  32
HETATM   32  C3  UNL     1       7.417  20.380   6.081  1.00  0.00     0.111 C
BRANCH  32  33
HETATM   33  C2  UNL     1       7.351  21.859   6.337  1.00  0.00     0.005 C
HETATM   34  C1  UNL     1       8.254  22.273   7.468  1.00  0.00     0.005 C
ENDBRANCH  32  33
ENDBRANCH  30  32
ENDBRANCH  29  30
ENDBRANCH   1  29
TORSDOF 12
ENDMDL