MODEL 3
REMARK VINA RESULT: -7.524428284      3.735      7.199
REMARK  11 active torsions:
REMARK  status: ('A' for Active; 'I' for Inactive)
REMARK    1  A    between atoms: C2_2  and  N1_3
REMARK    2  A    between atoms: N3_8  and  C5_9
REMARK    3  A    between atoms: C5_9  and  C6_10
REMARK    4  A    between atoms: C6_10  and  C7_11
REMARK    5  A    between atoms: C7_11  and  C8_12
REMARK    6  A    between atoms: C8_12  and  C9_13
REMARK    7  A    between atoms: C9_13  and  O1_14
REMARK    8  A    between atoms: O1_14  and  C10_15
REMARK    9  A    between atoms: C13_18  and  O2_19
REMARK   10  A    between atoms: C15_22  and  O3_23
REMARK   11  A    between atoms: C19_28  and  O4_29
ROOT
HETATM    1  C10 UNL     1      11.427  14.195   8.925  1.00  0.00     0.089 A
HETATM    2  C11 UNL     1      11.498  15.439   8.396  1.00  0.00    -0.015 A
HETATM    3  C12 UNL     1      12.501  15.731   7.468  1.00  0.00    -0.015 A
HETATM    4  C13 UNL     1      13.418  14.799   7.082  1.00  0.00     0.086 A
HETATM    5  C14 UNL     1      13.372  13.498   7.622  1.00  0.00     0.047 A
HETATM    6  C15 UNL     1      14.323  12.567   7.278  1.00  0.00     0.085 A
HETATM    7  C16 UNL     1      14.280  11.294   7.888  1.00  0.00    -0.025 A
HETATM    8  C17 UNL     1      15.277  10.259   7.551  1.00  0.00     0.051 C
HETATM    9  C18 UNL     1      13.313  11.016   8.793  1.00  0.00     0.047 A
HETATM   10  C19 UNL     1      12.366  11.980   9.117  1.00  0.00     0.080 A
HETATM   11  C20 UNL     1      12.348  13.247   8.549  1.00  0.00     0.047 A
HETATM   12  C21 UNL     1      12.472  17.108   6.939  1.00  0.00     0.042 C
HETATM   13  C22 UNL     1      11.087  17.587   6.561  1.00  0.00     0.005 C
HETATM   14  C23 UNL     1       9.992  17.021   7.435  1.00  0.00     0.005 C
HETATM   15  C24 UNL     1      10.631  16.600   8.717  1.00  0.00     0.042 C
ENDROOT
BRANCH   1  16
HETATM   16  O1  UNL     1      10.405  13.947   9.828  1.00  0.00    -0.350 OA
BRANCH  16  17
HETATM   17  C9  UNL     1       9.064  13.747   9.531  1.00  0.00     0.175 C
BRANCH  17  18
HETATM   18  C8  UNL     1       7.988  14.350  10.323  1.00  0.00     0.027 C
BRANCH  18  19
HETATM   19  C7  UNL     1       7.109  15.318   9.533  1.00  0.00     0.004 C
BRANCH  19  20
HETATM   20  C6  UNL     1       5.702  14.862   9.524  1.00  0.00     0.020 C
BRANCH  20  21
HETATM   21  C5  UNL     1       5.432  13.617   8.714  1.00  0.00     0.128 C
BRANCH  21  22
HETATM   22  N3  UNL     1       4.704  12.598   9.385  1.00  0.00    -0.328 N
HETATM   23  C4  UNL     1       3.306  12.767   9.681  1.00  0.00     0.173 A
HETATM   24  C3  UNL     1       2.685  11.611  10.358  1.00  0.00     0.100 A
HETATM   25  N2  UNL     1       3.275  10.551  10.681  1.00  0.00    -0.308 N
HETATM   26  N1  UNL     1       4.621  10.343  10.425  1.00  0.00    -0.244 N
ATOM     27  H2  UNL     1       2.744   9.815  11.148  1.00  0.00     0.186 HD
HETATM   28  C25 UNL     1       5.337  11.389   9.768  1.00  0.00     0.339 A
HETATM   29  O5  UNL     1       6.553  11.177   9.552  1.00  0.00    -0.245 OA
BRANCH  26  30
HETATM   30  C2  UNL     1       5.221   9.092  10.834  1.00  0.00     0.149 C
HETATM   31  C1  UNL     1       5.855   9.179  12.207  1.00  0.00     0.028 C
ENDBRANCH  26  30
ENDBRANCH  21  22
ENDBRANCH  20  21
ENDBRANCH  19  20
ENDBRANCH  18  19
ENDBRANCH  17  18
ENDBRANCH  16  17
ENDBRANCH   1  16
BRANCH  10  32
HETATM   32  O4  UNL     1      11.426  11.616  10.064  1.00  0.00    -0.360 OA
ATOM     33  H4  UNL     1      10.516  11.692   9.801  1.00  0.00     0.217 HD
ENDBRANCH  10  32
BRANCH   4  34
HETATM   34  O2  UNL     1      14.411  15.067   6.171  1.00  0.00    -0.359 OA
ATOM     35  H2  UNL     1      15.216  14.564   6.125  1.00  0.00     0.217 HD
ENDBRANCH   4  34
BRANCH   6  36
HETATM   36  O3  UNL     1      15.309  12.757   6.399  1.00  0.00    -0.359 OA
ATOM     37  H3  UNL     1      16.220  12.913   6.619  1.00  0.00     0.217 HD
ENDBRANCH   6  36
TORSDOF 11
ENDMDL