MODEL 2
REMARK VINA RESULT: -7.306612203      2.123      2.921
REMARK  11 active torsions:
REMARK  status: ('A' for Active; 'I' for Inactive)
REMARK    1  A    between atoms: O1_1  and  N1_3
REMARK    2  A    between atoms: C1_5  and  O2_6
REMARK    3  A    between atoms: C1_5  and  C2_8
REMARK    4  A    between atoms: C3_9  and  C4_10
REMARK    5  A    between atoms: C4_10  and  C5_11
REMARK    6  A    between atoms: C5_11  and  C6_12
REMARK    7  A    between atoms: C6_12  and  O3_13
REMARK    8  A    between atoms: O3_13  and  C7_14
REMARK    9  A    between atoms: C7_14  and  C8_15
REMARK   10  A    between atoms: C8_15  and  N2_16
REMARK   11  A    between atoms: N2_16  and  C9_17
ROOT
HETATM    1  C9  UNL     1      10.556  14.415   9.028  1.00  0.00     0.209 A
HETATM    2  C10 UNL     1      10.958  15.744   8.811  1.00  0.00     0.025 A
HETATM    3  C11 UNL     1       9.995  16.736   8.659  1.00  0.00     0.022 A
HETATM    4  N3  UNL     1       8.715  16.382   8.728  1.00  0.00    -0.344 N
ATOM      5  H3  UNL     1       7.998  17.099   8.620  1.00  0.00     0.167 HD
HETATM    6  C12 UNL     1       8.332  15.099   8.938  1.00  0.00     0.131 A
HETATM    7  C13 UNL     1       7.069  14.500   9.041  1.00  0.00     0.069 A
HETATM    8  C14 UNL     1       7.256  13.155   9.254  1.00  0.00     0.111 A
HETATM    9  N4  UNL     1       8.565  12.954   9.277  1.00  0.00    -0.301 N
ATOM     10  H4  UNL     1       9.020  12.053   9.417  1.00  0.00     0.186 HD
HETATM   11  N5  UNL     1       9.198  14.120   9.087  1.00  0.00    -0.211 N
HETATM   12  C15 UNL     1      10.317  18.163   8.413  1.00  0.00     0.058 C
HETATM   13  C16 UNL     1       9.342  18.914   7.579  1.00  0.00     0.006 C
HETATM   14  C17 UNL     1       9.951  19.453   6.265  1.00  0.00     0.000 C
HETATM   15  C18 UNL     1      10.856  18.387   5.788  1.00  0.00     0.000 C
HETATM   16  C19 UNL     1      10.936  18.133   4.309  1.00  0.00     0.000 C
HETATM   17  C20 UNL     1      11.347  16.642   4.224  1.00  0.00     0.000 C
HETATM   18  C21 UNL     1      12.553  16.338   5.032  1.00  0.00     0.000 C
HETATM   19  C22 UNL     1      12.352  15.533   6.276  1.00  0.00     0.000 C
HETATM   20  C23 UNL     1      13.065  16.087   7.459  1.00  0.00     0.005 C
HETATM   21  C24 UNL     1      12.402  16.077   8.768  1.00  0.00     0.046 C
ENDROOT
BRANCH   1  22
HETATM   22  N2  UNL     1      11.329  13.473   9.182  1.00  0.00    -0.399 NA
BRANCH  22  23
HETATM   23  C8  UNL     1      12.109  12.417   8.924  1.00  0.00     0.183 C
BRANCH  23  24
HETATM   24  C7  UNL     1      13.594  12.495   9.212  1.00  0.00     0.226 C
BRANCH  24  25
HETATM   25  O3  UNL     1      14.452  12.877   8.308  1.00  0.00    -0.385 OA
BRANCH  25  26
HETATM   26  C6  UNL     1      14.551  12.587   7.025  1.00  0.00     0.168 C
BRANCH  26  27
HETATM   27  C5  UNL     1      15.554  11.556   6.580  1.00  0.00     0.030 C
BRANCH  27  28
HETATM   28  C4  UNL     1      14.824  10.260   6.169  1.00  0.00     0.029 C
BRANCH  28  29
HETATM   29  C3  UNL     1      14.246   9.590   7.341  1.00  0.00    -0.022 C
HETATM   30  C2  UNL     1      15.018   9.177   8.307  1.00  0.00     0.053 C
BRANCH  30  31
HETATM   31  C1  UNL     1      14.416   8.506   9.475  1.00  0.00     0.159 C
HETATM   32  N1  UNL     1      14.760   7.318   9.817  1.00  0.00    -0.248 N
ATOM     33  H1  UNL     1      15.466   6.820   9.274  1.00  0.00     0.196 HD
BRANCH  32  34
HETATM   34  O1  UNL     1      14.196   6.723  10.890  1.00  0.00    -0.288 OA
ATOM     35  H1  UNL     1      13.258   6.575  10.922  1.00  0.00     0.244 HD
ENDBRANCH  32  34
BRANCH  31  36
HETATM   36  O2  UNL     1      13.453   9.157  10.233  1.00  0.00    -0.345 OA
ATOM     37  H2  UNL     1      12.769   9.636   9.780  1.00  0.00     0.219 HD
ENDBRANCH  31  36
ENDBRANCH  30  31
ENDBRANCH  28  29
ENDBRANCH  27  28
ENDBRANCH  26  27
ENDBRANCH  25  26
ENDBRANCH  24  25
ENDBRANCH  23  24
ENDBRANCH  22  23
ENDBRANCH   1  22
TORSDOF 11
ENDMDL