MODEL 3
REMARK VINA RESULT: -5.755482802      2.209      5.019
REMARK  11 active torsions:
REMARK  status: ('A' for Active; 'I' for Inactive)
REMARK    1  A    between atoms: C2_2  and  C3_4
REMARK    2  A    between atoms: C3_4  and  C4_5
REMARK    3  A    between atoms: C3_4  and  C24_33
REMARK    4  A    between atoms: C5_6  and  C6_7
REMARK    5  A    between atoms: C9_10  and  O2_11
REMARK    6  A    between atoms: C14_18  and  C15_19
REMARK    7  A    between atoms: C15_19  and  C16_20
REMARK    8  A    between atoms: C22_26  and  O4_27
REMARK    9  A    between atoms: O4_27  and  C23_28
REMARK   10  A    between atoms: C23_28  and  O5_29
REMARK   11  A    between atoms: C23_28  and  O6_31
ROOT
HETATM    1  C6  UNL     1      11.933  15.142   7.912  1.00  0.00     0.067 C
HETATM    2  C7  UNL     1      11.842  16.311   6.988  1.00  0.00    -0.059 C
HETATM    3  C8  UNL     1      10.933  16.286   6.020  1.00  0.00     0.009 C
HETATM    4  C9  UNL     1      10.679  17.327   5.008  1.00  0.00     0.148 C
HETATM    5  C10 UNL     1      11.714  18.380   4.990  1.00  0.00     0.052 C
HETATM    6  C11 UNL     1      12.067  18.726   3.542  1.00  0.00     0.016 C
HETATM    7  C12 UNL     1      12.957  17.981   5.678  1.00  0.00     0.100 A
HETATM    8  C13 UNL     1      14.217  18.516   5.233  1.00  0.00     0.208 A
HETATM    9  O3  UNL     1      13.847  17.163   4.983  1.00  0.00    -0.373 OA
HETATM   10  C14 UNL     1      12.754  17.486   7.113  1.00  0.00     0.021 C
HETATM   11  C20 UNL     1      14.085  17.164   7.671  1.00  0.00     0.020 C
HETATM   12  C21 UNL     1      14.141  15.938   8.533  1.00  0.00     0.034 C
HETATM   13  C22 UNL     1      13.426  14.786   7.919  1.00  0.00     0.138 C
ENDROOT
BRANCH   1  14
HETATM   14  C5  UNL     1      11.412  15.358   9.252  1.00  0.00    -0.018 C
HETATM   15  C4  UNL     1      10.206  15.039   9.652  1.00  0.00    -0.018 C
BRANCH  15  16
HETATM   16  C3  UNL     1       9.109  14.410   8.893  1.00  0.00     0.080 C
BRANCH  16  17
HETATM   17  C2  UNL     1       8.800  13.050   9.362  1.00  0.00     0.131 C
HETATM   18  C1  UNL     1       7.585  12.269   9.040  1.00  0.00     0.091 C
HETATM   19  O1  UNL     1       9.624  12.490  10.098  1.00  0.00    -0.298 OA
ENDBRANCH  16  17
BRANCH  16  20
HETATM   20  C24 UNL     1       7.901  15.334   8.919  1.00  0.00    -0.008 C
HETATM   21  C25 UNL     1       8.420  16.761   8.717  1.00  0.00     0.010 C
HETATM   22  C26 UNL     1       7.146  15.306  10.208  1.00  0.00     0.010 C
ENDBRANCH  16  20
ENDBRANCH  15  16
ENDBRANCH   1  14
BRANCH  13  23
HETATM   23  O4  UNL     1      13.676  13.579   8.501  1.00  0.00    -0.333 OA
BRANCH  23  24
HETATM   24  C23 UNL     1      12.788  12.596   8.015  1.00  0.00     0.408 C
BRANCH  24  25
HETATM   25  O5  UNL     1      12.295  11.802   9.023  1.00  0.00    -0.350 OA
ATOM     26  H5  UNL     1      11.600  11.230   8.718  1.00  0.00     0.215 HD
ENDBRANCH  24  25
BRANCH  24  27
HETATM   27  O6  UNL     1      13.464  11.754   7.114  1.00  0.00    -0.350 OA
ATOM     28  H6  UNL     1      14.081  11.209   7.588  1.00  0.00     0.215 HD
ENDBRANCH  24  27
ENDBRANCH  23  24
ENDBRANCH  13  23
BRANCH  10  29
HETATM   29  C15 UNL     1      12.069  18.608   7.852  1.00  0.00     0.044 C
BRANCH  29  30
HETATM   30  C16 UNL     1      13.063  19.411   8.617  1.00  0.00    -0.024 C
HETATM   31  C17 UNL     1      13.236  20.707   8.416  1.00  0.00    -0.091 C
HETATM   32  C18 UNL     1      12.420  21.399   7.394  1.00  0.00     0.042 C
HETATM   33  C19 UNL     1      14.233  21.485   9.192  1.00  0.00     0.042 C
ENDBRANCH  29  30
ENDBRANCH  10  29
BRANCH   4  34
HETATM   34  O2  UNL     1      10.592  16.678   3.740  1.00  0.00    -0.391 OA
ATOM     35  H2  UNL     1       9.671  16.546   3.550  1.00  0.00     0.210 HD
ENDBRANCH   4  34
TORSDOF 11
ENDMDL