MODEL 5
REMARK VINA RESULT: -7.708430710      2.548      7.144
REMARK  10 active torsions:
REMARK  status: ('A' for Active; 'I' for Inactive)
REMARK    1  A    between atoms: C2_2  and  O1_3
REMARK    2  A    between atoms: C2_2  and  C3_5
REMARK    3  A    between atoms: C3_5  and  C4_6
REMARK    4  A    between atoms: C4_6  and  C5_7
REMARK    5  A    between atoms: C5_7  and  C6_8
REMARK    6  A    between atoms: C9_12  and  C10_13
REMARK    7  A    between atoms: C10_13  and  O2_14
REMARK    8  A    between atoms: C10_13  and  C11_16
REMARK    9  A    between atoms: C15_20  and  O3_21
REMARK   10  A    between atoms: C16_23  and  C17_24
ROOT
HETATM    1  C11 UNL     1      11.005  14.992   8.569  1.00  0.00    -0.009 A
HETATM    2  C12 UNL     1      12.328  14.862   8.252  1.00  0.00     0.049 A
HETATM    3  C13 UNL     1      13.066  13.694   8.521  1.00  0.00     0.087 A
HETATM    4  C14 UNL     1      12.399  12.660   9.131  1.00  0.00     0.080 A
HETATM    5  C15 UNL     1      11.090  12.782   9.450  1.00  0.00     0.093 A
HETATM    6  C16 UNL     1      10.349  13.966   9.172  1.00  0.00     0.013 A
HETATM    7  C24 UNL     1      13.358  11.556   9.302  1.00  0.00     0.199 A
HETATM    8  O4  UNL     1      13.130  10.467   9.868  1.00  0.00    -0.289 OA
HETATM    9  C25 UNL     1      14.617  12.009   8.670  1.00  0.00     0.125 A
HETATM   10  C26 UNL     1      15.699  11.970   9.739  1.00  0.00     0.055 C
HETATM   11  C27 UNL     1      14.943  11.062   7.543  1.00  0.00     0.055 C
HETATM   12  O5  UNL     1      14.371  13.319   8.306  1.00  0.00    -0.332 OA
ENDROOT
BRANCH   1  13
HETATM   13  C10 UNL     1      10.279  16.256   8.170  1.00  0.00     0.190 C
BRANCH  13  14
HETATM   14  C9  UNL     1      10.958  16.766   6.896  1.00  0.00     0.095 C
HETATM   15  N1  UNL     1      10.626  18.006   6.460  1.00  0.00    -0.386 N
HETATM   16  C6  UNL     1       9.503  18.603   5.906  1.00  0.00     0.085 C
HETATM   17  C8  UNL     1      10.903  19.148   7.318  1.00  0.00     0.124 C
HETATM   18  C7  UNL     1       9.466  19.505   7.186  1.00  0.00     0.045 C
BRANCH  16  19
HETATM   19  C5  UNL     1       9.973  19.563   4.794  1.00  0.00     0.025 C
BRANCH  19  20
HETATM   20  C4  UNL     1       8.862  20.411   4.235  1.00  0.00     0.004 C
BRANCH  20  21
HETATM   21  C3  UNL     1       9.537  21.648   3.660  1.00  0.00     0.031 C
BRANCH  21  22
HETATM   22  C2  UNL     1      10.461  21.189   2.550  1.00  0.00     0.114 C
HETATM   23  C1  UNL     1       9.706  21.534   1.256  1.00  0.00     0.039 C
BRANCH  22  24
HETATM   24  O1  UNL     1      11.660  21.837   2.658  1.00  0.00    -0.396 OA
ATOM     25  H1  UNL     1      11.884  22.057   3.555  1.00  0.00     0.210 HD
ENDBRANCH  22  24
ENDBRANCH  21  22
ENDBRANCH  20  21
ENDBRANCH  19  20
ENDBRANCH  16  19
ENDBRANCH  13  14
BRANCH  13  26
HETATM   26  O2  UNL     1      10.224  17.049   9.213  1.00  0.00    -0.386 OA
ATOM     27  H2  UNL     1       9.717  16.773   9.968  1.00  0.00     0.210 HD
ENDBRANCH  13  26
ENDBRANCH   1  13
BRANCH   6  28
HETATM   28  C17 UNL     1       8.981  13.853   9.587  1.00  0.00    -0.048 C
HETATM   29  C18 UNL     1       8.304  12.890   8.908  1.00  0.00    -0.018 C
HETATM   30  C19 UNL     1       6.892  12.680   9.257  1.00  0.00     0.031 C
HETATM   31  C20 UNL     1       6.138  13.961   9.031  1.00  0.00    -0.015 C
HETATM   32  C21 UNL     1       4.703  13.856   9.495  1.00  0.00     0.010 C
HETATM   33  C22 UNL     1       6.864  15.105   9.633  1.00  0.00     0.009 C
HETATM   34  C23 UNL     1       8.095  14.633  10.444  1.00  0.00     0.039 C
ENDBRANCH   6  28
BRANCH   5  35
HETATM   35  O3  UNL     1      10.416  11.713  10.075  1.00  0.00    -0.359 OA
ATOM     36  H3  UNL     1       9.487  11.781  10.259  1.00  0.00     0.217 HD
ENDBRANCH   5  35
TORSDOF 10
ENDMDL