MODEL 1
REMARK VINA RESULT: -7.450310527      0.000      0.000
REMARK  14 active torsions:
REMARK  status: ('A' for Active; 'I' for Inactive)
REMARK    1  A    between atoms: C2_2  and  N1_3
REMARK       I    between atoms: N1_3  and  C3_5
REMARK    2  A    between atoms: C3_5  and  O2_7
REMARK    3  A    between atoms: O2_7  and  C4_8
REMARK    4  A    between atoms: C4_8  and  C5_9
REMARK    5  A    between atoms: C8_12  and  C9_13
REMARK    6  A    between atoms: C9_13  and  C10_14
REMARK    7  A    between atoms: C11_15  and  C12_16
REMARK    8  A    between atoms: C12_16  and  O3_17
REMARK    9  A    between atoms: N2_19  and  O4_21
REMARK   10  A    between atoms: C13_23  and  N3_24
REMARK   11  A    between atoms: N3_24  and  N4_26
REMARK   12  A    between atoms: N4_26  and  N5_27
REMARK   13  A    between atoms: C14_30  and  C15_31
REMARK       I    between atoms: N6_32  and  C16_34
REMARK   14  A    between atoms: C16_34  and  C17_36
ROOT
HETATM    1  C5  UNL     1       9.555  14.865   9.726  1.00  0.00     0.021 C
HETATM    2  C6  UNL     1       8.212  15.260  10.173  1.00  0.00     0.008 C
HETATM    3  C7  UNL     1       7.050  14.490   9.739  1.00  0.00     0.007 C
HETATM    4  C8  UNL     1       7.308  13.223   8.952  1.00  0.00     0.015 C
HETATM    5  C13 UNL     1       8.590  12.646   9.482  1.00  0.00     0.128 C
HETATM    6  C14 UNL     1       9.659  13.612   8.931  1.00  0.00     0.056 C
ENDROOT
BRANCH   4   7
HETATM    7  C9  UNL     1       6.125  12.287   9.029  1.00  0.00     0.034 C
BRANCH   7   8
HETATM    8  C10 UNL     1       4.939  13.063   9.442  1.00  0.00    -0.022 C
HETATM    9  C11 UNL     1       3.759  12.632   9.770  1.00  0.00     0.053 C
BRANCH   9  10
HETATM   10  C12 UNL     1       3.213  11.312   9.842  1.00  0.00     0.159 C
HETATM   11  N2  UNL     1       2.833  10.777  10.983  1.00  0.00    -0.248 N
ATOM     12  H2  UNL     1       2.449   9.831  10.992  1.00  0.00     0.196 HD
BRANCH  10  13
HETATM   13  O3  UNL     1       3.048  10.515   8.741  1.00  0.00    -0.345 OA
ATOM     14  H3  UNL     1       3.778  10.154   8.252  1.00  0.00     0.219 HD
ENDBRANCH  10  13
BRANCH  11  15
HETATM   15  O4  UNL     1       2.946  11.471  12.160  1.00  0.00    -0.288 OA
ATOM     16  H4  UNL     1       3.655  12.088  12.296  1.00  0.00     0.244 HD
ENDBRANCH  11  15
ENDBRANCH   9  10
ENDBRANCH   7   8
ENDBRANCH   4   7
BRANCH   5  17
HETATM   17  N3  UNL     1       8.697  12.765  10.922  1.00  0.00    -0.247 N
ATOM     18  H3  UNL     1       8.472  13.667  11.342  1.00  0.00     0.197 HD
BRANCH  17  19
HETATM   19  N4  UNL     1       9.036  11.867  11.662  1.00  0.00    -0.248 NA
BRANCH  19  20
HETATM   20  N5  UNL     1       9.689  11.011  12.237  1.00  0.00    -0.261 N
ATOM     21  H52 UNL     1      10.514  11.600  12.349  1.00  0.00     0.193 HD
ATOM     22  H51 UNL     1       9.983  10.139  12.675  1.00  0.00     0.193 HD
ENDBRANCH  19  20
ENDBRANCH  17  19
ENDBRANCH   5  17
BRANCH   6  23
HETATM   23  C15 UNL     1      11.003  13.012   9.049  1.00  0.00     0.071 C
HETATM   24  N6  UNL     1      11.722  12.729   8.024  1.00  0.00    -0.340 N
HETATM   25  C16 UNL     1      13.010  12.155   8.140  1.00  0.00     0.225 C
ATOM     26  H6  UNL     1      11.352  12.926   7.094  1.00  0.00     0.167 HD
HETATM   27  O5  UNL     1      13.240  11.307   9.023  1.00  0.00    -0.273 OA
BRANCH  25  28
HETATM   28  C17 UNL     1      14.084  12.566   7.207  1.00  0.00     0.078 C
HETATM   29  C18 UNL     1      14.640  11.359   6.532  1.00  0.00     0.014 C
HETATM   30  C19 UNL     1      16.138  11.526   6.474  1.00  0.00     0.001 C
HETATM   31  C20 UNL     1      16.492  12.728   7.293  1.00  0.00     0.001 C
HETATM   32  C21 UNL     1      15.225  13.243   7.924  1.00  0.00     0.014 C
ENDBRANCH  25  28
ENDBRANCH   6  23
BRANCH   1  33
HETATM   33  C4  UNL     1      10.205  15.972   8.882  1.00  0.00     0.185 C
BRANCH  33  34
HETATM   34  O2  UNL     1      11.352  16.483   9.570  1.00  0.00    -0.304 OA
BRANCH  34  35
HETATM   35  C3  UNL     1      12.617  16.418   9.056  1.00  0.00     0.360 C
HETATM   36  N1  UNL     1      13.745  17.064   9.652  1.00  0.00    -0.337 N
ATOM     37  H1  UNL     1      13.619  17.606  10.506  1.00  0.00     0.164 HD
HETATM   38  O1  UNL     1      12.799  15.755   8.003  1.00  0.00    -0.239 OA
BRANCH  36  39
HETATM   39  C2  UNL     1      15.073  16.960   9.059  1.00  0.00     0.120 C
HETATM   40  C1  UNL     1      16.059  16.307   9.971  1.00  0.00     0.026 C
ENDBRANCH  36  39
ENDBRANCH  34  35
ENDBRANCH  33  34
ENDBRANCH   1  33
TORSDOF 14
ENDMDL