MODEL 4
REMARK VINA RESULT: -6.264537379      3.489      6.625
REMARK  12 active torsions:
REMARK  status: ('A' for Active; 'I' for Inactive)
REMARK    1  A    between atoms: C5_5  and  N1_6
REMARK       I    between atoms: N1_6  and  C6_8
REMARK    2  A    between atoms: C9_12  and  C10_13
REMARK    3  A    between atoms: C10_13  and  C12_15
REMARK    4  A    between atoms: C12_15  and  C13_16
REMARK    5  A    between atoms: C13_16  and  C14_17
REMARK    6  A    between atoms: C14_17  and  C15_18
REMARK    7  A    between atoms: C15_18  and  C16_19
REMARK    8  A    between atoms: C16_19  and  O2_20
REMARK    9  A    between atoms: O2_20  and  C17_21
REMARK   10  A    between atoms: C17_21  and  C18_23
REMARK   11  A    between atoms: C24_29  and  O4_30
REMARK   12  A    between atoms: N2_33  and  O5_35
ROOT
HETATM    1  C1  UNL     1      13.086  19.688   5.833  1.00  0.00     0.021 C
HETATM    2  C2  UNL     1      12.995  18.456   6.283  1.00  0.00    -0.040 C
HETATM    3  C3  UNL     1      14.034  17.858   7.159  1.00  0.00     0.047 C
HETATM    4  C4  UNL     1      13.380  17.125   8.290  1.00  0.00     0.024 C
HETATM    5  C5  UNL     1      14.359  16.300   9.091  1.00  0.00     0.090 C
HETATM    6  C8  UNL     1      14.118  14.908   8.469  1.00  0.00     0.031 C
HETATM    7  C9  UNL     1      12.635  14.903   8.515  1.00  0.00     0.003 C
HETATM    8  C22 UNL     1      12.267  16.186   7.846  1.00  0.00    -0.003 C
HETATM    9  C23 UNL     1      10.946  16.654   8.484  1.00  0.00     0.019 C
HETATM   10  C24 UNL     1      12.028  16.159   6.390  1.00  0.00     0.179 C
HETATM   11  C25 UNL     1      11.868  17.594   5.951  1.00  0.00     0.067 C
HETATM   12  N2  UNL     1      10.840  18.026   5.342  1.00  0.00    -0.270 N
ATOM     13  H2  UNL     1      10.829  19.014   5.089  1.00  0.00     0.194 HD
ENDROOT
BRANCH   7  14
HETATM   14  C10 UNL     1      11.889  13.698   8.225  1.00  0.00    -0.014 C
HETATM   15  C11 UNL     1      12.547  12.550   7.553  1.00  0.00     0.010 C
BRANCH  14  16
HETATM   16  C12 UNL     1      10.951  13.250   9.287  1.00  0.00     0.005 C
BRANCH  16  17
HETATM   17  C13 UNL     1       9.495  13.240   8.980  1.00  0.00     0.000 C
BRANCH  17  18
HETATM   18  C14 UNL     1       8.652  13.337  10.251  1.00  0.00     0.002 C
BRANCH  18  19
HETATM   19  C15 UNL     1       7.565  14.358  10.164  1.00  0.00     0.027 C
BRANCH  19  20
HETATM   20  C16 UNL     1       6.609  13.895   9.076  1.00  0.00     0.178 C
BRANCH  20  21
HETATM   21  O2  UNL     1       6.036  12.664   9.504  1.00  0.00    -0.321 OA
BRANCH  21  22
HETATM   22  C17 UNL     1       4.679  12.551   9.717  1.00  0.00     0.266 C
HETATM   23  O3  UNL     1       3.987  13.597   9.543  1.00  0.00    -0.264 OA
BRANCH  22  24
HETATM   24  C18 UNL     1       4.012  11.302  10.128  1.00  0.00     0.037 C
HETATM   25  C19 UNL     1       3.092  10.761   9.042  1.00  0.00     0.025 C
HETATM   26  C20 UNL     1       5.035  10.248  10.462  1.00  0.00     0.025 C
HETATM   27  C21 UNL     1       3.226  11.587  11.400  1.00  0.00     0.025 C
ENDBRANCH  22  24
ENDBRANCH  21  22
ENDBRANCH  20  21
ENDBRANCH  19  20
ENDBRANCH  18  19
ENDBRANCH  17  18
ENDBRANCH  16  17
ENDBRANCH  14  16
ENDBRANCH   7  14
BRANCH   5  28
HETATM   28  N1  UNL     1      15.714  16.716   9.003  1.00  0.00    -0.356 N
HETATM   29  C6  UNL     1      16.641  16.748  10.068  1.00  0.00     0.213 C
HETATM   30  C7  UNL     1      18.032  17.198   9.877  1.00  0.00     0.117 C
HETATM   31  O1  UNL     1      16.274  16.385  11.206  1.00  0.00    -0.274 OA
ATOM     32  H1  UNL     1      16.048  17.019   8.088  1.00  0.00     0.162 HD
ENDBRANCH   5  28
BRANCH  10  33
HETATM   33  O4  UNL     1      13.041  15.650   5.612  1.00  0.00    -0.389 OA
ATOM     34  H4  UNL     1      12.811  14.932   5.034  1.00  0.00     0.210 HD
ENDBRANCH  10  33
BRANCH  12  35
HETATM   35  O5  UNL     1       9.757  17.286   5.000  1.00  0.00    -0.290 OA
ATOM     36  H5  UNL     1       9.739  16.605   4.338  1.00  0.00     0.244 HD
ENDBRANCH  12  35
TORSDOF 12
ENDMDL