MODEL 4
REMARK VINA RESULT: -6.257023714      1.378      1.622
REMARK  10 active torsions:
REMARK  status: ('A' for Active; 'I' for Inactive)
REMARK    1  A    between atoms: O1_2  and  C2_3
REMARK    2  A    between atoms: C2_3  and  C3_5
REMARK    3  A    between atoms: C7_9  and  O3_10
REMARK    4  A    between atoms: C8_12  and  O4_14
REMARK    5  A    between atoms: C14_20  and  C15_21
REMARK    6  A    between atoms: C15_21  and  C17_23
REMARK    7  A    between atoms: C17_23  and  C18_24
REMARK    8  A    between atoms: C18_24  and  C19_25
REMARK    9  A    between atoms: C23_29  and  C25_31
REMARK   10  A    between atoms: C25_31  and  C27_33
ROOT
HETATM    1  C3  UNL     1      12.081  20.155   5.831  1.00  0.00     0.057 C
HETATM    2  C4  UNL     1      12.377  20.881   7.149  1.00  0.00     0.027 C
HETATM    3  C5  UNL     1      10.706  20.625   5.478  1.00  0.00     0.018 C
HETATM    4  C6  UNL     1      10.532  22.104   5.390  1.00  0.00     0.041 C
HETATM    5  C7  UNL     1       9.126  22.136   4.743  1.00  0.00     0.153 C
HETATM    6  C8  UNL     1       8.464  20.934   5.305  1.00  0.00     0.087 C
HETATM    7  C9  UNL     1       7.202  21.188   6.050  1.00  0.00     0.049 C
HETATM    8  C10 UNL     1       9.525  20.206   6.186  1.00  0.00    -0.006 C
HETATM    9  C11 UNL     1       9.264  20.836   7.554  1.00  0.00     0.019 C
HETATM   10  C12 UNL     1       9.090  18.810   6.268  1.00  0.00     0.013 C
HETATM   11  C13 UNL     1      10.012  17.671   6.170  1.00  0.00     0.007 C
HETATM   12  C14 UNL     1      11.451  17.802   6.658  1.00  0.00    -0.001 C
HETATM   13  C23 UNL     1      12.309  18.716   5.832  1.00  0.00    -0.014 C
HETATM   14  C24 UNL     1      11.682  18.321   4.398  1.00  0.00     0.018 C
ENDROOT
BRANCH  12  15
HETATM   15  C15 UNL     1      11.521  17.385   8.030  1.00  0.00    -0.014 C
HETATM   16  C16 UNL     1      12.511  17.859   9.023  1.00  0.00     0.010 C
BRANCH  15  17
HETATM   17  C17 UNL     1      11.778  15.844   8.091  1.00  0.00     0.008 C
BRANCH  17  18
HETATM   18  C18 UNL     1      10.877  15.084   8.977  1.00  0.00     0.028 C
BRANCH  18  19
HETATM   19  C19 UNL     1       9.500  15.620   9.137  1.00  0.00    -0.025 C
HETATM   20  C20 UNL     1       8.430  14.878   9.306  1.00  0.00    -0.091 C
HETATM   21  C21 UNL     1       8.579  13.399   9.344  1.00  0.00     0.042 C
HETATM   22  C22 UNL     1       7.079  15.458   9.462  1.00  0.00     0.042 C
ENDBRANCH  18  19
ENDBRANCH  17  18
ENDBRANCH  15  17
ENDBRANCH  12  15
BRANCH  13  23
HETATM   23  C25 UNL     1      13.632  18.114   5.598  1.00  0.00     0.053 C
HETATM   24  C26 UNL     1      14.703  18.121   6.659  1.00  0.00     0.018 C
BRANCH  23  25
HETATM   25  C27 UNL     1      13.666  16.677   5.212  1.00  0.00     0.236 C
HETATM   26  O5  UNL     1      14.513  15.886   5.563  1.00  0.00    -0.306 OA
ENDBRANCH  23  25
ENDBRANCH  13  23
BRANCH   1  27
HETATM   27  C2  UNL     1      12.905  20.905   4.858  1.00  0.00     0.268 C
HETATM   28  O2  UNL     1      12.755  20.989   3.621  1.00  0.00    -0.264 OA
BRANCH  27  29
HETATM   29  O1  UNL     1      14.033  21.661   5.255  1.00  0.00    -0.326 OA
HETATM   30  C1  UNL     1      15.344  21.407   4.866  1.00  0.00     0.213 C
ENDBRANCH  27  29
ENDBRANCH   1  27
BRANCH   6  31
HETATM   31  O4  UNL     1       8.121  20.122   4.202  1.00  0.00    -0.387 OA
ATOM     32  H4  UNL     1       7.514  20.631   3.678  1.00  0.00     0.210 HD
ENDBRANCH   6  31
BRANCH   5  33
HETATM   33  O3  UNL     1       9.251  22.134   3.356  1.00  0.00    -0.393 OA
ATOM     34  H3  UNL     1       9.821  22.844   3.087  1.00  0.00     0.210 HD
ENDBRANCH   5  33
TORSDOF 10
ENDMDL