MODEL 2
REMARK VINA RESULT: -6.647547614      3.432      8.855
REMARK  11 active torsions:
REMARK  status: ('A' for Active; 'I' for Inactive)
REMARK    1  A    between atoms: C2_2  and  C3_3
REMARK    2  A    between atoms: C10_10  and  C11_11
REMARK    3  A    between atoms: C11_11  and  O1_12
REMARK    4  A    between atoms: N1_14  and  O2_16
REMARK    5  A    between atoms: C12_18  and  N2_19
REMARK       I    between atoms: N2_19  and  C13_21
REMARK    6  A    between atoms: C13_21  and  C14_23
REMARK    7  A    between atoms: C14_23  and  C15_24
REMARK    8  A    between atoms: C15_24  and  C16_25
REMARK    9  A    between atoms: C16_25  and  O5_27
REMARK   10  A    between atoms: O5_27  and  C17_28
REMARK   11  A    between atoms: N3_31  and  C20_32
ROOT
HETATM    1  C3  UNL     1      14.825  10.205   6.196  1.00  0.00     0.009 C
HETATM    2  C4  UNL     1      16.233   9.710   6.355  1.00  0.00     0.016 C
HETATM    3  C5  UNL     1      16.936  10.239   7.577  1.00  0.00    -0.039 C
HETATM    4  C6  UNL     1      17.374  11.671   7.496  1.00  0.00     0.010 C
HETATM    5  C7  UNL     1      18.694  11.170   6.947  1.00  0.00     0.002 C
HETATM    6  C8  UNL     1      18.395   9.848   7.664  1.00  0.00     0.010 C
HETATM    7  C9  UNL     1      16.124   9.961   8.791  1.00  0.00     0.024 C
HETATM    8  C10 UNL     1      14.871   9.129   8.417  1.00  0.00     0.086 C
HETATM    9  C12 UNL     1      14.031   9.899   7.470  1.00  0.00     0.100 C
ENDROOT
BRANCH   9  10
HETATM   10  N2  UNL     1      13.361  11.016   8.036  1.00  0.00    -0.355 N
HETATM   11  C13 UNL     1      13.482  12.370   7.651  1.00  0.00     0.218 C
HETATM   12  O3  UNL     1      14.252  12.751   6.741  1.00  0.00    -0.274 OA
ATOM     13  H2  UNL     1      12.720  10.819   8.804  1.00  0.00     0.162 HD
BRANCH  11  14
HETATM   14  C14 UNL     1      12.672  13.413   8.325  1.00  0.00     0.112 C
BRANCH  14  15
HETATM   15  C15 UNL     1      12.827  14.769   7.685  1.00  0.00     0.120 C
BRANCH  15  16
HETATM   16  C16 UNL     1      11.580  15.571   7.855  1.00  0.00     0.259 C
HETATM   17  O4  UNL     1      11.327  16.452   7.026  1.00  0.00    -0.265 OA
BRANCH  16  18
HETATM   18  O5  UNL     1      10.739  15.301   8.937  1.00  0.00    -0.316 OA
BRANCH  18  19
HETATM   19  C17 UNL     1       9.421  14.794   8.791  1.00  0.00     0.135 C
HETATM   20  C18 UNL     1       8.446  15.883   9.018  1.00  0.00     0.052 C
HETATM   21  C19 UNL     1       7.114  15.508   9.583  1.00  0.00     0.119 C
HETATM   22  N3  UNL     1       6.946  14.130   9.854  1.00  0.00    -0.409 N
HETATM   23  C23 UNL     1       8.051  13.497  10.464  1.00  0.00     0.119 C
HETATM   24  C24 UNL     1       9.331  13.599   9.688  1.00  0.00     0.052 C
BRANCH  22  25
HETATM   25  C20 UNL     1       6.105  13.383   8.997  1.00  0.00     0.070 C
HETATM   26  C21 UNL     1       4.660  13.653   9.351  1.00  0.00     0.031 C
HETATM   27  C22 UNL     1       6.329  11.903   9.020  1.00  0.00     0.031 C
ENDBRANCH  22  25
ENDBRANCH  18  19
ENDBRANCH  16  18
ENDBRANCH  15  16
ENDBRANCH  14  15
ENDBRANCH  11  14
ENDBRANCH   9  10
BRANCH   1  28
HETATM   28  C2  UNL     1      14.232   9.506   4.990  1.00  0.00     0.002 C
HETATM   29  C1  UNL     1      15.202   8.747   4.160  1.00  0.00     0.005 C
ENDBRANCH   1  28
BRANCH   8  30
HETATM   30  C11 UNL     1      14.212   8.708   9.669  1.00  0.00     0.141 C
HETATM   31  N1  UNL     1      14.499   7.538  10.129  1.00  0.00    -0.251 N
ATOM     32  H1  UNL     1      14.060   7.218  10.992  1.00  0.00     0.196 HD
BRANCH  30  33
HETATM   33  O1  UNL     1      13.309   9.479  10.383  1.00  0.00    -0.348 OA
ATOM     34  H1  UNL     1      12.749   9.152  11.078  1.00  0.00     0.219 HD
ENDBRANCH  30  33
BRANCH  31  35
HETATM   35  O2  UNL     1      15.387   6.711   9.474  1.00  0.00    -0.288 OA
ATOM     36  H2  UNL     1      15.489   5.800   9.724  1.00  0.00     0.244 HD
ENDBRANCH  31  35
ENDBRANCH   8  30
TORSDOF 11
ENDMDL