MODEL 5
REMARK VINA RESULT: -6.131587291      5.143      7.608
REMARK  13 active torsions:
REMARK  status: ('A' for Active; 'I' for Inactive)
REMARK    1  A    between atoms: C3_3  and  C4_4
REMARK    2  A    between atoms: C4_4  and  C5_5
REMARK    3  A    between atoms: C4_4  and  O2_10
REMARK    4  A    between atoms: C5_5  and  C6_6
REMARK    5  A    between atoms: C6_6  and  O1_7
REMARK    6  A    between atoms: O2_10  and  C7_11
REMARK    7  A    between atoms: C7_11  and  C8_13
REMARK    8  A    between atoms: C8_13  and  C9_14
REMARK    9  A    between atoms: C9_14  and  C10_15
REMARK   10  A    between atoms: C10_15  and  O4_16
REMARK   11  A    between atoms: C10_15  and  C11_18
REMARK   12  A    between atoms: C11_18  and  O5_19
REMARK   13  A    between atoms: C16_25  and  C17_26
ROOT
HETATM    1  C11 UNL     1      12.747  16.439   7.450  1.00  0.00     0.092 C
HETATM    2  C12 UNL     1      12.586  15.220   6.564  1.00  0.00     0.042 C
HETATM    3  C13 UNL     1      12.306  14.089   7.557  1.00  0.00     0.012 C
HETATM    4  C14 UNL     1      11.884  14.803   8.814  1.00  0.00     0.020 C
HETATM    5  C15 UNL     1      10.757  14.131   9.444  1.00  0.00    -0.018 C
HETATM    6  C16 UNL     1       9.523  14.378   9.050  1.00  0.00    -0.075 C
HETATM    7  C21 UNL     1       9.308  15.341   7.962  1.00  0.00     0.039 C
HETATM    8  C22 UNL     1      10.257  16.486   7.902  1.00  0.00    -0.003 C
HETATM    9  C23 UNL     1       9.566  17.664   8.600  1.00  0.00     0.011 C
HETATM   10  C24 UNL     1      11.616  16.234   8.420  1.00  0.00    -0.000 C
HETATM   11  C25 UNL     1      11.903  17.083   9.641  1.00  0.00     0.019 C
ENDROOT
BRANCH   1  12
HETATM   12  C10 UNL     1      12.790  17.718   6.735  1.00  0.00     0.153 C
BRANCH  12  13
HETATM   13  C9  UNL     1      12.772  17.674   5.247  1.00  0.00     0.044 C
BRANCH  13  14
HETATM   14  C8  UNL     1      11.768  18.534   4.562  1.00  0.00     0.114 C
BRANCH  14  15
HETATM   15  C7  UNL     1      10.407  17.934   4.580  1.00  0.00     0.259 C
HETATM   16  O3  UNL     1      10.266  16.745   4.211  1.00  0.00    -0.265 OA
BRANCH  15  17
HETATM   17  O2  UNL     1       9.341  18.678   4.995  1.00  0.00    -0.312 OA
BRANCH  17  18
HETATM   18  C4  UNL     1       9.373  20.090   5.132  1.00  0.00     0.161 C
BRANCH  18  19
HETATM   19  C3  UNL     1       8.685  20.523   6.385  1.00  0.00     0.001 C
HETATM   20  C2  UNL     1       9.357  20.995   7.404  1.00  0.00    -0.032 C
HETATM   21  C1  UNL     1      10.824  21.155   7.449  1.00  0.00     0.036 C
ENDBRANCH  18  19
BRANCH  18  22
HETATM   22  C5  UNL     1       8.628  20.696   3.965  1.00  0.00     0.113 C
BRANCH  22  23
HETATM   23  C6  UNL     1       9.567  21.409   3.079  1.00  0.00     0.112 C
HETATM   24  S1  UNL     1      10.842  22.225   3.684  1.00  0.00    -0.058 SA
BRANCH  23  25
HETATM   25  O1  UNL     1       9.387  21.403   1.705  1.00  0.00    -0.354 OA
ATOM     26  H1  UNL     1       8.546  21.174   1.327  1.00  0.00     0.218 HD
ENDBRANCH  23  25
ENDBRANCH  22  23
ENDBRANCH  18  22
ENDBRANCH  17  18
ENDBRANCH  15  17
ENDBRANCH  14  15
ENDBRANCH  13  14
ENDBRANCH  12  13
BRANCH  12  27
HETATM   27  O4  UNL     1      13.922  18.452   7.142  1.00  0.00    -0.393 OA
ATOM     28  H4  UNL     1      14.555  18.441   6.434  1.00  0.00     0.210 HD
ENDBRANCH  12  27
ENDBRANCH   1  12
BRANCH   1  29
HETATM   29  O5  UNL     1      13.920  16.213   8.181  1.00  0.00    -0.386 OA
ATOM     30  H5  UNL     1      14.567  15.741   7.671  1.00  0.00     0.210 HD
ENDBRANCH   1  29
BRANCH   6  31
HETATM   31  C17 UNL     1       8.406  13.663   9.730  1.00  0.00    -0.028 C
HETATM   32  C18 UNL     1       7.760  12.685   8.805  1.00  0.00     0.019 C
HETATM   33  C19 UNL     1       7.368  14.635  10.251  1.00  0.00     0.019 C
HETATM   34  C20 UNL     1       8.919  12.880  10.938  1.00  0.00     0.019 C
ENDBRANCH   6  31
TORSDOF 13
ENDMDL