MODEL 2
REMARK VINA RESULT: -5.186544377      2.230      4.057
REMARK  2 active torsions:
REMARK  status: ('A' for Active; 'I' for Inactive)
REMARK    1  A    between atoms: N1_1  and  N2_4
REMARK    2  A    between atoms: N2_4  and  C1_6
ROOT
HETATM    1  C1  UNL     1     -14.441 -35.412  94.912  1.00  0.00     0.141 C
HETATM    2  C2  UNL     1     -14.116 -34.309  95.561  1.00  0.00     0.121 A
HETATM    3  N3  UNL     1     -13.032 -33.483  95.154  1.00  0.00    -0.313 N
ATOM      4  H3  UNL     1     -12.483 -33.743  94.335  1.00  0.00     0.169 HD
HETATM    5  C3  UNL     1     -12.703 -32.301  95.869  1.00  0.00     0.314 A
HETATM    6  O1  UNL     1     -11.731 -31.582  95.486  1.00  0.00    -0.262 OA
HETATM    7  C4  UNL     1     -13.447 -31.872  97.045  1.00  0.00     0.316 A
HETATM    8  O2  UNL     1     -13.128 -30.811  97.661  1.00  0.00    -0.262 OA
HETATM    9  N4  UNL     1     -14.535 -32.687  97.464  1.00  0.00    -0.284 N
ATOM     10  H4  UNL     1     -15.081 -32.419  98.282  1.00  0.00     0.172 HD
HETATM   11  C5  UNL     1     -14.866 -33.869  96.751  1.00  0.00     0.276 A
HETATM   12  O3  UNL     1     -15.836 -34.613  97.108  1.00  0.00    -0.266 OA
ENDROOT
BRANCH   1  13
HETATM   13  N2  UNL     1     -13.675 -35.769  93.778  1.00  0.00    -0.316 N
ATOM     14  H2  UNL     1     -13.606 -35.098  93.013  1.00  0.00     0.185 HD
BRANCH  13  15
HETATM   15  N1  UNL     1     -13.005 -36.992  93.646  1.00  0.00    -0.345 N
ATOM     16  H12 UNL     1     -13.365 -37.780  94.184  1.00  0.00     0.176 HD
ATOM     17  H11 UNL     1     -12.190 -37.130  93.048  1.00  0.00     0.176 HD
ENDBRANCH  13  15
ENDBRANCH   1  13
TORSDOF 2
ENDMDL