MODEL 5
REMARK VINA RESULT: -5.419767708      2.466      3.780
REMARK  2 active torsions:
REMARK  status: ('A' for Active; 'I' for Inactive)
REMARK    1  A    between atoms: N2_4  and  N3_6
REMARK    2  A    between atoms: C2_13  and  N6_14
REMARK       I    between atoms: N6_14  and  C3_16
ROOT
HETATM    1  N3  UNL     1     -12.947 -31.611  96.316  1.00  0.00    -0.015 N
HETATM    2  C1  UNL     1     -12.127 -31.228  97.314  1.00  0.00     0.376 A
HETATM    3  O1  UNL     1     -10.867 -31.235  97.286  1.00  0.00    -0.243 OA
HETATM    4  N4  UNL     1     -12.898 -30.835  98.341  1.00  0.00    -0.235 N
ATOM      5  H4  UNL     1     -12.544 -30.492  99.235  1.00  0.00     0.192 HD
HETATM    6  N5  UNL     1     -14.175 -30.955  98.036  1.00  0.00    -0.126 N
ATOM      7  H5  UNL     1     -14.975 -30.731  98.628  1.00  0.00     0.206 HD
HETATM    8  C2  UNL     1     -14.203 -31.434  96.783  1.00  0.00     0.726 A
ENDROOT
BRANCH   8   9
HETATM    9  N6  UNL     1     -15.259 -31.694  96.111  1.00  0.00    -0.160 N
HETATM   10  C3  UNL     1     -16.512 -31.111  96.290  1.00  0.00     0.200 C
HETATM   11  N7  UNL     1     -17.037 -30.269  95.435  1.00  0.00    -0.373 N
HETATM   12  N8  UNL     1     -17.263 -31.437  97.451  1.00  0.00    -0.063 NA
ATOM     13  H72 UNL     1     -16.498 -30.035  94.601  1.00  0.00     0.158 HD
ATOM     14  H71 UNL     1     -17.955 -29.843  95.566  1.00  0.00     0.158 HD
ATOM     15  H6  UNL     1     -15.177 -32.393  95.374  1.00  0.00     0.187 HD
ENDBRANCH   8   9
BRANCH   1  16
HETATM   16  N2  UNL     1     -12.625 -32.092  95.057  1.00  0.00    -0.224 N
HETATM   17  N1  UNL     1     -11.434 -32.033  94.667  1.00  0.00    -0.330 N
ATOM     18  H12 UNL     1     -10.724 -31.633  95.281  1.00  0.00     0.178 HD
ATOM     19  H11 UNL     1     -11.197 -32.388  93.740  1.00  0.00     0.178 HD
ATOM     20  H2  UNL     1     -13.347 -32.489  94.455  1.00  0.00     0.209 HD
ENDBRANCH   1  16
TORSDOF 2
ENDMDL