MODEL 1
REMARK VINA RESULT: -6.154943464      0.000      0.000
REMARK  2 active torsions:
REMARK  status: ('A' for Active; 'I' for Inactive)
REMARK    1  A    between atoms: N3_4  and  N4_6
REMARK       I    between atoms: N4_6  and  C2_7
REMARK       I    between atoms: C2_7  and  N5_9
REMARK    2  A    between atoms: N5_9  and  C3_11
ROOT
HETATM    1  N4  UNL     1     -13.236 -33.106  96.025  1.00  0.00    -0.262 NA
HETATM    2  C2  UNL     1     -14.331 -33.827  95.574  1.00  0.00     0.430 C
HETATM    3  O1  UNL     1     -15.406 -33.420  95.088  1.00  0.00    -0.227 OA
HETATM    4  N5  UNL     1     -14.225 -35.279  95.680  1.00  0.00    -0.125 N
ATOM      5  H5  UNL     1     -13.887 -35.701  96.546  1.00  0.00     0.190 HD
ENDROOT
BRANCH   4   6
HETATM    6  C3  UNL     1     -14.550 -36.017  94.706  1.00  0.00     0.718 A
HETATM    7  N6  UNL     1     -15.847 -36.060  94.270  1.00  0.00    -0.115 N
HETATM    8  N7  UNL     1     -15.864 -36.897  93.265  1.00  0.00    -0.213 N
ATOM      9  H6  UNL     1     -16.640 -35.544  94.653  1.00  0.00     0.207 HD
HETATM   10  N8  UNL     1     -14.661 -37.378  93.048  1.00  0.00    -0.213 N
ATOM     11  H7  UNL     1     -16.694 -37.142  92.725  1.00  0.00     0.210 HD
HETATM   12  N9  UNL     1     -13.853 -36.838  93.931  1.00  0.00    -0.115 N
ATOM     13  H8  UNL     1     -14.401 -38.049  92.325  1.00  0.00     0.210 HD
ATOM     14  H9  UNL     1     -12.852 -37.020  94.009  1.00  0.00     0.207 HD
ENDBRANCH   4   6
BRANCH   1  15
HETATM   15  N3  UNL     1     -12.256 -32.461  96.429  1.00  0.00    -0.204 N
HETATM   16  C1  UNL     1     -11.871 -31.471  97.132  1.00  0.00     0.226 C
HETATM   17  N1  UNL     1     -12.879 -30.708  97.771  1.00  0.00    -0.065 NA
HETATM   18  N2  UNL     1     -10.487 -31.158  97.267  1.00  0.00    -0.065 NA
ATOM     19  H3  UNL     1     -11.421 -32.902  96.041  1.00  0.00     0.204 HD
ENDBRANCH   1  15
TORSDOF 2
ENDMDL