MODEL 3
REMARK VINA RESULT: -5.070945962      2.174      3.512
REMARK  2 active torsions:
REMARK  status: ('A' for Active; 'I' for Inactive)
REMARK       I    between atoms: C1_2  and  N2_4
REMARK    1  A    between atoms: N2_4  and  C2_5
REMARK    2  A    between atoms: C2_5  and  N3_6
ROOT
HETATM    1  C2  UNL     1     -14.400 -32.549  96.487  1.00  0.00     0.419 C
HETATM    2  C3  UNL     1     -13.983 -31.661  97.649  1.00  0.00     0.317 C
HETATM    3  O2  UNL     1     -14.419 -31.777  98.814  1.00  0.00    -0.265 OA
HETATM    4  N4  UNL     1     -13.051 -30.710  97.208  1.00  0.00    -0.262 N
ATOM      5  H4  UNL     1     -12.790 -29.856  97.702  1.00  0.00     0.190 HD
HETATM    6  N5  UNL     1     -12.531 -31.137  95.957  1.00  0.00    -0.262 N
ATOM      7  H5  UNL     1     -11.838 -30.650  95.390  1.00  0.00     0.190 HD
HETATM    8  C4  UNL     1     -13.157 -32.364  95.647  1.00  0.00     0.317 C
HETATM    9  O3  UNL     1     -12.769 -33.192  94.807  1.00  0.00    -0.265 OA
ENDROOT
BRANCH   1  10
HETATM   10  N2  UNL     1     -14.612 -33.850  96.854  1.00  0.00    -0.339 NA
HETATM   11  C1  UNL     1     -14.822 -35.144  97.218  1.00  0.00     0.404 C
HETATM   12  N1  UNL     1     -15.767 -36.000  96.534  1.00  0.00    -0.025 NA
HETATM   13  O1  UNL     1     -14.238 -35.756  98.173  1.00  0.00    -0.234 OA
ENDBRANCH   1  10
BRANCH   1  14
HETATM   14  N3  UNL     1     -15.500 -31.793  95.909  1.00  0.00    -0.022 N
ATOM     15  H33 UNL     1     -16.295 -32.418  95.779  1.00  0.00     0.279 HD
ATOM     16  H32 UNL     1     -15.864 -31.153  96.613  1.00  0.00     0.279 HD
ATOM     17  H31 UNL     1     -15.343 -31.276  95.044  1.00  0.00     0.279 HD
ENDBRANCH   1  14
TORSDOF 2
ENDMDL