MODEL 1
REMARK VINA RESULT: -5.217416128      0.000      0.000
REMARK  3 active torsions:
REMARK  status: ('A' for Active; 'I' for Inactive)
REMARK    1  A    between atoms: N1_1  and  N2_4
REMARK       I    between atoms: N2_4  and  C1_6
REMARK    2  A    between atoms: C1_6  and  C2_8
REMARK       I    between atoms: C2_8  and  N3_10
REMARK    3  A    between atoms: N3_10  and  N4_12
REMARK       I    between atoms: N4_12  and  C3_14
ROOT
HETATM    1  C2  UNL     1     -14.482 -34.185  95.235  1.00  0.00     0.329 C
HETATM    2  O2  UNL     1     -15.370 -33.276  95.265  1.00  0.00    -0.261 OA
HETATM    3  N3  UNL     1     -13.267 -34.085  95.925  1.00  0.00    -0.258 N
ATOM      4  H3  UNL     1     -12.605 -34.858  95.853  1.00  0.00     0.190 HD
ENDROOT
BRANCH   1   5
HETATM    5  C1  UNL     1     -14.780 -35.377  94.433  1.00  0.00     0.329 C
HETATM    6  N2  UNL     1     -13.750 -36.274  94.021  1.00  0.00    -0.268 N
ATOM      7  H2  UNL     1     -12.776 -36.109  94.275  1.00  0.00     0.190 HD
HETATM    8  O1  UNL     1     -15.992 -35.592  94.109  1.00  0.00    -0.261 OA
BRANCH   6   9
HETATM    9  N1  UNL     1     -14.120 -37.383  93.260  1.00  0.00    -0.342 N
ATOM     10  H12 UNL     1     -14.072 -38.319  93.662  1.00  0.00     0.176 HD
ATOM     11  H11 UNL     1     -14.434 -37.220  92.303  1.00  0.00     0.176 HD
ENDBRANCH   6   9
ENDBRANCH   1   5
BRANCH   3  12
HETATM   12  N4  UNL     1     -12.913 -32.984  96.706  1.00  0.00    -0.251 N
HETATM   13  C3  UNL     1     -12.197 -31.879  96.170  1.00  0.00     0.347 C
HETATM   14  N5  UNL     1     -11.844 -30.770  96.968  1.00  0.00    -0.038 NA
HETATM   15  O3  UNL     1     -11.884 -31.928  94.930  1.00  0.00    -0.249 OA
ATOM     16  H4  UNL     1     -13.176 -32.972  97.691  1.00  0.00     0.191 HD
ENDBRANCH   3  12
TORSDOF 3
ENDMDL