MODEL 4
REMARK VINA RESULT: -6.114670106      1.064      2.462
REMARK  2 active torsions:
REMARK  status: ('A' for Active; 'I' for Inactive)
REMARK       I    between atoms: C1_4  and  N3_6
REMARK    1  A    between atoms: N3_6  and  N4_8
REMARK    2  A    between atoms: N4_8  and  C2_10
ROOT
HETATM    1  C2  UNL     1     -13.655 -33.179  96.036  1.00  0.00     0.705 A
HETATM    2  N5  UNL     1     -14.877 -32.804  96.453  1.00  0.00    -0.139 N
ATOM      3  H5  UNL     1     -15.710 -33.326  96.183  1.00  0.00     0.189 HD
HETATM    4  C3  UNL     1     -14.962 -31.715  97.237  1.00  0.00     0.342 A
HETATM    5  O1  UNL     1     -16.100 -31.322  97.656  1.00  0.00    -0.246 OA
HETATM    6  N6  UNL     1     -13.907 -30.997  97.620  1.00  0.00    -0.260 N
ATOM      7  H6  UNL     1     -14.021 -30.178  98.216  1.00  0.00     0.175 HD
HETATM    8  C4  UNL     1     -12.693 -31.382  97.199  1.00  0.00     0.342 A
HETATM    9  O2  UNL     1     -11.661 -30.739  97.530  1.00  0.00    -0.246 OA
HETATM   10  N7  UNL     1     -12.564 -32.463  96.413  1.00  0.00    -0.139 N
ATOM     11  H7  UNL     1     -11.638 -32.749  96.096  1.00  0.00     0.189 HD
ENDROOT
BRANCH   1  12
HETATM   12  N4  UNL     1     -13.539 -34.221  95.281  1.00  0.00    -0.129 N
ATOM     13  H4  UNL     1     -12.629 -34.484  94.903  1.00  0.00     0.205 HD
BRANCH  12  14
HETATM   14  N3  UNL     1     -14.668 -34.982  94.990  1.00  0.00    -0.260 N
HETATM   15  C1  UNL     1     -14.847 -36.175  95.772  1.00  0.00     0.201 C
HETATM   16  N1  UNL     1     -14.310 -37.258  95.333  1.00  0.00    -0.372 N
HETATM   17  N2  UNL     1     -15.598 -36.091  96.971  1.00  0.00    -0.062 NA
ATOM     18  H12 UNL     1     -14.437 -38.104  95.888  1.00  0.00     0.158 HD
ATOM     19  H11 UNL     1     -13.770 -37.318  94.470  1.00  0.00     0.158 HD
ATOM     20  H3  UNL     1     -15.330 -34.708  94.263  1.00  0.00     0.190 HD
ENDBRANCH  12  14
ENDBRANCH   1  12
TORSDOF 2
ENDMDL