MODEL 5
REMARK VINA RESULT: -4.564250128      1.079      2.959
REMARK  0 active torsions:
REMARK  status: ('A' for Active; 'I' for Inactive)
ROOT
HETATM    1  N1  UNL     1     -11.305 -30.554  96.675  1.00  0.00    -0.233 N
ATOM      2  H11 UNL     1     -11.495 -29.682  97.169  1.00  0.00     0.174 HD
ATOM      3  H12 UNL     1     -10.418 -30.976  96.403  1.00  0.00     0.174 HD
HETATM    4  C1  UNL     1     -12.347 -31.240  96.339  1.00  0.00     0.692 C
HETATM    5  N2  UNL     1     -12.081 -32.460  95.649  1.00  0.00    -0.116 N
ATOM      6  H2  UNL     1     -11.100 -32.720  95.748  1.00  0.00     0.203 HD
HETATM    7  N3  UNL     1     -12.761 -33.403  94.880  1.00  0.00    -0.005 NA
HETATM    8  N4  UNL     1     -13.739 -34.098  95.600  1.00  0.00    -0.246 N
ATOM      9  H4  UNL     1     -13.518 -35.089  95.701  1.00  0.00     0.187 HD
HETATM   10  C2  UNL     1     -14.984 -33.747  96.232  1.00  0.00     0.314 C
HETATM   11  O1  UNL     1     -15.755 -34.714  96.448  1.00  0.00    -0.262 OA
HETATM   12  C3  UNL     1     -15.525 -32.454  96.673  1.00  0.00     0.308 C
HETATM   13  O2  UNL     1     -16.747 -32.494  96.947  1.00  0.00    -0.276 OA
HETATM   14  C4  UNL     1     -14.939 -31.128  96.862  1.00  0.00     0.315 C
HETATM   15  O3  UNL     1     -15.741 -30.235  97.208  1.00  0.00    -0.263 OA
HETATM   16  N5  UNL     1     -13.590 -30.650  96.720  1.00  0.00    -0.152 N
ATOM     17  H5  UNL     1     -13.500 -29.659  96.944  1.00  0.00     0.187 HD
ENDROOT
TORSDOF 0
ENDMDL