MODEL 1
REMARK VINA RESULT: -5.806173968      0.000      0.000
REMARK  2 active torsions:
REMARK  status: ('A' for Active; 'I' for Inactive)
REMARK       I    between atoms: N2_3  and  C2_5
REMARK    1  A    between atoms: N4_7  and  N5_9
REMARK       I    between atoms: N5_9  and  C3_11
REMARK    2  A    between atoms: N7_13  and  N8_15
ROOT
HETATM    1  N1  UNL     1     -17.222 -30.066  95.148  1.00  0.00    -0.172 NA
HETATM    2  C1  UNL     1     -16.933 -30.606  96.138  1.00  0.00     0.184 C
HETATM    3  N2  UNL     1     -16.601 -31.268  97.322  1.00  0.00    -0.266 N
ATOM      4  H2  UNL     1     -17.315 -31.486  98.018  1.00  0.00     0.180 HD
HETATM    5  C2  UNL     1     -15.241 -31.630  97.532  1.00  0.00     0.216 C
HETATM    6  N3  UNL     1     -14.813 -32.995  97.493  1.00  0.00    -0.061 NA
HETATM    7  N4  UNL     1     -14.432 -30.644  97.759  1.00  0.00    -0.271 N
ATOM      8  H4  UNL     1     -14.755 -29.677  97.784  1.00  0.00     0.189 HD
ENDROOT
BRANCH   7   9
HETATM    9  N5  UNL     1     -13.092 -30.981  97.968  1.00  0.00    -0.270 N
HETATM   10  C3  UNL     1     -12.214 -31.219  96.880  1.00  0.00     0.221 C
HETATM   11  N6  UNL     1     -10.844 -30.927  97.075  1.00  0.00    -0.061 NA
HETATM   12  N7  UNL     1     -12.624 -31.685  95.744  1.00  0.00    -0.279 N
ATOM     13  H7  UNL     1     -13.612 -31.896  95.604  1.00  0.00     0.189 HD
ATOM     14  H5  UNL     1     -12.739 -31.056  98.923  1.00  0.00     0.189 HD
BRANCH  12  15
HETATM   15  N8  UNL     1     -11.714 -31.897  94.715  1.00  0.00    -0.343 N
ATOM     16  H82 UNL     1     -11.972 -32.515  93.945  1.00  0.00     0.176 HD
ATOM     17  H81 UNL     1     -10.804 -31.437  94.739  1.00  0.00     0.176 HD
ENDBRANCH  12  15
ENDBRANCH   7   9
TORSDOF 2
ENDMDL