MODEL 3
REMARK VINA RESULT: -5.437246053      1.438      2.908
REMARK  0 active torsions:
REMARK  status: ('A' for Active; 'I' for Inactive)
REMARK       I    between atoms: N5_13  and  C3_14
ROOT
HETATM    1  N1  UNL     1     -13.683 -31.054  98.369  1.00  0.00    -0.379 N
ATOM      2  H11 UNL     1     -14.669 -31.030  98.628  1.00  0.00     0.158 HD
ATOM      3  H12 UNL     1     -13.026 -30.749  99.087  1.00  0.00     0.158 HD
HETATM    4  C1  UNL     1     -13.281 -31.444  97.209  1.00  0.00     0.197 C
HETATM    5  C2  UNL     1     -11.870 -31.478  96.840  1.00  0.00     0.306 C
HETATM    6  O1  UNL     1     -11.010 -31.118  97.669  1.00  0.00    -0.262 OA
HETATM    7  N2  UNL     1     -11.581 -31.930  95.530  1.00  0.00    -0.247 N
ATOM      8  H2  UNL     1     -10.705 -31.670  95.077  1.00  0.00     0.192 HD
HETATM    9  N3  UNL     1     -12.489 -32.719  94.879  1.00  0.00    -0.225 N
ATOM     10  H3  UNL     1     -12.194 -33.533  94.339  1.00  0.00     0.210 HD
HETATM   11  N4  UNL     1     -13.798 -32.375  94.981  1.00  0.00    -0.216 N
ATOM     12  H4  UNL     1     -14.449 -32.482  94.202  1.00  0.00     0.210 HD
HETATM   13  N5  UNL     1     -14.196 -31.870  96.209  1.00  0.00    -0.170 N
HETATM   14  C3  UNL     1     -15.588 -31.762  96.505  1.00  0.00     0.357 C
HETATM   15  N6  UNL     1     -16.067 -31.252  97.744  1.00  0.00    -0.038 NA
HETATM   16  O2  UNL     1     -16.453 -32.120  95.664  1.00  0.00    -0.248 OA
ENDROOT
TORSDOF 0
ENDMDL