MODEL 1
REMARK VINA RESULT: -5.918406216      0.000      0.000
REMARK  2 active torsions:
REMARK  status: ('A' for Active; 'I' for Inactive)
REMARK    1  A    between atoms: C2_2  and  C3_3
REMARK       I    between atoms: C3_3  and  N1_5
REMARK    2  A    between atoms: N1_5  and  N2_7
ROOT
HETATM    1  C1  UNL     1     -14.262 -34.275  97.040  1.00  0.00     0.071 C
HETATM    2  C2  UNL     1     -14.323 -32.790  96.807  1.00  0.00     0.204 C
HETATM    3  N3  UNL     1     -14.717 -32.129  98.004  1.00  0.00    -0.095 NA
HETATM    4  N4  UNL     1     -15.427 -30.982  97.641  1.00  0.00    -0.253 N
ATOM      5  H4  UNL     1     -15.493 -30.112  98.170  1.00  0.00     0.187 HD
HETATM    6  C4  UNL     1     -16.040 -31.267  96.388  1.00  0.00     0.333 C
HETATM    7  O2  UNL     1     -16.969 -30.621  95.807  1.00  0.00    -0.246 OA
HETATM    8  N5  UNL     1     -15.404 -32.440  95.888  1.00  0.00    -0.309 N
ATOM      9  H5  UNL     1     -15.658 -32.945  95.040  1.00  0.00     0.167 HD
ENDROOT
BRANCH   2  10
HETATM   10  C3  UNL     1     -13.017 -32.348  96.282  1.00  0.00     0.282 C
HETATM   11  O1  UNL     1     -12.818 -32.411  95.050  1.00  0.00    -0.267 OA
HETATM   12  N1  UNL     1     -11.983 -31.858  97.125  1.00  0.00    -0.273 N
ATOM     13  H1  UNL     1     -12.143 -31.805  98.130  1.00  0.00     0.189 HD
BRANCH  12  14
HETATM   14  N2  UNL     1     -10.753 -31.446  96.607  1.00  0.00    -0.343 N
ATOM     15  H22 UNL     1      -9.916 -31.608  97.167  1.00  0.00     0.176 HD
ATOM     16  H21 UNL     1     -10.681 -30.994  95.695  1.00  0.00     0.176 HD
ENDBRANCH  12  14
ENDBRANCH   2  10
TORSDOF 2
ENDMDL