MODEL 4
REMARK VINA RESULT: -5.508690045      2.380      2.914
REMARK  4 active torsions:
REMARK  status: ('A' for Active; 'I' for Inactive)
REMARK       I    between atoms: C1_4  and  N2_5
REMARK       I    between atoms: C1_4  and  N5_14
REMARK       I    between atoms: N2_5  and  C2_7
REMARK       I    between atoms: C2_7  and  N3_9
REMARK    1  A    between atoms: N3_9  and  N4_11
REMARK    2  A    between atoms: N4_11  and  O2_12
REMARK    3  A    between atoms: N5_14  and  S1_16
REMARK    4  A    between atoms: S1_16  and  N6_17
ROOT
HETATM    1  N1  UNL     1     -15.728 -35.719  96.242  1.00  0.00    -0.234 N
ATOM      2  H11 UNL     1     -16.041 -36.474  95.631  1.00  0.00     0.174 HD
ATOM      3  H12 UNL     1     -16.036 -35.540  97.198  1.00  0.00     0.174 HD
HETATM    4  C1  UNL     1     -14.830 -34.864  95.785  1.00  0.00     0.690 C
HETATM    5  N2  UNL     1     -14.405 -33.836  96.618  1.00  0.00    -0.140 N
ATOM      6  H2  UNL     1     -14.785 -33.760  97.561  1.00  0.00     0.189 HD
HETATM    7  C2  UNL     1     -13.449 -32.893  96.170  1.00  0.00     0.351 C
HETATM    8  O1  UNL     1     -12.953 -32.941  95.028  1.00  0.00    -0.245 OA
HETATM    9  N3  UNL     1     -13.028 -31.851  97.036  1.00  0.00    -0.229 N
ATOM     10  H3  UNL     1     -13.423 -31.800  97.976  1.00  0.00     0.189 HD
HETATM   11  N5  UNL     1     -14.406 -35.111  94.468  1.00  0.00    -0.100 N
ATOM     12  H5  UNL     1     -13.411 -35.237  94.283  1.00  0.00     0.199 HD
ENDROOT
BRANCH  11  13
HETATM   13  S1  UNL     1     -15.518 -35.206  93.164  1.00  0.00     0.330 S
HETATM   14  O3  UNL     1     -16.860 -34.765  93.641  1.00  0.00    -0.182 OA
HETATM   15  O4  UNL     1     -15.076 -34.360  92.000  1.00  0.00    -0.182 OA
BRANCH  13  16
HETATM   16  N6  UNL     1     -15.666 -36.832  92.590  1.00  0.00    -0.311 N
ATOM     17  H62 UNL     1     -15.442 -37.652  93.153  1.00  0.00     0.170 HD
ATOM     18  H61 UNL     1     -16.004 -36.852  91.628  1.00  0.00     0.170 HD
ENDBRANCH  13  16
ENDBRANCH  11  13
BRANCH   9  19
HETATM   19  N4  UNL     1     -12.087 -30.887  96.641  1.00  0.00     0.022 NA
BRANCH  19  20
HETATM   20  O2  UNL     1     -10.849 -31.460  96.711  1.00  0.00    -0.277 OA
ATOM     21  H2  UNL     1     -10.208 -30.761  96.756  1.00  0.00     0.240 HD
ENDBRANCH  19  20
ENDBRANCH   9  19
TORSDOF 4
ENDMDL