MODEL 2
REMARK VINA RESULT: -6.698227848      2.367      4.661
REMARK  4 active torsions:
REMARK  status: ('A' for Active; 'I' for Inactive)
REMARK    1  A    between atoms: O1_2  and  N1_3
REMARK    2  A    between atoms: N1_3  and  N2_5
REMARK    3  A    between atoms: C3_12  and  N6_13
REMARK       I    between atoms: N6_13  and  C4_15
REMARK       I    between atoms: C4_15  and  N8_19
REMARK    4  A    between atoms: N8_19  and  N9_21
ROOT
HETATM    1  N6  UNL     1     -13.279 -33.321  95.513  1.00  0.00    -0.169 N
ATOM      2  H6  UNL     1     -12.976 -34.289  95.630  1.00  0.00     0.186 HD
HETATM    3  C4  UNL     1     -12.298 -32.328  95.343  1.00  0.00     0.693 C
HETATM    4  N7  UNL     1     -11.902 -32.005  94.169  1.00  0.00    -0.233 N
ATOM      5  H71 UNL     1     -11.191 -31.284  94.045  1.00  0.00     0.174 HD
ATOM      6  H72 UNL     1     -12.314 -32.479  93.365  1.00  0.00     0.174 HD
HETATM    7  N8  UNL     1     -11.725 -31.669  96.458  1.00  0.00    -0.118 N
ATOM      8  H8  UNL     1     -12.321 -31.456  97.258  1.00  0.00     0.207 HD
ENDROOT
BRANCH   1   9
HETATM    9  C3  UNL     1     -14.549 -33.064  95.528  1.00  0.00     0.206 A
HETATM   10  N2  UNL     1     -15.419 -33.452  94.546  1.00  0.00    -0.141 N
HETATM   11  N3  UNL     1     -16.593 -33.005  94.930  1.00  0.00    -0.217 N
HETATM   12  N4  UNL     1     -16.520 -32.363  96.081  1.00  0.00    -0.268 N
ATOM     13  H3  UNL     1     -17.455 -33.137  94.402  1.00  0.00     0.210 HD
HETATM   14  C2  UNL     1     -15.223 -32.374  96.510  1.00  0.00     0.180 A
ATOM     15  H4  UNL     1     -17.304 -31.930  96.570  1.00  0.00     0.190 HD
HETATM   16  N5  UNL     1     -14.718 -31.791  97.706  1.00  0.00    -0.077 NA
BRANCH  10  17
HETATM   17  N1  UNL     1     -15.050 -34.167  93.416  1.00  0.00    -0.184 N
ATOM     18  H1  UNL     1     -15.530 -33.966  92.539  1.00  0.00     0.218 HD
BRANCH  17  19
HETATM   19  O1  UNL     1     -14.088 -35.117  93.416  1.00  0.00    -0.268 OA
HETATM   20  C1  UNL     1     -14.575 -36.400  93.368  1.00  0.00     0.239 C
ENDBRANCH  17  19
ENDBRANCH  10  17
ENDBRANCH   1   9
BRANCH   7  21
HETATM   21  N9  UNL     1     -10.380 -31.301  96.509  1.00  0.00    -0.235 N
HETATM   22  N10 UNL     1      -9.466 -32.068  96.964  1.00  0.00    -0.330 N
ATOM     23 2H10 UNL     1      -9.748 -32.988  97.302  1.00  0.00     0.178 HD
ATOM     24 1H10 UNL     1      -8.482 -31.799  97.001  1.00  0.00     0.178 HD
ATOM     25  H9  UNL     1     -10.115 -30.378  96.167  1.00  0.00     0.208 HD
ENDBRANCH   7  21
TORSDOF 4
ENDMDL