MODEL 2
REMARK VINA RESULT: -5.854276593      1.835      2.823
REMARK  4 active torsions:
REMARK  status: ('A' for Active; 'I' for Inactive)
REMARK    1  A    between atoms: N1_1  and  C1_4
REMARK    2  A    between atoms: N5_14  and  C4_16
REMARK    3  A    between atoms: C4_16  and  C5_17
REMARK    4  A    between atoms: C4_16  and  C6_19
ROOT
HETATM    1  C1  UNL     1     -14.925 -35.107  95.484  1.00  0.00     0.149 A
HETATM    2  N2  UNL     1     -15.726 -36.180  95.215  1.00  0.00    -0.291 N
ATOM      3  H2  UNL     1     -15.590 -37.038  95.751  1.00  0.00     0.172 HD
HETATM    4  C2  UNL     1     -16.684 -36.155  94.279  1.00  0.00     0.340 A
HETATM    5  O1  UNL     1     -17.430 -37.130  94.018  1.00  0.00    -0.245 OA
HETATM    6  N3  UNL     1     -16.833 -35.006  93.594  1.00  0.00    -0.250 N
ATOM      7  H3  UNL     1     -17.550 -34.945  92.872  1.00  0.00     0.192 HD
HETATM    8  N4  UNL     1     -16.078 -33.969  93.835  1.00  0.00    -0.279 N
ATOM      9  H4  UNL     1     -16.238 -33.126  93.284  1.00  0.00     0.189 HD
HETATM   10  C3  UNL     1     -15.079 -33.937  94.784  1.00  0.00     0.161 A
HETATM   11  N5  UNL     1     -14.423 -32.873  94.918  1.00  0.00    -0.354 N
ATOM     12  H5  UNL     1     -14.713 -32.127  94.285  1.00  0.00     0.162 HD
ENDROOT
BRANCH   1  13
HETATM   13  N1  UNL     1     -14.028 -35.213  96.400  1.00  0.00    -0.382 N
ATOM     14  H12 UNL     1     -14.257 -35.607  97.312  1.00  0.00     0.157 HD
ATOM     15  H11 UNL     1     -13.079 -34.897  96.202  1.00  0.00     0.157 HD
ENDBRANCH   1  13
BRANCH  11  16
HETATM   16  C4  UNL     1     -13.367 -32.516  95.773  1.00  0.00     0.234 C
BRANCH  16  17
HETATM   17  C5  UNL     1     -12.251 -31.810  95.048  1.00  0.00     0.265 C
HETATM   18  O2  UNL     1     -11.896 -32.276  93.994  1.00  0.00    -0.304 OA
ENDBRANCH  16  17
BRANCH  16  19
HETATM   19  C6  UNL     1     -13.808 -31.549  96.832  1.00  0.00     0.260 C
HETATM   20  N6  UNL     1     -15.163 -31.513  97.214  1.00  0.00    -0.060 NA
HETATM   21  O3  UNL     1     -13.001 -30.777  97.380  1.00  0.00    -0.274 OA
ENDBRANCH  16  19
ENDBRANCH  11  16
TORSDOF 4
ENDMDL