MODEL 3
REMARK VINA RESULT: -5.331307015      1.814      3.918
REMARK  5 active torsions:
REMARK  status: ('A' for Active; 'I' for Inactive)
REMARK    1  A    between atoms: C1_4  and  N2_5
REMARK    2  A    between atoms: N2_5  and  C2_7
REMARK    3  A    between atoms: C2_7  and  N3_8
REMARK    4  A    between atoms: C3_12  and  N4_13
REMARK    5  A    between atoms: C3_12  and  C4_17
ROOT
HETATM    1  C2  UNL     1     -14.631 -34.379  95.331  1.00  0.00     0.378 C
HETATM    2  C3  UNL     1     -14.069 -32.960  95.249  1.00  0.00     0.350 C
HETATM    3  N6  UNL     1     -14.975 -32.660  94.176  1.00  0.00    -0.269 N
ATOM      4  H6  UNL     1     -14.921 -32.077  93.341  1.00  0.00     0.175 HD
HETATM    5  S1  UNL     1     -16.165 -33.653  94.842  1.00  0.00     0.288 S
HETATM    6  O2  UNL     1     -16.959 -33.098  95.973  1.00  0.00    -0.201 OA
HETATM    7  O3  UNL     1     -16.967 -34.457  93.832  1.00  0.00    -0.201 OA
ENDROOT
BRANCH   1   8
HETATM    8  N2  UNL     1     -14.556 -35.079  96.524  1.00  0.00    -0.336 N
ATOM      9  H2  UNL     1     -14.504 -34.545  97.392  1.00  0.00     0.163 HD
BRANCH   8  10
HETATM   10  C1  UNL     1     -14.545 -36.521  96.609  1.00  0.00     0.171 C
HETATM   11  N1  UNL     1     -13.513 -37.104  97.016  1.00  0.00    -0.395 N
ATOM     12  H12 UNL     1     -12.698 -36.552  97.281  1.00  0.00     0.156 HD
ATOM     13  H11 UNL     1     -13.506 -38.122  97.075  1.00  0.00     0.156 HD
ENDBRANCH   8  10
ENDBRANCH   1   8
BRANCH   1  14
HETATM   14  N3  UNL     1     -13.982 -35.123  94.229  1.00  0.00    -0.031 N
ATOM     15  H33 UNL     1     -12.966 -35.074  94.293  1.00  0.00     0.278 HD
ATOM     16  H32 UNL     1     -14.097 -36.130  94.340  1.00  0.00     0.278 HD
ATOM     17  H31 UNL     1     -14.317 -34.806  93.320  1.00  0.00     0.278 HD
ENDBRANCH   1  14
BRANCH   2  18
HETATM   18  N4  UNL     1     -12.658 -32.996  94.966  1.00  0.00    -0.038 N
ATOM     19  H43 UNL     1     -12.098 -32.903  95.813  1.00  0.00     0.278 HD
ATOM     20  H42 UNL     1     -12.350 -33.926  94.683  1.00  0.00     0.278 HD
ATOM     21  H41 UNL     1     -12.417 -32.288  94.271  1.00  0.00     0.278 HD
ENDBRANCH   2  18
BRANCH   2  22
HETATM   22  C4  UNL     1     -14.273 -32.083  96.399  1.00  0.00     0.294 C
HETATM   23  N5  UNL     1     -14.493 -30.710  96.125  1.00  0.00    -0.058 NA
HETATM   24  O1  UNL     1     -14.290 -32.492  97.579  1.00  0.00    -0.272 OA
ENDBRANCH   2  22
TORSDOF 5
ENDMDL