MODEL 4
REMARK VINA RESULT: -5.942085185      2.000      5.915
REMARK  5 active torsions:
REMARK  status: ('A' for Active; 'I' for Inactive)
REMARK       I    between atoms: N1_3  and  C3_5
REMARK       I    between atoms: C3_5  and  N6_20
REMARK    1  A    between atoms: N2_6  and  N3_8
REMARK       I    between atoms: N3_8  and  C4_10
REMARK    2  A    between atoms: C4_10  and  C5_12
REMARK    3  A    between atoms: C5_12  and  N4_13
REMARK    4  A    between atoms: C5_12  and  C6_17
REMARK    5  A    between atoms: N6_20  and  N7_22
ROOT
HETATM    1  C1  UNL     1     -16.566 -31.110  96.677  1.00  0.00     0.037 C
HETATM    2  C2  UNL     1     -15.863 -32.069  96.503  1.00  0.00     0.015 C
HETATM    3  N1  UNL     1     -15.021 -33.175  96.307  1.00  0.00    -0.147 N
ATOM      4  H1  UNL     1     -15.238 -34.076  96.733  1.00  0.00     0.195 HD
HETATM    5  C3  UNL     1     -13.858 -33.012  95.499  1.00  0.00     0.718 C
HETATM    6  N2  UNL     1     -13.429 -33.925  94.693  1.00  0.00    -0.128 N
ATOM      7  H2  UNL     1     -12.587 -33.727  94.151  1.00  0.00     0.205 HD
HETATM    8  N6  UNL     1     -13.160 -31.781  95.607  1.00  0.00    -0.137 N
ATOM      9  H6  UNL     1     -13.633 -30.919  95.338  1.00  0.00     0.205 HD
ENDROOT
BRANCH   6  10
HETATM   10  N3  UNL     1     -14.036 -35.151  94.518  1.00  0.00    -0.253 N
HETATM   11  C4  UNL     1     -14.891 -35.330  93.397  1.00  0.00     0.276 C
HETATM   12  O1  UNL     1     -15.107 -34.405  92.566  1.00  0.00    -0.269 OA
ATOM     13  H3  UNL     1     -13.874 -35.912  95.178  1.00  0.00     0.190 HD
BRANCH  11  14
HETATM   14  C5  UNL     1     -15.597 -36.624  93.117  1.00  0.00     0.364 C
BRANCH  14  15
HETATM   15  N4  UNL     1     -16.967 -36.590  93.525  1.00  0.00    -0.058 N
ATOM     16  H43 UNL     1     -17.245 -35.649  93.807  1.00  0.00     0.275 HD
ATOM     17  H42 UNL     1     -17.592 -36.710  92.728  1.00  0.00     0.275 HD
ATOM     18  H41 UNL     1     -17.168 -37.270  94.258  1.00  0.00     0.275 HD
ENDBRANCH  14  15
BRANCH  14  19
HETATM   19  C6  UNL     1     -14.911 -37.695  93.858  1.00  0.00     0.271 C
HETATM   20  N5  UNL     1     -13.715 -38.246  93.365  1.00  0.00    -0.060 NA
HETATM   21  O2  UNL     1     -15.394 -38.113  94.925  1.00  0.00    -0.274 OA
ENDBRANCH  14  19
ENDBRANCH  11  14
ENDBRANCH   6  10
BRANCH   8  22
HETATM   22  N7  UNL     1     -11.860 -31.716  96.066  1.00  0.00    -0.331 N
ATOM     23  H72 UNL     1     -11.121 -31.535  95.386  1.00  0.00     0.177 HD
ATOM     24  H71 UNL     1     -11.627 -31.842  97.051  1.00  0.00     0.177 HD
ENDBRANCH   8  22
TORSDOF 5
ENDMDL