MODEL 3
REMARK VINA RESULT: -6.646568030      1.798      3.102
REMARK  2 active torsions:
REMARK  status: ('A' for Active; 'I' for Inactive)
REMARK    1  A    between atoms: N2_3  and  N3_5
REMARK       I    between atoms: N3_5  and  C2_7
REMARK       I    between atoms: C2_7  and  N4_8
REMARK    2  A    between atoms: N5_11  and  N6_13
ROOT
HETATM    1  N6  UNL     1     -13.735 -34.629  95.660  1.00  0.00    -0.117 N
ATOM      2  H6  UNL     1     -12.774 -34.836  95.384  1.00  0.00     0.206 HD
HETATM    3  C3  UNL     1     -13.918 -33.454  96.091  1.00  0.00     0.705 A
HETATM    4  N7  UNL     1     -12.805 -32.649  96.125  1.00  0.00    -0.139 N
ATOM      5  H7  UNL     1     -11.894 -32.990  95.817  1.00  0.00     0.189 HD
HETATM    6  C4  UNL     1     -12.964 -31.404  96.576  1.00  0.00     0.342 A
HETATM    7  O1  UNL     1     -11.951 -30.628  96.626  1.00  0.00    -0.246 OA
HETATM    8  N8  UNL     1     -14.125 -30.890  96.995  1.00  0.00    -0.260 N
ATOM      9  H8  UNL     1     -14.204 -29.931  97.334  1.00  0.00     0.175 HD
HETATM   10  C5  UNL     1     -15.205 -31.738  96.939  1.00  0.00     0.342 A
HETATM   11  O2  UNL     1     -16.300 -31.290  97.317  1.00  0.00    -0.246 OA
HETATM   12  N9  UNL     1     -15.103 -32.998  96.495  1.00  0.00    -0.139 N
ATOM     13  H9  UNL     1     -15.925 -33.603  96.466  1.00  0.00     0.189 HD
ENDROOT
BRANCH   1  14
HETATM   14  N5  UNL     1     -14.578 -35.633  95.508  1.00  0.00    -0.117 N
HETATM   15  C2  UNL     1     -14.623 -36.717  96.160  1.00  0.00     0.705 C
HETATM   16  N3  UNL     1     -15.708 -37.629  95.728  1.00  0.00    -0.131 N
HETATM   17  N4  UNL     1     -13.693 -37.192  97.040  1.00  0.00    -0.232 N
ATOM     18  H3  UNL     1     -16.386 -38.071  96.349  1.00  0.00     0.205 HD
ATOM     19  H42 UNL     1     -13.730 -38.065  97.566  1.00  0.00     0.174 HD
ATOM     20  H41 UNL     1     -12.947 -36.565  97.337  1.00  0.00     0.174 HD
ATOM     21  H5  UNL     1     -15.279 -35.522  94.776  1.00  0.00     0.206 HD
BRANCH  16  22
HETATM   22  N2  UNL     1     -15.661 -37.789  94.351  1.00  0.00    -0.284 N
HETATM   23  C1  UNL     1     -15.207 -38.663  93.624  1.00  0.00     0.207 C
HETATM   24  N1  UNL     1     -15.337 -38.509  92.198  1.00  0.00    -0.095 NA
ATOM     25  H2  UNL     1     -16.093 -37.021  93.839  1.00  0.00     0.187 HD
ENDBRANCH  16  22
ENDBRANCH   1  14
TORSDOF 2
ENDMDL