MODEL 5
REMARK VINA RESULT: -6.135860615      0.933      1.019
REMARK  5 active torsions:
REMARK  status: ('A' for Active; 'I' for Inactive)
REMARK    1  A    between atoms: N1_1  and  N2_4
REMARK       I    between atoms: N2_4  and  C1_6
REMARK    2  A    between atoms: C1_6  and  C2_8
REMARK    3  A    between atoms: C2_8  and  N3_9
REMARK    4  A    between atoms: C2_8  and  C5_20
REMARK    5  A    between atoms: N3_9  and  C3_11
ROOT
HETATM    1  C2  UNL     1     -15.001 -35.279  94.669  1.00  0.00     0.282 C
ENDROOT
BRANCH   1   2
HETATM    2  C1  UNL     1     -14.405 -36.624  94.438  1.00  0.00     0.267 C
HETATM    3  N2  UNL     1     -13.649 -36.917  93.284  1.00  0.00    -0.274 N
ATOM      4  H2  UNL     1     -13.504 -36.189  92.584  1.00  0.00     0.189 HD
HETATM    5  O1  UNL     1     -14.572 -37.539  95.285  1.00  0.00    -0.269 OA
BRANCH   3   6
HETATM    6  N1  UNL     1     -13.099 -38.174  93.078  1.00  0.00    -0.343 N
ATOM      7  H12 UNL     1     -12.777 -38.700  93.890  1.00  0.00     0.176 HD
ATOM      8  H11 UNL     1     -13.014 -38.573  92.142  1.00  0.00     0.176 HD
ENDBRANCH   3   6
ENDBRANCH   1   2
BRANCH   1   9
HETATM    9  N3  UNL     1     -14.064 -34.273  94.266  1.00  0.00    -0.203 N
ATOM     10  H3  UNL     1     -13.562 -34.388  93.384  1.00  0.00     0.179 HD
BRANCH   9  11
HETATM   11  C3  UNL     1     -13.836 -33.231  94.979  1.00  0.00     0.698 A
HETATM   12  N4  UNL     1     -14.694 -32.228  95.220  1.00  0.00    -0.128 N
HETATM   13  N5  UNL     1     -14.063 -31.367  95.993  1.00  0.00    -0.237 N
ATOM     14  H4  UNL     1     -15.650 -32.147  94.872  1.00  0.00     0.205 HD
HETATM   15  C4  UNL     1     -12.804 -31.810  96.249  1.00  0.00     0.353 A
ATOM     16  H5  UNL     1     -14.461 -30.496  96.347  1.00  0.00     0.192 HD
HETATM   17  O2  UNL     1     -11.998 -31.172  96.961  1.00  0.00    -0.245 OA
HETATM   18  N6  UNL     1     -12.678 -32.977  95.608  1.00  0.00    -0.139 N
ATOM     19  H6  UNL     1     -11.848 -33.570  95.599  1.00  0.00     0.189 HD
ENDBRANCH   9  11
ENDBRANCH   1   9
BRANCH   1  20
HETATM   20  C5  UNL     1     -16.261 -35.071  93.931  1.00  0.00     0.263 C
HETATM   21  N7  UNL     1     -16.691 -35.980  92.936  1.00  0.00    -0.060 NA
HETATM   22  O3  UNL     1     -16.957 -34.064  94.201  1.00  0.00    -0.274 OA
ENDBRANCH   1  20
TORSDOF 5
ENDMDL