MODEL 3
REMARK VINA RESULT: -6.089638078      1.996      2.413
REMARK  2 active torsions:
REMARK  status: ('A' for Active; 'I' for Inactive)
REMARK    1  A    between atoms: C3_9  and  C4_10
REMARK    2  A    between atoms: C5_15  and  N6_16
ROOT
HETATM    1  C1  UNL     1     -16.789 -35.757  95.395  1.00  0.00     0.197 C
HETATM    2  N1  UNL     1     -15.825 -34.710  95.662  1.00  0.00    -0.126 N
HETATM    3  N2  UNL     1     -16.250 -33.459  95.656  1.00  0.00    -0.268 N
ATOM      4  H2  UNL     1     -17.233 -33.267  95.464  1.00  0.00     0.189 HD
HETATM    5  C2  UNL     1     -15.413 -32.430  95.897  1.00  0.00     0.147 A
HETATM    6  N3  UNL     1     -15.749 -31.203  95.907  1.00  0.00    -0.382 N
ATOM      7  H31 UNL     1     -15.116 -30.424  96.090  1.00  0.00     0.157 HD
ATOM      8  H32 UNL     1     -16.726 -30.976  95.720  1.00  0.00     0.157 HD
HETATM    9  C3  UNL     1     -14.085 -32.738  96.151  1.00  0.00     0.158 A
HETATM   10  N5  UNL     1     -13.700 -34.024  96.146  1.00  0.00    -0.181 N
ATOM     11  H5  UNL     1     -12.721 -34.236  96.335  1.00  0.00     0.184 HD
HETATM   12  C5  UNL     1     -14.540 -35.047  95.905  1.00  0.00     0.701 A
ENDROOT
BRANCH  12  13
HETATM   13  N6  UNL     1     -14.120 -36.408  95.904  1.00  0.00    -0.164 N
HETATM   14  C6  UNL     1     -13.962 -37.115  96.949  1.00  0.00     0.215 C
HETATM   15  N7  UNL     1     -13.533 -38.473  96.797  1.00  0.00    -0.066 NA
HETATM   16  N8  UNL     1     -14.207 -36.565  98.234  1.00  0.00    -0.066 NA
ATOM     17  H6  UNL     1     -13.933 -36.845  95.002  1.00  0.00     0.186 HD
ENDBRANCH  12  13
BRANCH   9  18
HETATM   18  C4  UNL     1     -13.140 -31.665  96.417  1.00  0.00     0.285 C
HETATM   19  N4  UNL     1     -12.242 -31.180  95.432  1.00  0.00    -0.056 NA
HETATM   20  O1  UNL     1     -13.130 -31.159  97.564  1.00  0.00    -0.269 OA
ENDBRANCH   9  18
TORSDOF 2
ENDMDL