MODEL 3
REMARK VINA RESULT: -6.222272017      1.775      1.877
REMARK  4 active torsions:
REMARK  status: ('A' for Active; 'I' for Inactive)
REMARK    1  A    between atoms: C2_2  and  N1_3
REMARK    2  A    between atoms: C2_2  and  C3_7
REMARK       I    between atoms: C3_7  and  N2_9
REMARK    3  A    between atoms: N5_17  and  N6_19
REMARK    4  A    between atoms: N6_19  and  N7_21
ROOT
HETATM    1  C3  UNL     1     -13.706 -33.096  95.502  1.00  0.00     0.253 C
HETATM    2  O1  UNL     1     -12.978 -32.638  94.570  1.00  0.00    -0.271 OA
HETATM    3  N2  UNL     1     -13.944 -34.482  95.513  1.00  0.00    -0.307 N
ATOM      4  H2  UNL     1     -13.633 -35.040  96.309  1.00  0.00     0.170 HD
HETATM    5  C4  UNL     1     -14.549 -35.056  94.530  1.00  0.00     0.177 A
HETATM    6  N3  UNL     1     -15.034 -34.403  93.364  1.00  0.00    -0.280 N
ATOM      7  H3  UNL     1     -14.949 -33.401  93.189  1.00  0.00     0.188 HD
HETATM    8  N4  UNL     1     -15.635 -35.295  92.500  1.00  0.00    -0.279 N
ATOM      9  H4  UNL     1     -16.056 -35.061  91.600  1.00  0.00     0.189 HD
HETATM   10  C5  UNL     1     -15.568 -36.601  93.076  1.00  0.00     0.191 A
HETATM   11  N5  UNL     1     -16.021 -37.714  92.574  1.00  0.00    -0.267 N
ATOM     12  H5  UNL     1     -15.916 -38.594  93.078  1.00  0.00     0.190 HD
HETATM   13  C6  UNL     1     -14.881 -36.465  94.364  1.00  0.00     0.263 A
HETATM   14  O2  UNL     1     -14.610 -37.365  95.199  1.00  0.00    -0.280 OA
ENDROOT
BRANCH   1  15
HETATM   15  C2  UNL     1     -14.234 -32.140  96.481  1.00  0.00     0.271 C
HETATM   16  C1  UNL     1     -13.256 -31.035  96.812  1.00  0.00     0.050 C
BRANCH  15  17
HETATM   17  N1  UNL     1     -15.444 -31.499  95.947  1.00  0.00    -0.067 N
ATOM     18  H13 UNL     1     -15.960 -32.094  95.299  1.00  0.00     0.275 HD
ATOM     19  H12 UNL     1     -16.182 -31.392  96.643  1.00  0.00     0.275 HD
ATOM     20  H11 UNL     1     -15.153 -30.613  95.533  1.00  0.00     0.275 HD
ENDBRANCH  15  17
ENDBRANCH   1  15
BRANCH  11  21
HETATM   21  N6  UNL     1     -16.653 -37.676  91.331  1.00  0.00    -0.248 N
ATOM     22  H6  UNL     1     -17.294 -36.915  91.103  1.00  0.00     0.207 HD
BRANCH  21  23
HETATM   23  N7  UNL     1     -16.400 -38.687  90.401  1.00  0.00    -0.331 N
ATOM     24  H72 UNL     1     -15.903 -38.460  89.540  1.00  0.00     0.178 HD
ATOM     25  H71 UNL     1     -16.717 -39.637  90.595  1.00  0.00     0.178 HD
ENDBRANCH  21  23
ENDBRANCH  11  21
TORSDOF 4
ENDMDL