MODEL 1
REMARK VINA RESULT: -7.676208410      0.000      0.000
REMARK  8 active torsions:
REMARK  status: ('A' for Active; 'I' for Inactive)
REMARK    1  A    between atoms: N1_1  and  C1_5
REMARK    2  A    between atoms: C1_5  and  C2_6
REMARK    3  A    between atoms: C2_6  and  S1_7
REMARK    4  A    between atoms: S1_7  and  N2_10
REMARK    5  A    between atoms: N2_10  and  C3_12
REMARK    6  A    between atoms: C3_12  and  C4_13
REMARK    7  A    between atoms: C4_13  and  C5_14
REMARK    8  A    between atoms: C5_14  and  N3_15
ROOT
HETATM    1  N3  UNL     1      12.208  50.277  89.411  1.00  0.00    -0.280 N
HETATM    2  C6  UNL     1      12.259  49.151  88.706  1.00  0.00     0.261 A
HETATM    3  O3  UNL     1      12.650  48.052  89.189  1.00  0.00    -0.267 OA
HETATM    4  C7  UNL     1      11.812  49.416  87.384  1.00  0.00     0.051 A
HETATM    5  C8  UNL     1      11.667  48.423  86.444  1.00  0.00     0.022 C
HETATM    6  C9  UNL     1      11.632  48.626  85.080  1.00  0.00    -0.061 A
HETATM    7  C10 UNL     1      12.374  49.427  84.389  1.00  0.00     0.060 A
HETATM    8  C11 UNL     1      11.461  48.718  83.636  1.00  0.00     0.051 A
HETATM    9  C12 UNL     1      11.910  49.348  82.491  1.00  0.00    -0.008 A
HETATM   10  C13 UNL     1      12.797  50.022  83.311  1.00  0.00    -0.040 A
HETATM   11  C14 UNL     1      13.830  50.997  83.294  1.00  0.00    -0.003 A
HETATM   12  C15 UNL     1      14.868  50.734  82.400  1.00  0.00     0.014 A
HETATM   13  C16 UNL     1      15.962  51.564  82.287  1.00  0.00     0.001 A
HETATM   14  C17 UNL     1      15.985  52.662  83.093  1.00  0.00     0.002 A
HETATM   15  C18 UNL     1      14.970  52.921  83.965  1.00  0.00     0.030 A
HETATM   16  C19 UNL     1      13.823  52.104  84.121  1.00  0.00     0.043 A
HETATM   17  N4  UNL     1      12.888  52.532  84.960  1.00  0.00    -0.349 N
ATOM     18  H4  UNL     1      13.235  53.299  85.536  1.00  0.00     0.166 HD
HETATM   19  C20 UNL     1      11.630  52.244  85.260  1.00  0.00     0.129 A
HETATM   20  C21 UNL     1      10.337  52.619  84.837  1.00  0.00     0.275 A
HETATM   21  O4  UNL     1       9.790  53.335  83.935  1.00  0.00    -0.266 OA
HETATM   22  N5  UNL     1       9.775  51.903  85.806  1.00  0.00    -0.319 N
ATOM     23  H5  UNL     1       8.815  51.718  86.100  1.00  0.00     0.169 HD
HETATM   24  C22 UNL     1      11.014  51.514  86.249  1.00  0.00     0.084 A
HETATM   25  C23 UNL     1      11.492  50.750  87.310  1.00  0.00     0.077 A
HETATM   26  C24 UNL     1      11.755  51.257  88.623  1.00  0.00     0.264 A
HETATM   27  O5  UNL     1      11.615  52.430  89.081  1.00  0.00    -0.267 OA
ENDROOT
BRANCH   1  28
HETATM   28  C5  UNL     1      12.592  50.397  90.823  1.00  0.00     0.137 C
BRANCH  28  29
HETATM   29  C4  UNL     1      11.380  50.870  91.595  1.00  0.00     0.041 C
BRANCH  29  30
HETATM   30  C3  UNL     1      11.727  52.021  92.518  1.00  0.00     0.133 C
BRANCH  30  31
HETATM   31  N2  UNL     1      11.857  53.266  91.766  1.00  0.00    -0.319 N
ATOM     32  H2  UNL     1      11.138  53.635  91.145  1.00  0.00     0.172 HD
BRANCH  31  33
HETATM   33  S1  UNL     1      13.357  54.030  92.052  1.00  0.00     0.228 S
HETATM   34  O1  UNL     1      14.447  52.993  91.914  1.00  0.00    -0.206 OA
HETATM   35  O2  UNL     1      13.328  54.630  93.421  1.00  0.00    -0.206 OA
BRANCH  33  36
HETATM   36  C2  UNL     1      13.639  55.374  90.905  1.00  0.00     0.190 C
BRANCH  36  37
HETATM   37  C1  UNL     1      14.705  54.947  89.920  1.00  0.00     0.246 C
BRANCH  37  38
HETATM   38  N1  UNL     1      14.107  54.076  88.930  1.00  0.00    -0.078 N
ATOM     39  H13 UNL     1      13.248  53.640  89.264  1.00  0.00     0.274 HD
ATOM     40  H12 UNL     1      13.708  54.594  88.147  1.00  0.00     0.274 HD
ATOM     41  H11 UNL     1      14.800  53.390  88.630  1.00  0.00     0.274 HD
ENDBRANCH  37  38
ENDBRANCH  36  37
ENDBRANCH  33  36
ENDBRANCH  31  33
ENDBRANCH  30  31
ENDBRANCH  29  30
ENDBRANCH  28  29
ENDBRANCH   1  28
TORSDOF 8
ENDMDL