MODEL 2
REMARK VINA RESULT: -7.476732014      1.203      1.678
REMARK  9 active torsions:
REMARK  status: ('A' for Active; 'I' for Inactive)
REMARK    1  A    between atoms: C2_5  and  C3_6
REMARK    2  A    between atoms: C3_6  and  C4_7
REMARK    3  A    between atoms: C4_7  and  N2_8
REMARK    4  A    between atoms: N2_8  and  C5_10
REMARK    5  A    between atoms: C7_14  and  C8_15
REMARK       I    between atoms: C8_15  and  N4_17
REMARK    6  A    between atoms: N4_17  and  C9_19
REMARK    7  A    between atoms: C9_19  and  C10_20
REMARK    8  A    between atoms: C14_25  and  N5_26
REMARK    9  A    between atoms: N5_26  and  C15_28
ROOT
HETATM    1  C5  UNL     1      12.975  53.873  88.218  1.00  0.00     0.679 A
HETATM    2  N3  UNL     1      13.758  54.214  87.160  1.00  0.00    -0.201 N
ATOM      3  H3  UNL     1      14.486  54.918  87.283  1.00  0.00     0.183 HD
HETATM    4  C6  UNL     1      13.595  53.648  85.963  1.00  0.00     0.127 A
HETATM    5  C7  UNL     1      12.630  52.709  85.787  1.00  0.00     0.092 A
HETATM    6  C14 UNL     1      11.802  52.325  86.843  1.00  0.00     0.134 A
HETATM    7  N6  UNL     1      12.019  52.935  88.022  1.00  0.00    -0.176 N
ATOM      8  H6  UNL     1      11.429  52.676  88.813  1.00  0.00     0.186 HD
ENDROOT
BRANCH   1   9
HETATM    9  N2  UNL     1      13.171  54.441  89.325  1.00  0.00    -0.226 N
ATOM     10  H2  UNL     1      12.362  54.918  89.722  1.00  0.00     0.177 HD
BRANCH   9  11
HETATM   11  C4  UNL     1      14.370  54.512  90.101  1.00  0.00     0.140 C
BRANCH  11  12
HETATM   12  C3  UNL     1      13.997  54.997  91.505  1.00  0.00     0.045 C
BRANCH  12  13
HETATM   13  C2  UNL     1      13.475  53.904  92.388  1.00  0.00     0.088 C
HETATM   14  N1  UNL     1      14.232  52.691  92.220  1.00  0.00    -0.332 N
HETATM   15  C1  UNL     1      13.980  51.457  92.868  1.00  0.00     0.360 C
ATOM     16  H1  UNL     1      15.022  52.723  91.575  1.00  0.00     0.165 HD
HETATM   17  O1  UNL     1      14.444  50.440  92.234  1.00  0.00    -0.239 OA
HETATM   18  O5  UNL     1      13.322  51.350  94.030  1.00  0.00    -0.304 OA
HETATM   19  C24 UNL     1      12.016  51.434  94.440  1.00  0.00     0.180 C
HETATM   20  C23 UNL     1      11.667  52.664  95.235  1.00  0.00     0.027 C
HETATM   21  C22 UNL     1      11.064  53.687  94.299  1.00  0.00     0.002 C
HETATM   22  C21 UNL     1      11.996  54.840  94.153  1.00  0.00     0.002 C
HETATM   23  C20 UNL     1      13.417  54.406  93.793  1.00  0.00     0.025 C
ENDBRANCH  12  13
ENDBRANCH  11  12
ENDBRANCH   9  11
ENDBRANCH   1   9
BRANCH   6  24
HETATM   24  N5  UNL     1      10.923  51.424  86.657  1.00  0.00    -0.370 N
ATOM     25  H5  UNL     1      10.349  51.493  85.817  1.00  0.00     0.161 HD
BRANCH  24  26
HETATM   26  C15 UNL     1      10.679  50.328  87.531  1.00  0.00     0.087 C
HETATM   27  C16 UNL     1      12.020  49.686  87.824  1.00  0.00     0.051 C
HETATM   28  C17 UNL     1      12.327  49.466  89.259  1.00  0.00     0.169 C
HETATM   29  O4  UNL     1      11.828  50.485  90.082  1.00  0.00    -0.391 OA
HETATM   30  C18 UNL     1      10.428  50.298  90.050  1.00  0.00     0.169 C
HETATM   31  C19 UNL     1       9.945  50.807  88.736  1.00  0.00     0.051 C
ENDBRANCH  24  26
ENDBRANCH   6  24
BRANCH   5  32
HETATM   32  C8  UNL     1      12.322  52.073  84.477  1.00  0.00     0.260 C
HETATM   33  O2  UNL     1      11.213  52.385  84.017  1.00  0.00    -0.267 OA
HETATM   34  N4  UNL     1      13.264  51.217  83.911  1.00  0.00    -0.334 N
ATOM     35  H4  UNL     1      14.101  51.110  84.486  1.00  0.00     0.168 HD
BRANCH  34  36
HETATM   36  C9  UNL     1      13.315  50.469  82.720  1.00  0.00     0.096 C
BRANCH  36  37
HETATM   37  C10 UNL     1      14.078  51.025  81.583  1.00  0.00     0.159 C
HETATM   38  C11 UNL     1      15.397  51.711  81.934  1.00  0.00     0.039 C
HETATM   39  C12 UNL     1      16.099  51.692  80.548  1.00  0.00     0.029 C
HETATM   40  C13 UNL     1      15.343  50.585  79.854  1.00  0.00     0.168 C
HETATM   41  O3  UNL     1      14.668  49.909  80.868  1.00  0.00    -0.381 OA
ENDBRANCH  36  37
ENDBRANCH  34  36
ENDBRANCH   5  32
TORSDOF 9
ENDMDL