MODEL 3
REMARK VINA RESULT: -7.219178869      1.710      3.578
REMARK  9 active torsions:
REMARK  status: ('A' for Active; 'I' for Inactive)
REMARK    1  A    between atoms: C3_3  and  O1_4
REMARK    2  A    between atoms: C3_3  and  C5_6
REMARK    3  A    between atoms: C12_19  and  N5_20
REMARK    4  A    between atoms: C12_19  and  C13_24
REMARK    5  A    between atoms: C17_28  and  C18_29
REMARK    6  A    between atoms: C19_34  and  O2_35
REMARK    7  A    between atoms: C20_37  and  O3_38
REMARK    8  A    between atoms: O3_38  and  C21_39
REMARK    9  A    between atoms: C21_39  and  C22_40
ROOT
HETATM    1  C1  UNL     1      11.680  53.349  98.537  1.00  0.00     0.099 C
HETATM    2  C2  UNL     1      11.183  52.963  97.487  1.00  0.00    -0.155 C
HETATM    3  C3  UNL     1      10.535  52.532  96.238  1.00  0.00     0.199 C
ENDROOT
BRANCH   3   4
HETATM    4  O1  UNL     1       9.946  51.292  96.438  1.00  0.00    -0.379 OA
HETATM    5  C4  UNL     1       8.784  51.394  97.126  1.00  0.00     0.203 C
ENDBRANCH   3   4
BRANCH   3   6
HETATM    6  C5  UNL     1      11.429  52.579  95.018  1.00  0.00     0.057 C
HETATM    7  C6  UNL     1      10.945  51.420  94.156  1.00  0.00     0.022 C
HETATM    8  C7  UNL     1      11.746  50.225  93.926  1.00  0.00    -0.007 C
HETATM    9  C8  UNL     1      12.268  50.083  92.472  1.00  0.00     0.025 C
HETATM   10  C25 UNL     1      12.918  49.956  94.845  1.00  0.00     0.066 C
HETATM   11  C9  UNL     1      13.704  50.673  92.382  1.00  0.00     0.145 C
HETATM   12  N1  UNL     1      13.640  51.683  93.425  1.00  0.00    -0.185 N
HETATM   13  C10 UNL     1      13.530  53.001  92.904  1.00  0.00     0.690 C
HETATM   14  C20 UNL     1      13.647  51.300  94.802  1.00  0.00     0.153 C
HETATM   15  N2  UNL     1      14.261  53.209  91.890  1.00  0.00    -0.126 N
HETATM   16  N4  UNL     1      12.688  54.021  93.427  1.00  0.00    -0.185 N
HETATM   17  C11 UNL     1      14.300  54.443  91.225  1.00  0.00     0.196 C
ATOM     18  H2  UNL     1      14.845  52.448  91.543  1.00  0.00     0.197 HD
HETATM   19  N3  UNL     1      14.343  55.470  90.690  1.00  0.00    -0.171 NA
HETATM   20  C12 UNL     1      11.509  53.883  94.303  1.00  0.00     0.251 C
ATOM     21  H4  UNL     1      12.932  54.976  93.162  1.00  0.00     0.180 HD
HETATM   22  C26 UNL     1      12.764  52.179  95.656  1.00  0.00     0.079 C
BRANCH  20  23
HETATM   23  N5  UNL     1      10.487  53.813  93.143  1.00  0.00    -0.047 N
ATOM     24  H53 UNL     1       9.677  53.232  93.354  1.00  0.00     0.277 HD
ATOM     25  H52 UNL     1       9.982  54.687  92.996  1.00  0.00     0.277 HD
ATOM     26  H51 UNL     1      11.003  53.502  92.320  1.00  0.00     0.277 HD
ENDBRANCH  20  23
BRANCH  20  27
HETATM   27  C13 UNL     1      11.148  55.149  94.898  1.00  0.00     0.033 A
HETATM   28  C14 UNL     1      12.100  56.164  95.104  1.00  0.00     0.014 A
HETATM   29  C15 UNL     1      11.844  57.410  95.580  1.00  0.00     0.002 A
HETATM   30  C16 UNL     1      10.541  57.719  95.892  1.00  0.00     0.018 A
HETATM   31  C17 UNL     1       9.544  56.805  95.731  1.00  0.00     0.038 A
HETATM   32  C19 UNL     1       9.854  55.526  95.238  1.00  0.00     0.089 A
BRANCH  31  33
HETATM   33  C18 UNL     1       8.173  57.123  96.058  1.00  0.00     0.123 C
HETATM   34  N6  UNL     1       7.385  57.654  95.205  1.00  0.00    -0.387 N
ATOM     35  H62 UNL     1       7.795  57.834  94.288  1.00  0.00     0.157 HD
ATOM     36  H61 UNL     1       6.417  57.879  95.436  1.00  0.00     0.157 HD
HETATM   37  N7  UNL     1       7.597  56.871  97.345  1.00  0.00    -0.082 NA
ENDBRANCH  31  33
BRANCH  32  38
HETATM   38  O2  UNL     1       8.753  54.706  95.153  1.00  0.00    -0.359 OA
ATOM     39  H2  UNL     1       7.853  55.000  95.239  1.00  0.00     0.217 HD
ENDBRANCH  32  38
ENDBRANCH  20  27
BRANCH  14  40
HETATM   40  O3  UNL     1      14.878  51.285  95.384  1.00  0.00    -0.360 OA
BRANCH  40  41
HETATM   41  C21 UNL     1      14.941  51.720  96.678  1.00  0.00     0.175 C
BRANCH  41  42
HETATM   42  C22 UNL     1      15.929  50.814  97.427  1.00  0.00     0.009 A
HETATM   43  C23 UNL     1      17.232  51.446  97.767  1.00  0.00     0.007 A
HETATM   44  C24 UNL     1      17.149  50.398  96.723  1.00  0.00     0.007 A
ENDBRANCH  41  42
ENDBRANCH  40  41
ENDBRANCH  14  40
ENDBRANCH   3   6
TORSDOF 9
ENDMDL