MODEL 3
REMARK VINA RESULT: -5.803409877      3.018      4.664
REMARK  9 active torsions:
REMARK  status: ('A' for Active; 'I' for Inactive)
REMARK    1  A    between atoms: C4_5  and  O1_6
REMARK    2  A    between atoms: N2_8  and  S1_9
REMARK    3  A    between atoms: S1_9  and  C5_12
REMARK    4  A    between atoms: C5_12  and  C6_13
REMARK    5  A    between atoms: C6_13  and  C7_14
REMARK    6  A    between atoms: C7_14  and  C8_15
REMARK    7  A    between atoms: C8_15  and  C9_16
REMARK    8  A    between atoms: C9_16  and  C10_17
REMARK    9  A    between atoms: C10_17  and  N3_18
ROOT
HETATM    1  C1  UNL     1      10.966  46.431  88.381  1.00  0.00     0.014 C
HETATM    2  C2  UNL     1      11.362  47.266  89.547  1.00  0.00     0.032 C
HETATM    3  C3  UNL     1      12.739  47.206  90.041  1.00  0.00     0.134 C
HETATM    4  N1  UNL     1      12.583  48.622  90.373  1.00  0.00    -0.332 N
HETATM    5  C4  UNL     1      13.056  49.600  91.272  1.00  0.00     0.232 C
HETATM    6  N2  UNL     1      12.424  50.780  91.715  1.00  0.00    -0.235 N
HETATM    7  C11 UNL     1      11.672  51.705  90.880  1.00  0.00     0.197 C
HETATM    8  C12 UNL     1      10.260  51.823  91.345  1.00  0.00    -0.001 C
HETATM    9  N4  UNL     1       9.773  50.805  91.937  1.00  0.00    -0.404 N
ATOM     10  H41 UNL     1       8.807  50.886  92.255  1.00  0.00     0.155 HD
ATOM     11  H42 UNL     1      10.351  49.974  92.064  1.00  0.00     0.155 HD
HETATM   12  C13 UNL     1       9.429  53.017  91.161  1.00  0.00     0.054 C
HETATM   13  C14 UNL     1       9.912  53.977  90.137  1.00  0.00     0.006 C
HETATM   14  C15 UNL     1       8.852  54.235  89.083  1.00  0.00     0.002 C
HETATM   15  C16 UNL     1       8.195  52.989  88.587  1.00  0.00     0.020 C
HETATM   16  C17 UNL     1       8.338  52.840  87.072  1.00  0.00     0.122 C
HETATM   17  N5  UNL     1       9.698  53.078  86.662  1.00  0.00    -0.360 N
ATOM     18  H5  UNL     1       9.914  53.970  86.217  1.00  0.00     0.162 HD
HETATM   19  C18 UNL     1      10.756  52.151  86.839  1.00  0.00     0.235 C
HETATM   20  O4  UNL     1      11.928  52.665  86.854  1.00  0.00    -0.272 OA
HETATM   21  C19 UNL     1      10.548  50.683  86.999  1.00  0.00     0.225 C
HETATM   22  N6  UNL     1      11.836  50.073  87.140  1.00  0.00    -0.351 N
ATOM     23  H6  UNL     1      12.593  50.488  86.595  1.00  0.00     0.163 HD
HETATM   24  C20 UNL     1      12.183  48.959  87.949  1.00  0.00     0.241 C
HETATM   25  O5  UNL     1      13.005  48.161  87.419  1.00  0.00    -0.271 OA
HETATM   26  C21 UNL     1      11.652  48.712  89.308  1.00  0.00     0.185 C
ENDROOT
BRANCH   6  27
HETATM   27  S1  UNL     1      12.490  51.301  93.394  1.00  0.00     0.235 S
HETATM   28  O2  UNL     1      11.628  50.499  94.279  1.00  0.00    -0.205 OA
HETATM   29  O3  UNL     1      13.900  51.166  93.865  1.00  0.00    -0.205 OA
BRANCH  27  30
HETATM   30  C5  UNL     1      11.993  52.998  93.555  1.00  0.00     0.163 C
BRANCH  30  31
HETATM   31  C6  UNL     1      13.298  53.801  93.647  1.00  0.00     0.017 C
BRANCH  31  32
HETATM   32  C7  UNL     1      13.462  54.633  92.390  1.00  0.00     0.001 C
BRANCH  32  33
HETATM   33  C8  UNL     1      14.525  54.090  91.487  1.00  0.00     0.002 C
BRANCH  33  34
HETATM   34  C9  UNL     1      14.903  55.063  90.395  1.00  0.00     0.027 C
BRANCH  34  35
HETATM   35  C10 UNL     1      13.734  55.191  89.435  1.00  0.00     0.229 C
BRANCH  35  36
HETATM   36  N3  UNL     1      13.677  54.066  88.535  1.00  0.00    -0.079 N
ATOM     37  H33 UNL     1      12.875  54.126  87.907  1.00  0.00     0.274 HD
ATOM     38  H32 UNL     1      14.422  54.104  87.839  1.00  0.00     0.274 HD
ATOM     39  H31 UNL     1      13.686  53.185  89.048  1.00  0.00     0.274 HD
ENDBRANCH  35  36
ENDBRANCH  34  35
ENDBRANCH  33  34
ENDBRANCH  32  33
ENDBRANCH  31  32
ENDBRANCH  30  31
ENDBRANCH  27  30
ENDBRANCH   6  27
BRANCH   5  40
HETATM   40  O1  UNL     1      14.232  49.472  91.817  1.00  0.00    -0.332 OA
ATOM     41  H1  UNL     1      15.015  49.657  91.310  1.00  0.00     0.221 HD
ENDBRANCH   5  40
TORSDOF 9
ENDMDL