MODEL 2
REMARK VINA RESULT: -6.498946108      5.561      8.475
REMARK  11 active torsions:
REMARK  status: ('A' for Active; 'I' for Inactive)
REMARK    1  A    between atoms: C2_2  and  C3_3
REMARK    2  A    between atoms: C3_3  and  C4_4
REMARK    3  A    between atoms: C13_14  and  O1_15
REMARK    4  A    between atoms: C14_17  and  O2_18
REMARK    5  A    between atoms: C16_21  and  O3_22
REMARK    6  A    between atoms: C18_25  and  O4_26
REMARK    7  A    between atoms: C19_29  and  C20_30
REMARK    8  A    between atoms: C20_30  and  C21_31
REMARK    9  A    between atoms: C24_34  and  C25_35
REMARK   10  A    between atoms: C25_35  and  C27_37
REMARK   11  A    between atoms: C27_37  and  O6_39
ROOT
HETATM    1  C4  UNL     1      12.427  54.111  91.541  1.00  0.00     0.064 C
HETATM    2  N1  UNL     1      12.418  53.207  92.565  1.00  0.00    -0.355 N
HETATM    3  C5  UNL     1      13.495  52.306  92.763  1.00  0.00     0.099 C
HETATM    4  C6  UNL     1      13.507  52.082  94.234  1.00  0.00     0.037 C
HETATM    5  C7  UNL     1      12.427  51.436  94.947  1.00  0.00    -0.020 A
HETATM    6  C8  UNL     1      12.739  51.590  96.395  1.00  0.00     0.018 C
HETATM    7  C9  UNL     1      11.292  51.589  96.948  1.00  0.00     0.016 C
HETATM    8  C10 UNL     1      11.187  50.107  96.473  1.00  0.00     0.013 C
HETATM    9  C11 UNL     1      11.296  50.585  95.040  1.00  0.00     0.011 A
HETATM   10  C12 UNL     1      12.218  50.347  94.119  1.00  0.00     0.038 A
HETATM   11  C13 UNL     1      13.149  49.267  93.737  1.00  0.00     0.160 C
HETATM   12  C14 UNL     1      13.817  49.822  92.499  1.00  0.00     0.157 C
HETATM   13  C15 UNL     1      13.047  51.047  92.083  1.00  0.00     0.081 C
HETATM   14  C16 UNL     1      11.687  50.968  92.792  1.00  0.00     0.120 C
HETATM   15  C17 UNL     1      11.275  52.384  92.848  1.00  0.00     0.080 C
HETATM   16  C18 UNL     1      10.424  52.981  93.872  1.00  0.00     0.307 C
HETATM   17  O5  UNL     1      10.788  53.205  95.142  1.00  0.00    -0.350 OA
HETATM   18  C19 UNL     1      10.373  52.469  96.190  1.00  0.00     0.129 C
ENDROOT
BRANCH  18  19
HETATM   19  C20 UNL     1       9.842  53.512  97.205  1.00  0.00     0.037 C
BRANCH  19  20
HETATM   20  C21 UNL     1      10.843  54.490  97.650  1.00  0.00    -0.008 C
HETATM   21  C22 UNL     1      10.717  54.999  99.077  1.00  0.00     0.005 C
HETATM   22  C23 UNL     1       9.782  56.060  98.470  1.00  0.00     0.006 C
HETATM   23  C24 UNL     1      10.680  55.930  97.252  1.00  0.00    -0.004 C
BRANCH  23  24
HETATM   24  C25 UNL     1      10.123  56.302  95.954  1.00  0.00     0.014 C
HETATM   25  C26 UNL     1       8.978  57.241  95.895  1.00  0.00     0.013 C
BRANCH  24  26
HETATM   26  C27 UNL     1      11.257  56.915  95.117  1.00  0.00     0.118 C
HETATM   27  C28 UNL     1      11.978  57.981  95.870  1.00  0.00     0.040 C
BRANCH  26  28
HETATM   28  O6  UNL     1      12.164  55.912  94.774  1.00  0.00    -0.396 OA
ATOM     29  H6  UNL     1      12.981  56.059  95.236  1.00  0.00     0.210 HD
ENDBRANCH  26  28
ENDBRANCH  24  26
ENDBRANCH  23  24
ENDBRANCH  19  20
ENDBRANCH  18  19
BRANCH  16  30
HETATM   30  O4  UNL     1      10.116  54.281  93.367  1.00  0.00    -0.366 OA
ATOM     31  H4  UNL     1      10.962  54.699  93.253  1.00  0.00     0.213 HD
ENDBRANCH  16  30
BRANCH  14  32
HETATM   32  O3  UNL     1      10.819  50.106  92.159  1.00  0.00    -0.382 OA
ATOM     33  H3  UNL     1       9.934  50.452  92.164  1.00  0.00     0.211 HD
ENDBRANCH  14  32
BRANCH  11  34
HETATM   34  O1  UNL     1      12.574  48.045  93.483  1.00  0.00    -0.392 OA
ATOM     35  H1  UNL     1      12.454  47.829  92.566  1.00  0.00     0.210 HD
ENDBRANCH  11  34
BRANCH   1  36
HETATM   36  C3  UNL     1      12.333  53.688  90.114  1.00  0.00     0.044 C
BRANCH  36  37
HETATM   37  C2  UNL     1      13.477  54.298  89.316  1.00  0.00     0.001 C
HETATM   38  C1  UNL     1      14.577  54.847  90.161  1.00  0.00     0.005 C
ENDBRANCH  36  37
ENDBRANCH   1  36
BRANCH  12  39
HETATM   39  O2  UNL     1      15.166  50.037  92.662  1.00  0.00    -0.392 OA
ATOM     40  H2  UNL     1      15.704  49.382  92.232  1.00  0.00     0.210 HD
ENDBRANCH  12  39
TORSDOF 11
ENDMDL