MODEL 3
REMARK VINA RESULT: -7.286468533      1.439      2.026
REMARK  12 active torsions:
REMARK  status: ('A' for Active; 'I' for Inactive)
REMARK    1  A    between atoms: N1_2  and  C2_4
REMARK    2  A    between atoms: C3_7  and  C4_8
REMARK    3  A    between atoms: C8_12  and  C9_13
REMARK    4  A    between atoms: C9_13  and  C10_14
REMARK    5  A    between atoms: C10_14  and  C11_15
REMARK    6  A    between atoms: C11_15  and  O1_16
REMARK    7  A    between atoms: C14_20  and  N3_21
REMARK    8  A    between atoms: N3_21  and  C15_23
REMARK    9  A    between atoms: C15_23  and  C16_24
REMARK   10  A    between atoms: C16_24  and  C17_25
REMARK   11  A    between atoms: C17_25  and  C18_26
REMARK   12  A    between atoms: C18_26  and  N4_27
ROOT
HETATM    1  C2  UNL     1      11.263  52.421  85.866  1.00  0.00     0.679 A
HETATM    2  N2  UNL     1      11.976  51.992  84.794  1.00  0.00    -0.191 N
ATOM      3  H2  UNL     1      11.510  51.386  84.118  1.00  0.00     0.184 HD
HETATM    4  C3  UNL     1      13.256  52.318  84.572  1.00  0.00     0.063 A
HETATM    5  C13 UNL     1      13.873  53.135  85.485  1.00  0.00     0.079 A
HETATM    6  C14 UNL     1      13.158  53.591  86.600  1.00  0.00     0.119 A
HETATM    7  N5  UNL     1      11.880  53.220  86.752  1.00  0.00    -0.177 N
ATOM      8  H5  UNL     1      11.361  53.553  87.564  1.00  0.00     0.185 HD
ENDROOT
BRANCH   6   9
HETATM    9  N3  UNL     1      13.774  54.348  87.426  1.00  0.00    -0.376 N
ATOM     10  H3  UNL     1      14.532  54.919  87.053  1.00  0.00     0.161 HD
BRANCH   9  11
HETATM   11  C15 UNL     1      13.501  54.470  88.823  1.00  0.00     0.121 C
BRANCH  11  12
HETATM   12  C16 UNL     1      14.795  54.727  89.603  1.00  0.00     0.021 C
BRANCH  12  13
HETATM   13  C17 UNL     1      14.525  54.720  91.091  1.00  0.00     0.021 C
BRANCH  13  14
HETATM   14  C18 UNL     1      13.065  54.720  91.434  1.00  0.00     0.117 C
BRANCH  14  15
HETATM   15  N4  UNL     1      12.727  53.691  92.343  1.00  0.00    -0.408 N
HETATM   16  C19 UNL     1      11.444  53.896  92.984  1.00  0.00     0.143 C
HETATM   17  C20 UNL     1      11.504  54.556  94.310  1.00  0.00     0.187 C
HETATM   18  O2  UNL     1      11.345  53.652  95.346  1.00  0.00    -0.387 OA
HETATM   19  C21 UNL     1      11.619  54.185  96.593  1.00  0.00     0.193 C
HETATM   20  C22 UNL     1      12.269  53.240  97.544  1.00  0.00     0.193 C
HETATM   21  O3  UNL     1      11.994  51.924  97.365  1.00  0.00    -0.387 OA
HETATM   22  C23 UNL     1      12.513  51.274  96.296  1.00  0.00     0.193 C
HETATM   23  C24 UNL     1      13.856  51.709  95.819  1.00  0.00     0.193 C
HETATM   24  O4  UNL     1      14.148  51.228  94.567  1.00  0.00    -0.387 OA
HETATM   25  C25 UNL     1      13.431  51.743  93.531  1.00  0.00     0.187 C
HETATM   26  C26 UNL     1      13.728  53.192  93.205  1.00  0.00     0.143 C
ENDBRANCH  14  15
ENDBRANCH  13  14
ENDBRANCH  12  13
ENDBRANCH  11  12
ENDBRANCH   9  11
ENDBRANCH   6   9
BRANCH   4  27
HETATM   27  C4  UNL     1      13.999  51.845  83.412  1.00  0.00    -0.007 A
HETATM   28  C5  UNL     1      15.294  52.293  83.205  1.00  0.00     0.014 A
HETATM   29  C6  UNL     1      16.024  51.848  82.090  1.00  0.00     0.002 A
HETATM   30  C7  UNL     1      15.472  50.968  81.190  1.00  0.00     0.020 A
HETATM   31  C8  UNL     1      14.190  50.511  81.373  1.00  0.00     0.018 A
HETATM   32  C12 UNL     1      13.495  50.969  82.485  1.00  0.00     0.034 A
BRANCH  31  33
HETATM   33  C9  UNL     1      13.591  49.589  80.446  1.00  0.00    -0.065 C
BRANCH  33  34
HETATM   34  C10 UNL     1      13.108  48.810  79.667  1.00  0.00    -0.075 C
BRANCH  34  35
HETATM   35  C11 UNL     1      12.539  47.844  78.705  1.00  0.00     0.258 C
BRANCH  35  36
HETATM   36  O1  UNL     1      13.537  47.553  77.773  1.00  0.00    -0.389 OA
ATOM     37  H1  UNL     1      13.549  46.610  77.659  1.00  0.00     0.210 HD
ENDBRANCH  35  36
ENDBRANCH  34  35
ENDBRANCH  33  34
ENDBRANCH  31  33
ENDBRANCH   4  27
BRANCH   1  38
HETATM   38  N1  UNL     1      10.029  52.061  86.010  1.00  0.00    -0.230 N
HETATM   39  C1  UNL     1       9.056  52.837  86.722  1.00  0.00     0.165 C
ATOM     40  H1  UNL     1       9.733  51.178  85.595  1.00  0.00     0.177 HD
ENDBRANCH   1  38
TORSDOF 12
ENDMDL