MODEL 4
REMARK VINA RESULT: -7.131835197      4.494      6.909
REMARK  11 active torsions:
REMARK  status: ('A' for Active; 'I' for Inactive)
REMARK    1  A    between atoms: N1_2  and  C3_4
REMARK    2  A    between atoms: C5_6  and  N2_7
REMARK    3  A    between atoms: N2_7  and  C6_9
REMARK    4  A    between atoms: C8_15  and  N5_16
REMARK    5  A    between atoms: N5_16  and  C9_18
REMARK    6  A    between atoms: C9_18  and  C10_19
REMARK    7  A    between atoms: C10_19  and  N6_20
REMARK    8  A    between atoms: C12_27  and  C13_28
REMARK       I    between atoms: C13_28  and  N8_30
REMARK    9  A    between atoms: N8_30  and  C14_32
REMARK   10  A    between atoms: C16_36  and  C17_37
REMARK   11  A    between atoms: C18_38  and  C19_39
ROOT
HETATM    1  C3  UNL     1      11.952  55.265  95.366  1.00  0.00     0.032 A
HETATM    2  C4  UNL     1      12.220  54.180  96.154  1.00  0.00     0.059 A
HETATM    3  C5  UNL     1      12.964  53.116  95.605  1.00  0.00     0.052 A
HETATM    4  C11 UNL     1      13.397  53.201  94.292  1.00  0.00     0.047 A
HETATM    5  C12 UNL     1      13.127  54.300  93.490  1.00  0.00     0.036 A
HETATM    6  C24 UNL     1      12.400  55.313  94.067  1.00  0.00     0.046 A
ENDROOT
BRANCH   3   7
HETATM    7  N2  UNL     1      13.218  52.015  96.455  1.00  0.00    -0.191 N
ATOM      8  H2  UNL     1      12.498  51.779  97.138  1.00  0.00     0.184 HD
BRANCH   7   9
HETATM    9  C6  UNL     1      14.267  51.290  96.446  1.00  0.00     0.698 A
HETATM   10  N3  UNL     1      14.400  50.084  95.876  1.00  0.00    -0.187 N
HETATM   11  C7  UNL     1      15.527  49.357  95.892  1.00  0.00     0.215 A
ATOM     12  H3  UNL     1      13.588  49.692  95.399  1.00  0.00     0.185 HD
HETATM   13  N4  UNL     1      16.615  49.867  96.524  1.00  0.00    -0.187 N
HETATM   14  C8  UNL     1      16.540  51.078  97.115  1.00  0.00     0.693 A
ATOM     15  H4  UNL     1      17.486  49.337  96.552  1.00  0.00     0.185 HD
HETATM   16  N7  UNL     1      15.383  51.755  97.065  1.00  0.00    -0.022 N
ATOM     17  H7  UNL     1      15.340  52.669  97.516  1.00  0.00     0.203 HD
BRANCH  14  18
HETATM   18  N5  UNL     1      17.576  51.583  97.737  1.00  0.00    -0.224 N
ATOM     19  H5  UNL     1      18.063  52.395  97.357  1.00  0.00     0.177 HD
BRANCH  18  20
HETATM   20  C9  UNL     1      18.018  50.970  98.974  1.00  0.00     0.165 C
BRANCH  20  21
HETATM   21  C10 UNL     1      19.054  51.859  99.667  1.00  0.00     0.249 C
BRANCH  21  22
HETATM   22  N6  UNL     1      18.684  51.886 101.073  1.00  0.00    -0.078 N
ATOM     23  H63 UNL     1      17.684  51.765 101.233  1.00  0.00     0.274 HD
ATOM     24  H62 UNL     1      18.993  51.064 101.591  1.00  0.00     0.274 HD
ATOM     25  H61 UNL     1      19.052  52.762 101.444  1.00  0.00     0.274 HD
ENDBRANCH  21  22
ENDBRANCH  20  21
ENDBRANCH  18  20
ENDBRANCH  14  18
ENDBRANCH   7   9
ENDBRANCH   3   7
BRANCH   1  26
HETATM   26  N1  UNL     1      11.215  56.334  95.911  1.00  0.00    -0.389 N
HETATM   27  C1  UNL     1      10.138  56.076  96.819  1.00  0.00     0.149 C
HETATM   28  C2  UNL     1      11.547  57.685  95.553  1.00  0.00     0.149 C
ENDBRANCH   1  26
BRANCH   5  29
HETATM   29  C13 UNL     1      13.578  54.358  92.108  1.00  0.00     0.258 C
HETATM   30  O1  UNL     1      13.976  55.471  91.674  1.00  0.00    -0.267 OA
HETATM   31  N8  UNL     1      13.570  53.199  91.267  1.00  0.00    -0.288 N
ATOM     32  H8  UNL     1      14.270  52.461  91.341  1.00  0.00     0.172 HD
BRANCH  31  33
HETATM   33  C14 UNL     1      12.585  53.161  90.387  1.00  0.00     0.231 A
HETATM   34  N9  UNL     1      11.329  53.628  90.540  1.00  0.00    -0.329 N
HETATM   35  C15 UNL     1      10.656  53.387  89.409  1.00  0.00     0.129 A
ATOM     36  H9  UNL     1      10.957  54.085  91.372  1.00  0.00     0.168 HD
HETATM   37  C16 UNL     1      11.539  52.763  88.570  1.00  0.00     0.094 A
HETATM   38  O2  UNL     1      12.672  52.648  89.188  1.00  0.00    -0.278 OA
BRANCH  37  39
HETATM   39  C17 UNL     1      11.224  52.310  87.205  1.00  0.00     0.040 C
HETATM   40  C18 UNL     1      12.083  52.536  86.237  1.00  0.00     0.015 C
BRANCH  40  41
HETATM   41  C19 UNL     1      11.811  52.109  84.884  1.00  0.00    -0.021 A
HETATM   42  C20 UNL     1      12.719  51.359  84.271  1.00  0.00     0.014 A
HETATM   43  C21 UNL     1      12.495  50.911  82.928  1.00  0.00     0.018 A
HETATM   44  C22 UNL     1      11.352  51.272  82.329  1.00  0.00     0.087 A
HETATM   45  N10 UNL     1      10.394  52.072  82.998  1.00  0.00    -0.374 N
HETATM   46  C23 UNL     1      10.568  52.497  84.220  1.00  0.00     0.099 A
ATOM     47  H10 UNL     1       9.537  52.326  82.507  1.00  0.00     0.164 HD
ENDBRANCH  40  41
ENDBRANCH  37  39
ENDBRANCH  31  33
ENDBRANCH   5  29
TORSDOF 11
ENDMDL