MODEL 1
REMARK VINA RESULT: -7.822175965      0.000      0.000
REMARK  9 active torsions:
REMARK  status: ('A' for Active; 'I' for Inactive)
REMARK    1  A    between atoms: C7_8  and  N2_9
REMARK    2  A    between atoms: N2_9  and  C8_11
REMARK    3  A    between atoms: C11_16  and  N4_17
REMARK    4  A    between atoms: N4_17  and  C12_19
REMARK    5  A    between atoms: C12_19  and  C13_20
REMARK    6  A    between atoms: C13_20  and  N5_21
REMARK    7  A    between atoms: C18_31  and  C19_32
REMARK    8  A    between atoms: C19_32  and  C20_33
REMARK    9  A    between atoms: C20_33  and  N7_34
ROOT
HETATM    1  C1  UNL     1       8.183  51.351  87.103  1.00  0.00     0.149 C
HETATM    2  N1  UNL     1       8.313  52.601  87.796  1.00  0.00    -0.384 N
HETATM    3  C2  UNL     1       7.245  53.562  87.995  1.00  0.00     0.123 C
HETATM    4  C3  UNL     1       7.425  54.297  89.300  1.00  0.00     0.024 C
HETATM    5  C4  UNL     1       8.233  53.524  90.322  1.00  0.00     0.042 C
HETATM    6  C5  UNL     1       9.579  53.305  89.755  1.00  0.00    -0.028 A
HETATM    7  C6  UNL     1      10.721  53.482  90.437  1.00  0.00     0.039 A
HETATM    8  C7  UNL     1      11.929  53.250  89.760  1.00  0.00     0.050 A
HETATM    9  C14 UNL     1      11.924  52.860  88.442  1.00  0.00     0.046 A
HETATM   10  C15 UNL     1      10.727  52.674  87.713  1.00  0.00     0.020 A
HETATM   11  C16 UNL     1      10.832  52.289  86.342  1.00  0.00     0.045 A
HETATM   12  C17 UNL     1      11.810  51.387  85.966  1.00  0.00     0.038 A
HETATM   13  C18 UNL     1      11.970  51.012  84.669  1.00  0.00    -0.050 A
HETATM   14  C25 UNL     1      11.124  51.561  83.733  1.00  0.00     0.024 A
HETATM   15  C26 UNL     1      10.138  52.468  84.108  1.00  0.00     0.089 A
HETATM   16  N9  UNL     1      10.051  52.779  85.402  1.00  0.00    -0.365 N
ATOM     17  H9  UNL     1       9.329  53.444  85.684  1.00  0.00     0.165 HD
HETATM   18  C27 UNL     1       9.595  52.895  88.387  1.00  0.00     0.049 A
ENDROOT
BRANCH   8  19
HETATM   19  N2  UNL     1      13.133  53.437  90.493  1.00  0.00    -0.192 N
ATOM     20  H2  UNL     1      14.007  53.562  89.982  1.00  0.00     0.184 HD
BRANCH  19  21
HETATM   21  C8  UNL     1      13.157  53.454  91.777  1.00  0.00     0.684 A
HETATM   22  N3  UNL     1      13.534  52.341  92.423  1.00  0.00    -0.202 N
HETATM   23  C9  UNL     1      13.604  52.235  93.756  1.00  0.00     0.110 A
ATOM     24  H3  UNL     1      13.784  51.525  91.865  1.00  0.00     0.183 HD
HETATM   25  C10 UNL     1      13.253  53.378  94.495  1.00  0.00     0.066 A
HETATM   26  C11 UNL     1      12.862  54.527  93.857  1.00  0.00     0.118 A
HETATM   27  N6  UNL     1      12.832  54.515  92.516  1.00  0.00    -0.177 N
ATOM     28  H6  UNL     1      12.543  55.366  92.034  1.00  0.00     0.186 HD
BRANCH  26  29
HETATM   29  N4  UNL     1      12.543  55.556  94.534  1.00  0.00    -0.374 N
ATOM     30  H4  UNL     1      13.158  56.361  94.413  1.00  0.00     0.161 HD
BRANCH  29  31
HETATM   31  C12 UNL     1      11.468  55.753  95.430  1.00  0.00     0.148 C
BRANCH  31  32
HETATM   32  C13 UNL     1      11.024  57.202  95.525  1.00  0.00     0.249 C
BRANCH  32  33
HETATM   33  N5  UNL     1      12.144  58.041  95.917  1.00  0.00    -0.078 N
ATOM     34  H53 UNL     1      12.979  57.845  95.366  1.00  0.00     0.274 HD
ATOM     35  H52 UNL     1      12.007  59.014  95.641  1.00  0.00     0.274 HD
ATOM     36  H51 UNL     1      12.316  57.949  96.918  1.00  0.00     0.274 HD
ENDBRANCH  32  33
ENDBRANCH  31  32
ENDBRANCH  29  31
ENDBRANCH  26  29
ENDBRANCH  19  21
ENDBRANCH   8  19
BRANCH  13  37
HETATM   37  C19 UNL     1      12.999  50.055  84.215  1.00  0.00     0.083 C
BRANCH  37  38
HETATM   38  C20 UNL     1      13.189  49.999  82.751  1.00  0.00     0.062 C
BRANCH  38  39
HETATM   39  N7  UNL     1      13.775  51.088  82.088  1.00  0.00    -0.390 N
HETATM   40  C21 UNL     1      14.948  51.668  82.622  1.00  0.00     0.149 C
HETATM   41  C22 UNL     1      16.234  51.263  81.974  1.00  0.00     0.252 C
HETATM   42  N8  UNL     1      16.197  51.197  80.545  1.00  0.00    -0.072 N
HETATM   43  C23 UNL     1      15.100  50.362  80.147  1.00  0.00     0.252 C
ATOM     44  H82 UNL     1      16.159  52.120  80.113  1.00  0.00     0.277 HD
ATOM     45  H81 UNL     1      17.084  50.891  80.146  1.00  0.00     0.277 HD
HETATM   46  C24 UNL     1      13.815  50.951  80.672  1.00  0.00     0.149 C
ENDBRANCH  38  39
ENDBRANCH  37  38
ENDBRANCH  13  37
TORSDOF 9
ENDMDL