MODEL 5
REMARK VINA RESULT: -8.912328258      3.530      4.508
REMARK  8 active torsions:
REMARK  status: ('A' for Active; 'I' for Inactive)
REMARK    1  A    between atoms: N2_5  and  C3_6
REMARK    2  A    between atoms: C10_14  and  C11_15
REMARK    3  A    between atoms: C11_15  and  C12_16
REMARK    4  A    between atoms: C15_19  and  S1_20
REMARK    5  A    between atoms: S1_20  and  O4_23
REMARK    6  A    between atoms: O4_23  and  C16_24
REMARK    7  A    between atoms: C19_27  and  C20_28
REMARK    8  A    between atoms: N3_29  and  N4_31
REMARK       I    between atoms: N4_31  and  C21_33
ROOT
HETATM    1  C12 UNL     1      11.713  49.911  88.052  1.00  0.00    -0.035 A
HETATM    2  C13 UNL     1      11.439  50.956  88.905  1.00  0.00     0.013 A
HETATM    3  C14 UNL     1      11.909  50.916  90.193  1.00  0.00     0.027 A
HETATM    4  C15 UNL     1      12.655  49.850  90.664  1.00  0.00     0.086 A
HETATM    5  C24 UNL     1      12.927  48.807  89.811  1.00  0.00     0.027 A
HETATM    6  C25 UNL     1      12.459  48.846  88.526  1.00  0.00     0.013 A
ENDROOT
BRANCH   4   7
HETATM    7  S1  UNL     1      13.196  49.914  92.321  1.00  0.00     0.303 S
HETATM    8  O2  UNL     1      11.983  50.041  93.201  1.00  0.00    -0.193 OA
HETATM    9  O3  UNL     1      13.947  48.637  92.615  1.00  0.00    -0.193 OA
BRANCH   7  10
HETATM   10  O4  UNL     1      14.269  51.206  92.581  1.00  0.00    -0.229 OA
BRANCH  10  11
HETATM   11  C16 UNL     1      13.776  52.367  93.132  1.00  0.00     0.089 A
HETATM   12  C17 UNL     1      13.499  53.508  92.419  1.00  0.00     0.039 A
HETATM   13  C18 UNL     1      13.006  54.646  93.023  1.00  0.00     0.015 A
HETATM   14  C19 UNL     1      12.764  54.702  94.370  1.00  0.00    -0.019 A
HETATM   15  C22 UNL     1      13.044  53.545  95.108  1.00  0.00     0.015 A
HETATM   16  C23 UNL     1      13.534  52.425  94.485  1.00  0.00     0.039 A
BRANCH  14  17
HETATM   17  C20 UNL     1      12.247  55.863  95.082  1.00  0.00     0.118 C
HETATM   18  N3  UNL     1      11.072  56.253  95.227  1.00  0.00    -0.309 N
ATOM     19  H3  UNL     1      11.017  57.106  95.783  1.00  0.00     0.186 HD
BRANCH  18  20
HETATM   20  N4  UNL     1       9.855  55.825  94.829  1.00  0.00    -0.274 N
HETATM   21  C21 UNL     1       9.356  54.494  94.957  1.00  0.00     0.200 C
HETATM   22  N5  UNL     1       8.742  53.986  93.951  1.00  0.00    -0.372 N
HETATM   23  N6  UNL     1       9.509  53.722  96.133  1.00  0.00    -0.062 NA
ATOM     24  H52 UNL     1       8.632  54.542  93.103  1.00  0.00     0.158 HD
ATOM     25  H51 UNL     1       8.386  53.035  94.042  1.00  0.00     0.158 HD
ATOM     26  H4  UNL     1       9.238  56.515  94.401  1.00  0.00     0.189 HD
ENDBRANCH  18  20
ENDBRANCH  14  17
ENDBRANCH  10  11
ENDBRANCH   7  10
ENDBRANCH   4   7
BRANCH   1  27
HETATM   27  C11 UNL     1      11.253  49.963  86.675  1.00  0.00     0.030 C
BRANCH  27  28
HETATM   28  C10 UNL     1      11.667  50.714  85.692  1.00  0.00     0.062 A
HETATM   29  C2  UNL     1      11.346  51.979  85.268  1.00  0.00     0.055 A
HETATM   30  C1  UNL     1      10.473  52.804  85.792  1.00  0.00     0.045 C
HETATM   31  N1  UNL     1      12.119  52.244  84.163  1.00  0.00    -0.291 N
HETATM   32  N2  UNL     1      12.891  51.222  83.885  1.00  0.00    -0.220 N
ATOM     33  H1  UNL     1      12.095  53.115  83.632  1.00  0.00     0.187 HD
HETATM   34  C9  UNL     1      12.646  50.291  84.781  1.00  0.00     0.279 A
HETATM   35  O1  UNL     1      13.213  49.183  84.808  1.00  0.00    -0.265 OA
BRANCH  32  36
HETATM   36  C3  UNL     1      13.809  51.175  82.806  1.00  0.00     0.060 A
HETATM   37  C4  UNL     1      13.493  50.566  81.605  1.00  0.00     0.031 A
HETATM   38  C5  UNL     1      14.395  50.522  80.552  1.00  0.00     0.002 A
HETATM   39  C6  UNL     1      15.646  51.090  80.671  1.00  0.00     0.000 A
HETATM   40  C7  UNL     1      15.969  51.699  81.865  1.00  0.00     0.002 A
HETATM   41  C8  UNL     1      15.064  51.739  82.910  1.00  0.00     0.031 A
ENDBRANCH  32  36
ENDBRANCH  27  28
ENDBRANCH   1  27
TORSDOF 8
ENDMDL