MODEL 2
REMARK VINA RESULT: -7.587465594      1.966      5.625
REMARK  11 active torsions:
REMARK  status: ('A' for Active; 'I' for Inactive)
REMARK    1  A    between atoms: O1_2  and  C2_3
REMARK    2  A    between atoms: C4_5  and  N1_6
REMARK    3  A    between atoms: C11_14  and  N2_15
REMARK    4  A    between atoms: N2_15  and  C12_17
REMARK    5  A    between atoms: C13_20  and  N4_21
REMARK    6  A    between atoms: N4_21  and  C14_23
REMARK    7  A    between atoms: C14_23  and  C15_24
REMARK    8  A    between atoms: C19_31  and  N6_32
REMARK    9  A    between atoms: N6_32  and  C20_34
REMARK   10  A    between atoms: C20_34  and  C21_35
REMARK   11  A    between atoms: C25_39  and  N7_40
ROOT
HETATM    1  C12 UNL     1      11.632  50.839  87.933  1.00  0.00     0.712 A
HETATM    2  N3  UNL     1      11.885  51.841  88.805  1.00  0.00    -0.021 N
ATOM      3  H3  UNL     1      11.753  52.807  88.504  1.00  0.00     0.203 HD
HETATM    4  C13 UNL     1      12.305  51.598  90.055  1.00  0.00     0.707 A
HETATM    5  N5  UNL     1      12.473  50.295  90.427  1.00  0.00    -0.022 N
ATOM      6  H5  UNL     1      12.791  50.099  91.376  1.00  0.00     0.203 HD
HETATM    7  C19 UNL     1      12.240  49.264  89.609  1.00  0.00     0.707 A
HETATM    8  N8  UNL     1      11.817  49.566  88.358  1.00  0.00    -0.021 N
ATOM      9  H8  UNL     1      11.630  48.801  87.709  1.00  0.00     0.203 HD
ENDROOT
BRANCH   1  10
HETATM   10  N2  UNL     1      11.241  51.182  86.779  1.00  0.00    -0.188 N
ATOM     11  H2  UNL     1      10.282  51.510  86.665  1.00  0.00     0.184 HD
BRANCH  10  12
HETATM   12  C11 UNL     1      12.069  51.128  85.658  1.00  0.00     0.082 A
HETATM   13  C2  UNL     1      12.260  49.922  85.017  1.00  0.00     0.097 A
HETATM   14  C3  UNL     1      13.083  49.860  83.916  1.00  0.00     0.068 A
HETATM   15  C4  UNL     1      13.735  50.996  83.424  1.00  0.00     0.040 A
HETATM   16  C9  UNL     1      13.507  52.170  84.105  1.00  0.00     0.032 A
HETATM   17  C10 UNL     1      12.693  52.276  85.210  1.00  0.00     0.035 A
BRANCH  13  18
HETATM   18  O1  UNL     1      11.625  48.752  85.475  1.00  0.00    -0.354 OA
HETATM   19  C1  UNL     1      10.797  48.024  84.612  1.00  0.00     0.210 C
ENDBRANCH  13  18
BRANCH  15  20
HETATM   20  N1  UNL     1      14.583  50.932  82.299  1.00  0.00    -0.318 N
HETATM   21  C5  UNL     1      15.924  51.467  82.230  1.00  0.00     0.133 C
HETATM   22  C6  UNL     1      16.099  51.861  80.803  1.00  0.00     0.029 C
HETATM   23  C7  UNL     1      15.203  50.963  80.013  1.00  0.00     0.105 C
HETATM   24  C8  UNL     1      14.315  50.355  81.029  1.00  0.00     0.224 C
HETATM   25  O2  UNL     1      13.454  49.465  80.798  1.00  0.00    -0.273 OA
ENDBRANCH  15  20
ENDBRANCH  10  12
ENDBRANCH   1  10
BRANCH   4  26
HETATM   26  N4  UNL     1      12.563  52.498  90.933  1.00  0.00    -0.223 N
ATOM     27  H4  UNL     1      13.143  52.267  91.739  1.00  0.00     0.177 HD
BRANCH  26  28
HETATM   28  C14 UNL     1      12.040  53.827  90.791  1.00  0.00     0.170 C
BRANCH  28  29
HETATM   29  C15 UNL     1      13.116  54.863  91.079  1.00  0.00     0.139 C
HETATM   30  C16 UNL     1      14.457  54.249  91.285  1.00  0.00     0.035 C
HETATM   31  C17 UNL     1      15.222  54.650  90.029  1.00  0.00     0.029 C
HETATM   32  C18 UNL     1      14.083  55.131  89.128  1.00  0.00     0.168 C
HETATM   33  O3  UNL     1      13.280  55.766  90.055  1.00  0.00    -0.384 OA
ENDBRANCH  28  29
ENDBRANCH  26  28
ENDBRANCH   4  26
BRANCH   7  34
HETATM   34  N6  UNL     1      12.391  48.036  89.973  1.00  0.00    -0.225 N
ATOM     35  H6  UNL     1      12.217  47.824  90.956  1.00  0.00     0.177 HD
BRANCH  34  36
HETATM   36  C20 UNL     1      12.777  46.946  89.139  1.00  0.00     0.144 C
BRANCH  36  37
HETATM   37  C21 UNL     1      14.254  47.152  88.807  1.00  0.00     0.034 C
HETATM   38  C22 UNL     1      15.049  45.920  89.165  1.00  0.00     0.008 C
HETATM   39  C23 UNL     1      16.120  45.822  88.098  1.00  0.00     0.002 C
HETATM   40  C24 UNL     1      15.976  47.053  87.232  1.00  0.00     0.033 C
HETATM   41  C25 UNL     1      14.500  47.453  87.365  1.00  0.00     0.189 C
BRANCH  41  42
HETATM   42  N7  UNL     1      13.741  46.671  86.438  1.00  0.00    -0.075 N
ATOM     43  H73 UNL     1      14.002  45.688  86.514  1.00  0.00     0.274 HD
ATOM     44  H72 UNL     1      12.767  46.623  86.737  1.00  0.00     0.274 HD
ATOM     45  H71 UNL     1      13.795  46.973  85.465  1.00  0.00     0.274 HD
ENDBRANCH  41  42
ENDBRANCH  36  37
ENDBRANCH  34  36
ENDBRANCH   7  34
TORSDOF 11
ENDMDL