MODEL 3
REMARK VINA RESULT: -8.042750107      1.972      4.758
REMARK  8 active torsions:
REMARK  status: ('A' for Active; 'I' for Inactive)
REMARK    1  A    between atoms: N2_9  and  C5_10
REMARK    2  A    between atoms: C5_10  and  C6_11
REMARK    3  A    between atoms: C6_11  and  C7_12
REMARK    4  A    between atoms: C6_11  and  N4_20
REMARK    5  A    between atoms: C8_13  and  C9_14
REMARK    6  A    between atoms: C9_14  and  N3_15
REMARK    7  A    between atoms: C18_26  and  N5_27
REMARK    8  A    between atoms: N5_27  and  C19_29
ROOT
HETATM    1  N4  UNL     1      10.412  51.634  91.533  1.00  0.00    -0.364 N
HETATM    2  C14 UNL     1       9.284  50.793  91.929  1.00  0.00     0.151 C
HETATM    3  C15 UNL     1       8.037  51.159  91.158  1.00  0.00     0.195 C
HETATM    4  O2  UNL     1       8.301  51.698  89.904  1.00  0.00    -0.347 OA
HETATM    5  C16 UNL     1       9.511  51.998  89.346  1.00  0.00     0.097 A
HETATM    6  C17 UNL     1       9.712  52.325  88.034  1.00  0.00     0.068 A
HETATM    7  C18 UNL     1      10.965  52.627  87.498  1.00  0.00     0.036 A
HETATM    8  C26 UNL     1      12.040  52.587  88.360  1.00  0.00     0.032 A
HETATM    9  C27 UNL     1      11.900  52.263  89.699  1.00  0.00     0.034 A
HETATM   10  C28 UNL     1      10.642  51.974  90.173  1.00  0.00     0.065 A
ENDROOT
BRANCH   1  11
HETATM   11  C6  UNL     1      11.300  52.149  92.545  1.00  0.00     0.146 C
BRANCH  11  12
HETATM   12  C5  UNL     1      11.433  51.311  93.743  1.00  0.00     0.096 C
BRANCH  12  13
HETATM   13  N2  UNL     1      12.678  50.817  94.156  1.00  0.00    -0.327 N
HETATM   14  C1  UNL     1      13.452  51.554  95.109  1.00  0.00     0.249 C
HETATM   15  O1  UNL     1      13.455  52.805  95.166  1.00  0.00    -0.271 OA
HETATM   16  C2  UNL     1      14.312  50.833  96.093  1.00  0.00     0.335 C
HETATM   17  N1  UNL     1      15.010  49.737  95.460  1.00  0.00    -0.065 N
HETATM   18  C3  UNL     1      14.800  49.696  94.039  1.00  0.00     0.253 C
ATOM     19  H12 UNL     1      16.006  49.758  95.682  1.00  0.00     0.277 HD
ATOM     20  H11 UNL     1      14.764  48.847  95.892  1.00  0.00     0.277 HD
HETATM   21  C4  UNL     1      13.311  49.585  93.729  1.00  0.00     0.158 C
ENDBRANCH  12  13
ENDBRANCH  11  12
BRANCH  11  22
HETATM   22  C7  UNL     1      10.573  53.410  93.005  1.00  0.00     0.001 C
HETATM   23  C8  UNL     1      10.192  53.574  94.263  1.00  0.00     0.001 C
BRANCH  23  24
HETATM   24  C9  UNL     1       9.484  54.808  94.692  1.00  0.00     0.299 C
BRANCH  24  25
HETATM   25  N3  UNL     1       9.876  55.292  95.984  1.00  0.00     0.091 N
HETATM   26  C10 UNL     1       9.346  56.640  96.128  1.00  0.00     0.273 C
HETATM   27  C11 UNL     1      10.430  57.603  95.776  1.00  0.00     0.032 C
HETATM   28  C12 UNL     1      11.561  56.731  95.301  1.00  0.00     0.032 C
HETATM   29  C13 UNL     1      11.311  55.433  96.033  1.00  0.00     0.273 C
ENDBRANCH  24  25
ENDBRANCH  23  24
ENDBRANCH  11  22
ENDBRANCH   1  11
BRANCH   7  30
HETATM   30  N5  UNL     1      11.158  52.957  86.161  1.00  0.00    -0.342 N
ATOM     31  H5  UNL     1      10.392  53.479  85.735  1.00  0.00     0.167 HD
BRANCH  30  32
HETATM   32  C19 UNL     1      12.131  52.714  85.385  1.00  0.00     0.107 A
HETATM   33  C20 UNL     1      13.262  53.526  85.511  1.00  0.00     0.049 A
HETATM   34  C21 UNL     1      14.384  53.353  84.730  1.00  0.00     0.019 A
HETATM   35  C22 UNL     1      14.413  52.356  83.792  1.00  0.00     0.009 A
HETATM   36  C23 UNL     1      15.344  51.916  82.873  1.00  0.00     0.032 A
HETATM   37  C25 UNL     1      13.294  51.564  83.678  1.00  0.00     0.117 A
HETATM   38  C24 UNL     1      14.792  50.852  82.193  1.00  0.00     0.090 A
HETATM   39  N6  UNL     1      13.564  50.674  82.705  1.00  0.00    -0.352 N
ATOM     40  H6  UNL     1      12.913  49.952  82.395  1.00  0.00     0.166 HD
HETATM   41  N7  UNL     1      12.186  51.752  84.462  1.00  0.00    -0.328 N
ATOM     42  H7  UNL     1      11.381  51.138  84.338  1.00  0.00     0.169 HD
ENDBRANCH  30  32
ENDBRANCH   7  30
TORSDOF 8
ENDMDL