MODEL 1
REMARK VINA RESULT: -7.418809947      0.000      0.000
REMARK  9 active torsions:
REMARK  status: ('A' for Active; 'I' for Inactive)
REMARK    1  A    between atoms: S1_2  and  N1_4
REMARK    2  A    between atoms: S1_2  and  C7_14
REMARK    3  A    between atoms: N1_4  and  C1_6
REMARK    4  A    between atoms: C1_6  and  C2_7
REMARK    5  A    between atoms: C2_7  and  N2_8
REMARK    6  A    between atoms: C10_17  and  N3_18
REMARK    7  A    between atoms: N3_18  and  C11_19
REMARK    8  A    between atoms: C12_20  and  N4_21
REMARK    9  A    between atoms: N4_21  and  C13_23
ROOT
HETATM    1  C11 UNL     1      12.500  50.658  82.567  1.00  0.00     0.148 A
HETATM    2  C12 UNL     1      11.417  50.026  81.928  1.00  0.00     0.091 A
HETATM    3  C18 UNL     1      11.563  49.583  80.639  1.00  0.00     0.121 A
HETATM    4  N6  UNL     1      12.704  49.730  79.959  1.00  0.00    -0.363 N
ATOM      5  H6  UNL     1      12.766  49.385  79.002  1.00  0.00     0.165 HD
HETATM    6  C19 UNL     1      13.760  50.319  80.512  1.00  0.00     0.045 A
HETATM    7  C20 UNL     1      14.961  50.485  79.835  1.00  0.00     0.030 A
HETATM    8  C21 UNL     1      16.014  51.099  80.462  1.00  0.00     0.002 A
HETATM    9  C22 UNL     1      15.938  51.569  81.758  1.00  0.00     0.001 A
HETATM   10  C23 UNL     1      14.743  51.400  82.422  1.00  0.00     0.017 A
HETATM   11  C24 UNL     1      13.676  50.777  81.785  1.00  0.00     0.034 A
ENDROOT
BRANCH   1  12
HETATM   12  N3  UNL     1      12.402  51.048  83.671  1.00  0.00    -0.403 NA
BRANCH  12  13
HETATM   13  C10 UNL     1      12.303  51.491  84.926  1.00  0.00     0.107 A
HETATM   14  C9  UNL     1      11.672  50.710  85.917  1.00  0.00     0.046 A
HETATM   15  C8  UNL     1      11.568  51.152  87.201  1.00  0.00     0.028 A
HETATM   16  C7  UNL     1      12.067  52.369  87.588  1.00  0.00     0.079 A
HETATM   17  C26 UNL     1      12.681  53.130  86.623  1.00  0.00     0.028 A
HETATM   18  C25 UNL     1      12.808  52.730  85.334  1.00  0.00     0.046 A
BRANCH  16  19
HETATM   19  S1  UNL     1      11.909  52.890  89.226  1.00  0.00     0.259 S
HETATM   20  O1  UNL     1      12.027  51.714  90.163  1.00  0.00    -0.201 OA
HETATM   21  O2  UNL     1      10.622  53.592  89.511  1.00  0.00    -0.201 OA
BRANCH  19  22
HETATM   22  N1  UNL     1      13.263  53.943  89.627  1.00  0.00    -0.311 N
ATOM     23  H1  UNL     1      14.170  53.934  89.160  1.00  0.00     0.172 HD
BRANCH  22  24
HETATM   24  C1  UNL     1      12.905  54.804  90.695  1.00  0.00     0.176 C
BRANCH  24  25
HETATM   25  C2  UNL     1      13.431  54.405  92.021  1.00  0.00     0.078 C
BRANCH  25  26
HETATM   26  N2  UNL     1      12.540  54.495  93.094  1.00  0.00    -0.388 N
HETATM   27  C3  UNL     1      13.049  54.751  94.390  1.00  0.00     0.148 C
HETATM   28  C4  UNL     1      12.603  53.613  95.322  1.00  0.00     0.187 C
HETATM   29  O3  UNL     1      12.889  52.420  94.686  1.00  0.00    -0.388 OA
HETATM   30  C5  UNL     1      12.045  52.159  93.604  1.00  0.00     0.187 C
HETATM   31  C6  UNL     1      11.492  53.481  93.091  1.00  0.00     0.148 C
ENDBRANCH  25  26
ENDBRANCH  24  25
ENDBRANCH  22  24
ENDBRANCH  19  22
ENDBRANCH  16  19
ENDBRANCH  12  13
ENDBRANCH   1  12
BRANCH   2  32
HETATM   32  N4  UNL     1      10.214  49.883  82.671  1.00  0.00    -0.339 N
ATOM     33  H4  UNL     1      10.099  49.127  83.346  1.00  0.00     0.167 HD
BRANCH  32  34
HETATM   34  C13 UNL     1       9.258  50.754  82.462  1.00  0.00     0.105 A
HETATM   35  C14 UNL     1       8.138  50.420  81.734  1.00  0.00     0.048 A
HETATM   36  C15 UNL     1       7.113  51.333  81.509  1.00  0.00     0.005 A
HETATM   37  C16 UNL     1       7.208  52.610  82.023  1.00  0.00     0.017 A
HETATM   38  C17 UNL     1       8.338  52.919  82.747  1.00  0.00     0.089 A
HETATM   39  N5  UNL     1       9.329  52.000  82.952  1.00  0.00    -0.352 N
ATOM     40  H5  UNL     1      10.149  52.272  83.495  1.00  0.00     0.166 HD
ENDBRANCH  32  34
ENDBRANCH   2  32
TORSDOF 9
ENDMDL