MODEL 1
REMARK VINA RESULT: -8.004940298      0.000      0.000
REMARK  8 active torsions:
REMARK  status: ('A' for Active; 'I' for Inactive)
REMARK       I    between atoms: C1_2  and  N1_3
REMARK    1  A    between atoms: C1_2  and  C11_22
REMARK    2  A    between atoms: N1_3  and  C2_5
REMARK    3  A    between atoms: C5_8  and  S1_9
REMARK    4  A    between atoms: S1_9  and  N2_12
REMARK    5  A    between atoms: N2_12  and  C6_14
REMARK    6  A    between atoms: C15_26  and  S2_27
REMARK    7  A    between atoms: S2_27  and  N4_30
REMARK    8  A    between atoms: N4_30  and  C16_32
ROOT
HETATM    1  O1  UNL     1       9.590  53.282  85.309  1.00  0.00    -0.267 OA
HETATM    2  C1  UNL     1      10.126  52.144  85.143  1.00  0.00     0.256 C
HETATM    3  N1  UNL     1      11.156  51.738  86.001  1.00  0.00    -0.323 N
ATOM      4  H1  UNL     1      11.543  50.811  85.823  1.00  0.00     0.169 HD
ENDROOT
BRANCH   2   5
HETATM    5  C11 UNL     1       9.632  51.307  84.047  1.00  0.00     0.033 A
HETATM    6  C12 UNL     1       8.423  50.695  84.087  1.00  0.00     0.017 A
HETATM    7  C13 UNL     1       7.987  49.909  83.011  1.00  0.00     0.003 A
HETATM    8  C14 UNL     1       8.808  49.772  81.917  1.00  0.00     0.025 A
HETATM    9  C15 UNL     1      10.042  50.385  81.854  1.00  0.00     0.080 A
HETATM   10  C22 UNL     1      10.452  51.154  82.923  1.00  0.00     0.042 A
BRANCH   9  11
HETATM   11  S2  UNL     1      11.014  50.155  80.420  1.00  0.00     0.263 S
HETATM   12  O5  UNL     1      11.184  51.501  79.772  1.00  0.00    -0.200 OA
HETATM   13  O6  UNL     1      10.281  49.219  79.470  1.00  0.00    -0.200 OA
BRANCH  11  14
HETATM   14  N4  UNL     1      12.501  49.442  80.880  1.00  0.00    -0.281 N
ATOM     15  H4  UNL     1      12.573  48.427  80.953  1.00  0.00     0.179 HD
BRANCH  14  16
HETATM   16  C16 UNL     1      13.635  50.247  81.159  1.00  0.00     0.042 A
HETATM   17  C17 UNL     1      14.543  50.615  80.192  1.00  0.00     0.030 A
HETATM   18  C18 UNL     1      15.636  51.392  80.501  1.00  0.00     0.002 A
HETATM   19  C19 UNL     1      15.829  51.813  81.805  1.00  0.00     0.000 A
HETATM   20  C20 UNL     1      14.927  51.451  82.779  1.00  0.00     0.002 A
HETATM   21  C21 UNL     1      13.852  50.685  82.475  1.00  0.00     0.030 A
ENDBRANCH  14  16
ENDBRANCH  11  14
ENDBRANCH   9  11
ENDBRANCH   2   5
BRANCH   3  22
HETATM   22  C2  UNL     1      11.724  52.445  87.077  1.00  0.00     0.035 A
HETATM   23  C3  UNL     1      11.255  52.420  88.360  1.00  0.00     0.031 A
HETATM   24  C4  UNL     1      11.900  53.144  89.381  1.00  0.00     0.027 A
HETATM   25  C5  UNL     1      13.019  53.902  89.137  1.00  0.00     0.080 A
HETATM   26  C9  UNL     1      13.500  53.936  87.855  1.00  0.00     0.027 A
HETATM   27  C10 UNL     1      12.873  53.231  86.858  1.00  0.00     0.031 A
BRANCH  25  28
HETATM   28  S1  UNL     1      13.802  54.790  90.417  1.00  0.00     0.265 S
HETATM   29  O2  UNL     1      15.150  54.189  90.652  1.00  0.00    -0.200 OA
HETATM   30  O3  UNL     1      14.026  56.225  89.996  1.00  0.00    -0.200 OA
BRANCH  28  31
HETATM   31  N2  UNL     1      12.867  54.781  91.846  1.00  0.00    -0.245 N
ATOM     32  H2  UNL     1      12.139  55.489  91.943  1.00  0.00     0.182 HD
BRANCH  31  33
HETATM   33  C6  UNL     1      13.018  53.944  92.804  1.00  0.00     0.237 A
HETATM   34  N3  UNL     1      13.385  52.655  92.777  1.00  0.00    -0.330 N
HETATM   35  C7  UNL     1      13.400  52.204  94.036  1.00  0.00     0.116 A
ATOM     36  H3  UNL     1      13.613  52.113  91.944  1.00  0.00     0.168 HD
HETATM   37  C8  UNL     1      13.032  53.252  94.836  1.00  0.00     0.162 A
HETATM   38  O4  UNL     1      12.812  54.274  94.070  1.00  0.00    -0.290 OA
ENDBRANCH  31  33
ENDBRANCH  28  31
ENDBRANCH  25  28
ENDBRANCH   3  22
TORSDOF 8
ENDMDL