MODEL 4
REMARK VINA RESULT: -8.757123459      1.783      3.101
REMARK  8 active torsions:
REMARK  status: ('A' for Active; 'I' for Inactive)
REMARK    1  A    between atoms: N1_1  and  C1_4
REMARK    2  A    between atoms: C5_10  and  S1_11
REMARK    3  A    between atoms: S1_11  and  C6_14
REMARK    4  A    between atoms: C9_17  and  S2_18
REMARK    5  A    between atoms: S2_18  and  N3_21
REMARK       I    between atoms: N3_21  and  C10_23
REMARK    6  A    between atoms: C10_23  and  C11_25
REMARK    7  A    between atoms: C11_25  and  C12_26
REMARK    8  A    between atoms: C11_25  and  C18_32
ROOT
HETATM    1  S2  UNL     1      13.415  54.567  90.480  1.00  0.00     0.265 S
HETATM    2  O3  UNL     1      13.651  56.049  90.222  1.00  0.00    -0.200 OA
HETATM    3  O4  UNL     1      14.714  54.039  91.020  1.00  0.00    -0.200 OA
ENDROOT
BRANCH   1   4
HETATM    4  C9  UNL     1      12.978  53.821  88.974  1.00  0.00     0.080 A
HETATM    5  C8  UNL     1      12.038  52.822  88.858  1.00  0.00     0.027 A
HETATM    6  C7  UNL     1      11.709  52.249  87.650  1.00  0.00     0.025 A
HETATM    7  C6  UNL     1      12.322  52.654  86.452  1.00  0.00     0.064 A
HETATM    8  C25 UNL     1      13.256  53.650  86.581  1.00  0.00     0.025 A
HETATM    9  C24 UNL     1      13.583  54.222  87.793  1.00  0.00     0.027 A
BRANCH   7  10
HETATM   10  S1  UNL     1      11.890  51.860  84.961  1.00  0.00     0.210 S
HETATM   11  O1  UNL     1      11.295  50.512  85.315  1.00  0.00    -0.217 OA
HETATM   12  O2  UNL     1      10.759  52.611  84.275  1.00  0.00    -0.217 OA
BRANCH  10  13
HETATM   13  C5  UNL     1      13.197  51.683  83.846  1.00  0.00     0.107 A
HETATM   14  C1  UNL     1      13.179  50.771  82.841  1.00  0.00     0.120 A
HETATM   15  N2  UNL     1      14.264  50.649  82.031  1.00  0.00    -0.351 N
HETATM   16  C2  UNL     1      15.371  51.386  82.162  1.00  0.00     0.090 A
ATOM     17  H2  UNL     1      14.231  49.956  81.283  1.00  0.00     0.166 HD
HETATM   18  C3  UNL     1      15.408  52.318  83.174  1.00  0.00     0.019 A
HETATM   19  C4  UNL     1      14.348  52.470  84.004  1.00  0.00     0.029 A
BRANCH  14  20
HETATM   20  N1  UNL     1      12.190  50.008  82.555  1.00  0.00    -0.384 N
ATOM     21  H12 UNL     1      11.883  49.774  81.612  1.00  0.00     0.157 HD
ATOM     22  H11 UNL     1      11.707  49.600  83.356  1.00  0.00     0.157 HD
ENDBRANCH  14  20
ENDBRANCH  10  13
ENDBRANCH   7  10
ENDBRANCH   1   4
BRANCH   1  23
HETATM   23  N3  UNL     1      12.188  54.459  91.663  1.00  0.00    -0.249 N
HETATM   24  C10 UNL     1      12.105  53.309  92.475  1.00  0.00     0.244 C
HETATM   25  O5  UNL     1      12.938  52.343  92.336  1.00  0.00    -0.271 OA
ATOM     26  H3  UNL     1      11.521  55.221  91.782  1.00  0.00     0.182 HD
BRANCH  24  27
HETATM   27  C11 UNL     1      11.079  53.128  93.523  1.00  0.00     0.144 C
BRANCH  27  28
HETATM   28  C12 UNL     1       9.796  52.783  92.822  1.00  0.00    -0.041 A
HETATM   29  C13 UNL     1       9.369  53.438  91.686  1.00  0.00     0.008 A
HETATM   30  C14 UNL     1       8.188  53.116  91.046  1.00  0.00     0.001 A
HETATM   31  C15 UNL     1       7.427  52.098  91.579  1.00  0.00     0.000 A
HETATM   32  C16 UNL     1       7.861  51.448  92.713  1.00  0.00     0.001 A
HETATM   33  C17 UNL     1       9.038  51.763  93.360  1.00  0.00     0.008 A
ENDBRANCH  27  28
BRANCH  27  34
HETATM   34  C18 UNL     1      10.943  54.407  94.268  1.00  0.00    -0.041 A
HETATM   35  C19 UNL     1       9.692  54.821  94.735  1.00  0.00     0.008 A
HETATM   36  C20 UNL     1       9.498  55.996  95.418  1.00  0.00     0.001 A
HETATM   37  C21 UNL     1      10.603  56.785  95.642  1.00  0.00     0.000 A
HETATM   38  C22 UNL     1      11.838  56.399  95.192  1.00  0.00     0.001 A
HETATM   39  C23 UNL     1      12.034  55.213  94.501  1.00  0.00     0.008 A
ENDBRANCH  27  34
ENDBRANCH  24  27
ENDBRANCH   1  23
TORSDOF 8
ENDMDL