MODEL 5
REMARK VINA RESULT: -6.813761825      3.112     10.957
REMARK  11 active torsions:
REMARK  status: ('A' for Active; 'I' for Inactive)
REMARK    1  A    between atoms: C3_5  and  C4_6
REMARK    2  A    between atoms: C4_6  and  C5_7
REMARK    3  A    between atoms: C5_7  and  C6_8
REMARK    4  A    between atoms: C16_18  and  N3_19
REMARK    5  A    between atoms: N4_22  and  C17_23
REMARK    6  A    between atoms: C17_23  and  C18_24
REMARK    7  A    between atoms: C18_24  and  C19_25
REMARK    8  A    between atoms: C19_25  and  C20_26
REMARK    9  A    between atoms: C20_26  and  C21_27
REMARK   10  A    between atoms: C21_27  and  C22_28
REMARK   11  A    between atoms: C22_28  and  N5_29
REMARK       I    between atoms: N5_29  and  C23_31
REMARK       I    between atoms: C23_31  and  N6_33
ROOT
HETATM    1  C1  UNL     1      10.797  49.310  90.042  1.00  0.00     0.162 C
HETATM    2  N1  UNL     1      11.177  50.348  89.088  1.00  0.00    -0.290 N
HETATM    3  C2  UNL     1      11.207  50.009  87.787  1.00  0.00     0.144 A
HETATM    4  N2  UNL     1      10.888  48.701  87.318  1.00  0.00    -0.081 NA
HETATM    5  C3  UNL     1      11.564  50.973  86.864  1.00  0.00     0.102 A
HETATM    6  C16 UNL     1      11.872  52.238  87.313  1.00  0.00     0.127 A
HETATM    7  N4  UNL     1      11.837  52.564  88.629  1.00  0.00    -0.284 N
HETATM    8  C28 UNL     1      11.486  51.597  89.490  1.00  0.00     0.331 A
HETATM    9  O2  UNL     1      11.423  51.795  90.732  1.00  0.00    -0.246 OA
ENDROOT
BRANCH   7  10
HETATM   10  C17 UNL     1      12.172  53.880  89.078  1.00  0.00     0.135 C
BRANCH  10  11
HETATM   11  C18 UNL     1      13.625  54.206  89.118  1.00  0.00     0.020 C
BRANCH  11  12
HETATM   12  C19 UNL     1      14.057  55.138  90.195  1.00  0.00     0.002 C
BRANCH  12  13
HETATM   13  C20 UNL     1      13.422  54.795  91.519  1.00  0.00     0.002 C
BRANCH  13  14
HETATM   14  C21 UNL     1      14.010  53.571  92.129  1.00  0.00     0.020 C
BRANCH  14  15
HETATM   15  C22 UNL     1      13.176  53.116  93.295  1.00  0.00     0.124 C
BRANCH  15  16
HETATM   16  N5  UNL     1      12.725  54.250  94.089  1.00  0.00    -0.343 N
HETATM   17  C23 UNL     1      11.363  54.394  94.436  1.00  0.00     0.318 C
HETATM   18  O1  UNL     1      10.541  53.513  94.042  1.00  0.00    -0.247 OA
HETATM   19  N6  UNL     1      10.955  55.510  95.211  1.00  0.00    -0.334 N
HETATM   20  C24 UNL     1      11.789  56.558  95.708  1.00  0.00     0.127 C
HETATM   21  C27 UNL     1       9.611  55.794  95.643  1.00  0.00     0.127 C
HETATM   22  C25 UNL     1      10.929  57.798  95.585  1.00  0.00     0.022 C
HETATM   23  C26 UNL     1       9.555  57.287  95.873  1.00  0.00     0.022 C
ATOM     24  H5  UNL     1      13.400  54.949  94.398  1.00  0.00     0.164 HD
ENDBRANCH  15  16
ENDBRANCH  14  15
ENDBRANCH  13  14
ENDBRANCH  12  13
ENDBRANCH  11  12
ENDBRANCH  10  11
ENDBRANCH   7  10
BRANCH   6  25
HETATM   25  N3  UNL     1      12.209  53.157  86.462  1.00  0.00    -0.384 N
ATOM     26  H32 UNL     1      12.973  52.960  85.816  1.00  0.00     0.157 HD
ATOM     27  H31 UNL     1      11.710  54.047  86.456  1.00  0.00     0.157 HD
ENDBRANCH   6  25
BRANCH   5  28
HETATM   28  C4  UNL     1      11.620  50.689  85.448  1.00  0.00    -0.059 C
BRANCH  28  29
HETATM   29  C5  UNL     1      11.648  50.450  84.259  1.00  0.00    -0.091 C
BRANCH  29  30
HETATM   30  C6  UNL     1      11.686  50.182  82.814  1.00  0.00     0.025 C
HETATM   31  C7  UNL     1      11.489  48.709  82.577  1.00  0.00     0.027 C
HETATM   32  C8  UNL     1      11.458  48.450  81.093  1.00  0.00    -0.012 C
HETATM   33  C9  UNL     1      10.393  49.231  80.390  1.00  0.00     0.009 C
HETATM   34  C13 UNL     1      12.798  48.889  80.531  1.00  0.00     0.009 C
HETATM   35  C10 UNL     1      10.630  50.697  80.647  1.00  0.00    -0.012 C
HETATM   36  C11 UNL     1      11.964  51.155  80.123  1.00  0.00     0.009 C
HETATM   37  C15 UNL     1      10.556  50.943  82.123  1.00  0.00     0.027 C
HETATM   38  C12 UNL     1      13.045  50.349  80.791  1.00  0.00    -0.012 C
HETATM   39  C14 UNL     1      13.013  50.633  82.297  1.00  0.00     0.027 C
ENDBRANCH  29  30
ENDBRANCH  28  29
ENDBRANCH   5  28
TORSDOF 11
ENDMDL