MODEL 3
REMARK VINA RESULT: -7.804733810      2.580      5.558
REMARK  8 active torsions:
REMARK  status: ('A' for Active; 'I' for Inactive)
REMARK       I    between atoms: N1_3  and  C3_5
REMARK    1  A    between atoms: C3_5  and  C4_7
REMARK    2  A    between atoms: C8_11  and  C9_12
REMARK    3  A    between atoms: C9_12  and  N2_13
REMARK    4  A    between atoms: C11_18  and  C12_19
REMARK    5  A    between atoms: C19_34  and  N8_35
REMARK    6  A    between atoms: N8_35  and  C20_37
REMARK    7  A    between atoms: C20_37  and  C21_38
REMARK    8  A    between atoms: C21_38  and  C22_39
ROOT
HETATM    1  C1  UNL     1       6.564  53.032  80.401  1.00  0.00     0.037 C
HETATM    2  C2  UNL     1       7.018  52.402  81.340  1.00  0.00     0.002 C
HETATM    3  N1  UNL     1       7.515  51.679  82.416  1.00  0.00    -0.282 N
ATOM      4  H1  UNL     1       7.297  50.688  82.518  1.00  0.00     0.179 HD
HETATM    5  C3  UNL     1       8.329  52.340  83.373  1.00  0.00     0.263 C
HETATM    6  O1  UNL     1       8.601  53.568  83.245  1.00  0.00    -0.267 OA
ENDROOT
BRANCH   5   7
HETATM    7  C4  UNL     1       8.890  51.652  84.539  1.00  0.00     0.033 A
HETATM    8  C5  UNL     1       9.398  50.377  84.468  1.00  0.00     0.017 A
HETATM    9  C6  UNL     1       9.928  49.776  85.602  1.00  0.00     0.002 A
HETATM   10  C7  UNL     1       9.948  50.460  86.818  1.00  0.00     0.009 A
HETATM   11  C8  UNL     1       9.448  51.726  86.911  1.00  0.00    -0.040 A
HETATM   12  C29 UNL     1       8.932  52.287  85.765  1.00  0.00     0.026 A
BRANCH  11  13
HETATM   13  C9  UNL     1       9.427  52.555  88.145  1.00  0.00     0.160 C
BRANCH  13  14
HETATM   14  N2  UNL     1      10.700  53.044  88.543  1.00  0.00    -0.371 N
HETATM   15  C10 UNL     1      10.947  53.335  89.757  1.00  0.00     0.120 A
HETATM   16  N3  UNL     1      10.088  53.227  90.776  1.00  0.00    -0.327 N
HETATM   17  C28 UNL     1      12.216  53.830  90.056  1.00  0.00     0.096 A
HETATM   18  C11 UNL     1      10.413  53.575  92.037  1.00  0.00     0.120 A
ATOM     19  H3  UNL     1       9.152  52.867  90.593  1.00  0.00     0.169 HD
HETATM   20  N5  UNL     1      11.650  54.051  92.288  1.00  0.00    -0.327 N
HETATM   21  C17 UNL     1      12.556  54.187  91.338  1.00  0.00     0.125 A
ATOM     22  H5  UNL     1      11.894  54.314  93.244  1.00  0.00     0.169 HD
HETATM   23  N6  UNL     1      13.806  54.671  91.568  1.00  0.00    -0.338 N
HETATM   24  C18 UNL     1      14.696  54.799  90.568  1.00  0.00     0.183 A
ATOM     25  H6  UNL     1      14.073  54.941  92.514  1.00  0.00     0.168 HD
HETATM   26  N7  UNL     1      14.400  54.462  89.306  1.00  0.00    -0.338 N
HETATM   27  C19 UNL     1      13.175  53.980  89.042  1.00  0.00     0.119 A
ATOM     28  H7  UNL     1      15.090  54.569  88.563  1.00  0.00     0.168 HD
ATOM     29  H2  UNL     1      11.431  53.164  87.841  1.00  0.00     0.161 HD
BRANCH  18  30
HETATM   30  C12 UNL     1       9.424  53.452  93.127  1.00  0.00     0.023 A
HETATM   31  C13 UNL     1       8.293  52.705  93.058  1.00  0.00     0.018 A
HETATM   32  C14 UNL     1       7.432  52.670  94.156  1.00  0.00     0.018 A
HETATM   33  C15 UNL     1       7.755  53.397  95.282  1.00  0.00     0.087 A
HETATM   34  N4  UNL     1       8.880  54.134  95.340  1.00  0.00    -0.374 N
HETATM   35  C16 UNL     1       9.689  54.158  94.288  1.00  0.00     0.102 A
ATOM     36  H4  UNL     1       9.107  54.667  96.179  1.00  0.00     0.164 HD
ENDBRANCH  18  30
BRANCH  27  37
HETATM   37  N8  UNL     1      12.795  53.620  87.881  1.00  0.00    -0.375 N
ATOM     38  H8  UNL     1      11.865  53.203  87.832  1.00  0.00     0.161 HD
BRANCH  37  39
HETATM   39  C20 UNL     1      13.489  53.719  86.639  1.00  0.00     0.126 C
BRANCH  39  40
HETATM   40  C21 UNL     1      12.677  53.327  85.440  1.00  0.00     0.058 C
BRANCH  40  41
HETATM   41  C22 UNL     1      13.416  52.536  84.437  1.00  0.00    -0.057 A
HETATM   42  C23 UNL     1      14.676  52.919  84.062  1.00  0.00     0.007 A
HETATM   43  C24 UNL     1      15.420  52.234  83.132  1.00  0.00     0.001 A
HETATM   44  C25 UNL     1      14.895  51.110  82.539  1.00  0.00     0.000 A
HETATM   45  C26 UNL     1      13.634  50.699  82.894  1.00  0.00     0.001 A
HETATM   46  C27 UNL     1      12.888  51.410  83.843  1.00  0.00     0.007 A
ENDBRANCH  40  41
ENDBRANCH  39  40
ENDBRANCH  37  39
ENDBRANCH  27  37
ENDBRANCH  13  14
ENDBRANCH  11  13
ENDBRANCH   5   7
TORSDOF 8
ENDMDL