MODEL 2
REMARK VINA RESULT: -9.038167550      1.590      1.824
REMARK  9 active torsions:
REMARK  status: ('A' for Active; 'I' for Inactive)
REMARK    1  A    between atoms: N1_2  and  S1_4
REMARK    2  A    between atoms: S1_4  and  C2_7
REMARK    3  A    between atoms: C5_10  and  O3_11
REMARK    4  A    between atoms: O3_11  and  C6_12
REMARK    5  A    between atoms: C9_15  and  S2_16
REMARK    6  A    between atoms: S2_16  and  N2_19
REMARK    7  A    between atoms: N2_19  and  C10_21
REMARK    8  A    between atoms: C20_33  and  C21_34
REMARK    9  A    between atoms: C21_34  and  O6_35
ROOT
HETATM    1  C6  UNL     1      11.934  52.517  91.145  1.00  0.00     0.084 A
HETATM    2  C7  UNL     1      11.083  51.441  90.858  1.00  0.00     0.039 A
HETATM    3  C8  UNL     1      10.773  51.083  89.573  1.00  0.00     0.028 A
HETATM    4  C9  UNL     1      11.319  51.810  88.557  1.00  0.00     0.080 A
HETATM    5  C19 UNL     1      12.153  52.866  88.794  1.00  0.00     0.037 A
HETATM    6  C20 UNL     1      12.470  53.234  90.102  1.00  0.00     0.001 A
ENDROOT
BRANCH   4   7
HETATM    7  S2  UNL     1      10.946  51.387  86.896  1.00  0.00     0.264 S
HETATM    8  O4  UNL     1       9.467  51.090  86.761  1.00  0.00    -0.200 OA
HETATM    9  O5  UNL     1      11.687  50.088  86.565  1.00  0.00    -0.200 OA
BRANCH   7  10
HETATM   10  N2  UNL     1      11.511  52.549  85.791  1.00  0.00    -0.266 N
ATOM     11  H2  UNL     1      10.955  53.402  85.720  1.00  0.00     0.180 HD
BRANCH  10  12
HETATM   12  C10 UNL     1      12.535  52.491  85.044  1.00  0.00     0.115 A
HETATM   13  C11 UNL     1      13.650  53.277  85.193  1.00  0.00     0.050 A
HETATM   14  C12 UNL     1      14.720  53.130  84.314  1.00  0.00     0.017 A
HETATM   15  C13 UNL     1      14.682  52.211  83.295  1.00  0.00    -0.009 A
HETATM   16  C14 UNL     1      15.739  52.066  82.426  1.00  0.00     0.013 A
HETATM   17  C18 UNL     1      13.542  51.441  83.179  1.00  0.00     0.043 A
HETATM   18  C15 UNL     1      15.673  51.136  81.414  1.00  0.00     0.001 A
HETATM   19  C16 UNL     1      14.560  50.360  81.273  1.00  0.00     0.002 A
HETATM   20  C17 UNL     1      13.512  50.516  82.148  1.00  0.00     0.030 A
HETATM   21  N3  UNL     1      12.528  51.586  84.020  1.00  0.00    -0.341 N
ATOM     22  H3  UNL     1      11.705  50.997  83.897  1.00  0.00     0.167 HD
ENDBRANCH  10  12
ENDBRANCH   7  10
ENDBRANCH   4   7
BRANCH   6  23
HETATM   23  C21 UNL     1      13.348  54.421  90.269  1.00  0.00     0.205 C
BRANCH  23  24
HETATM   24  O6  UNL     1      14.508  54.061  90.970  1.00  0.00    -0.396 OA
ATOM     25  H6  UNL     1      14.782  54.778  91.530  1.00  0.00     0.209 HD
ENDBRANCH  23  24
ENDBRANCH   6  23
BRANCH   1  26
HETATM   26  O3  UNL     1      12.180  52.799  92.437  1.00  0.00    -0.310 OA
BRANCH  26  27
HETATM   27  C5  UNL     1      11.726  53.756  93.289  1.00  0.00     0.076 A
HETATM   28  C4  UNL     1      12.535  54.712  93.852  1.00  0.00     0.039 A
HETATM   29  C3  UNL     1      12.098  55.693  94.718  1.00  0.00     0.028 A
HETATM   30  C2  UNL     1      10.764  55.743  95.060  1.00  0.00     0.079 A
HETATM   31  C23 UNL     1       9.919  54.800  94.515  1.00  0.00     0.028 A
HETATM   32  C22 UNL     1      10.373  53.826  93.651  1.00  0.00     0.039 A
BRANCH  30  33
HETATM   33  S1  UNL     1      10.180  56.975  96.156  1.00  0.00     0.258 S
HETATM   34  O1  UNL     1      10.970  58.242  95.908  1.00  0.00    -0.201 OA
HETATM   35  O2  UNL     1       8.742  57.280  95.943  1.00  0.00    -0.201 OA
BRANCH  33  36
HETATM   36  N1  UNL     1      10.529  56.488  97.777  1.00  0.00    -0.320 N
HETATM   37  C1  UNL     1       9.330  55.944  98.419  1.00  0.00     0.159 C
ATOM     38  H1  UNL     1      11.443  56.569  98.224  1.00  0.00     0.171 HD
ENDBRANCH  33  36
ENDBRANCH  30  33
ENDBRANCH  26  27
ENDBRANCH   1  26
TORSDOF 9
ENDMDL