MODEL 2
REMARK VINA RESULT: -6.441587328      4.237      9.125
REMARK  8 active torsions:
REMARK  status: ('A' for Active; 'I' for Inactive)
REMARK    1  A    between atoms: C2_3  and  C3_4
REMARK    2  A    between atoms: C3_4  and  N2_5
REMARK    3  A    between atoms: C5_7  and  C6_8
REMARK    4  A    between atoms: C7_11  and  N4_12
REMARK    5  A    between atoms: N6_21  and  S2_22
REMARK    6  A    between atoms: S2_22  and  N7_25
REMARK    7  A    between atoms: C16_31  and  C17_32
REMARK    8  A    between atoms: C17_32  and  C18_33
ROOT
HETATM    1  N1  UNL     1       7.627  54.466  90.235  1.00  0.00    -0.197 NA
HETATM    2  C1  UNL     1       8.358  53.985  89.501  1.00  0.00     0.061 C
HETATM    3  C2  UNL     1       9.305  53.374  88.583  1.00  0.00     0.156 C
ENDROOT
BRANCH   3   4
HETATM    4  C3  UNL     1      10.109  52.298  89.291  1.00  0.00     0.065 C
HETATM    5  C9  UNL     1       9.170  51.245  89.735  1.00  0.00     0.049 C
HETATM    6  C10 UNL     1       9.149  50.223  88.584  1.00  0.00     0.111 C
HETATM    7  N6  UNL     1      10.000  50.707  87.577  1.00  0.00    -0.191 NA
HETATM    8  C22 UNL     1      10.948  51.611  88.195  1.00  0.00     0.141 C
BRANCH   4   9
HETATM    9  N2  UNL     1      11.018  52.828  90.252  1.00  0.00    -0.321 N
HETATM   10  C4  UNL     1      12.078  53.551  89.848  1.00  0.00     0.115 A
HETATM   11  C5  UNL     1      13.022  54.115  90.714  1.00  0.00     0.088 A
HETATM   12  C7  UNL     1      12.834  53.905  92.057  1.00  0.00     0.117 A
HETATM   13  N5  UNL     1      11.733  53.157  92.428  1.00  0.00    -0.319 N
HETATM   14  C8  UNL     1      10.858  52.637  91.591  1.00  0.00     0.180 A
ATOM     15  H5  UNL     1      11.586  52.997  93.424  1.00  0.00     0.170 HD
HETATM   16  S1  UNL     1       9.571  51.765  92.071  1.00  0.00    -0.040 SA
BRANCH  11  17
HETATM   17  C6  UNL     1      14.136  54.878  90.198  1.00  0.00     0.270 C
HETATM   18  N3  UNL     1      14.236  56.279  90.146  1.00  0.00    -0.057 NA
HETATM   19  O1  UNL     1      15.147  54.233  89.739  1.00  0.00    -0.271 OA
ENDBRANCH  11  17
BRANCH  12  20
HETATM   20  N4  UNL     1      13.578  54.334  92.974  1.00  0.00    -0.385 N
ATOM     21  H42 UNL     1      13.549  55.333  93.175  1.00  0.00     0.157 HD
ATOM     22  H41 UNL     1      14.211  53.767  93.537  1.00  0.00     0.157 HD
ENDBRANCH  12  20
ENDBRANCH   4   9
BRANCH   7  23
HETATM   23  S2  UNL     1      10.689  49.611  86.485  1.00  0.00     0.304 S
HETATM   24  O2  UNL     1       9.961  48.267  86.660  1.00  0.00    -0.188 OA
HETATM   25  O3  UNL     1      12.101  49.352  86.978  1.00  0.00    -0.188 OA
BRANCH  23  26
HETATM   26  N7  UNL     1      10.639  50.053  84.868  1.00  0.00    -0.273 N
HETATM   27  C11 UNL     1      11.043  49.130  83.891  1.00  0.00     0.077 C
HETATM   28  C12 UNL     1      10.011  48.783  82.850  1.00  0.00     0.045 C
HETATM   29  C13 UNL     1       9.200  49.889  82.325  1.00  0.00     0.005 C
HETATM   30  C14 UNL     1       9.339  51.217  82.965  1.00  0.00     0.002 C
HETATM   31  C15 UNL     1      10.754  51.678  83.140  1.00  0.00     0.026 C
HETATM   32  C16 UNL     1      11.141  51.361  84.569  1.00  0.00     0.102 C
BRANCH  32  33
HETATM   33  C17 UNL     1      12.618  51.513  84.826  1.00  0.00     0.031 C
BRANCH  33  34
HETATM   34  C18 UNL     1      13.340  52.079  83.617  1.00  0.00    -0.013 C
HETATM   35  C19 UNL     1      14.583  52.846  84.020  1.00  0.00     0.005 C
HETATM   36  C20 UNL     1      15.411  51.982  83.098  1.00  0.00     0.001 C
HETATM   37  C21 UNL     1      14.236  51.043  82.978  1.00  0.00     0.005 C
ENDBRANCH  33  34
ENDBRANCH  32  33
ENDBRANCH  23  26
ENDBRANCH   7  23
ENDBRANCH   3   4
TORSDOF 8
ENDMDL