MODEL 2
REMARK VINA RESULT: -9.567668953      0.109      1.145
REMARK  7 active torsions:
REMARK  status: ('A' for Active; 'I' for Inactive)
REMARK    1  A    between atoms: C1_2  and  C2_4
REMARK    2  A    between atoms: C5_7  and  N2_8
REMARK    3  A    between atoms: N2_8  and  S1_10
REMARK    4  A    between atoms: S1_10  and  C6_13
REMARK    5  A    between atoms: C12_20  and  N3_21
REMARK    6  A    between atoms: N3_21  and  S2_23
REMARK    7  A    between atoms: S2_23  and  C13_26
ROOT
HETATM    1  C6  UNL     1      12.403  53.264  89.042  1.00  0.00     0.091 A
HETATM    2  C7  UNL     1      13.412  54.176  88.805  1.00  0.00     0.026 A
HETATM    3  C8  UNL     1      14.158  54.800  89.778  1.00  0.00     0.003 A
HETATM    4  C9  UNL     1      13.915  54.526  91.084  1.00  0.00     0.016 A
HETATM    5  C10 UNL     1      12.937  53.637  91.400  1.00  0.00     0.028 A
HETATM    6  C11 UNL     1      12.855  53.499  92.781  1.00  0.00     0.210 C
HETATM    7  O4  UNL     1      13.556  54.252  93.488  1.00  0.00    -0.285 OA
HETATM    8  C12 UNL     1      12.072  52.607  93.512  1.00  0.00     0.093 C
HETATM    9  C19 UNL     1      11.455  51.508  92.994  1.00  0.00     0.034 C
HETATM   10  C20 UNL     1      10.912  51.361  91.727  1.00  0.00     0.003 C
HETATM   11  C21 UNL     1      11.212  52.126  90.606  1.00  0.00     0.014 C
HETATM   12  C22 UNL     1      12.207  53.028  90.413  1.00  0.00     0.001 A
ENDROOT
BRANCH   1  13
HETATM   13  S1  UNL     1      11.463  52.511  87.821  1.00  0.00     0.264 S
HETATM   14  O2  UNL     1       9.963  52.763  87.998  1.00  0.00    -0.200 OA
HETATM   15  O3  UNL     1      11.724  51.043  87.613  1.00  0.00    -0.200 OA
BRANCH  13  16
HETATM   16  N2  UNL     1      11.799  53.236  86.295  1.00  0.00    -0.281 N
ATOM     17  H2  UNL     1      11.327  54.118  86.096  1.00  0.00     0.179 HD
BRANCH  16  18
HETATM   18  C5  UNL     1      12.658  52.737  85.290  1.00  0.00     0.042 A
HETATM   19  C4  UNL     1      13.911  53.293  85.009  1.00  0.00     0.031 A
HETATM   20  C3  UNL     1      14.740  52.858  84.028  1.00  0.00     0.019 A
HETATM   21  C2  UNL     1      14.328  51.791  83.247  1.00  0.00     0.029 A
HETATM   22  C24 UNL     1      13.106  51.201  83.475  1.00  0.00     0.019 A
HETATM   23  C23 UNL     1      12.277  51.684  84.501  1.00  0.00     0.031 A
BRANCH  21  24
HETATM   24  C1  UNL     1      15.205  51.306  82.186  1.00  0.00     0.264 C
HETATM   25  N1  UNL     1      14.730  50.380  81.221  1.00  0.00    -0.057 NA
HETATM   26  O1  UNL     1      16.394  51.691  82.097  1.00  0.00    -0.271 OA
ENDBRANCH  21  24
ENDBRANCH  16  18
ENDBRANCH  13  16
ENDBRANCH   1  13
BRANCH   8  27
HETATM   27  N3  UNL     1      11.923  52.854  94.879  1.00  0.00    -0.277 N
ATOM     28  H3  UNL     1      12.728  52.744  95.495  1.00  0.00     0.179 HD
BRANCH  27  29
HETATM   29  S2  UNL     1      10.422  53.338  95.542  1.00  0.00     0.263 S
HETATM   30  O5  UNL     1      10.324  52.779  96.929  1.00  0.00    -0.200 OA
HETATM   31  O6  UNL     1       9.238  52.854  94.775  1.00  0.00    -0.200 OA
BRANCH  29  32
HETATM   32  C13 UNL     1      10.402  55.095  95.627  1.00  0.00     0.079 A
HETATM   33  C14 UNL     1      11.604  55.753  95.500  1.00  0.00     0.025 A
HETATM   34  C15 UNL     1      11.635  57.145  95.561  1.00  0.00     0.002 A
HETATM   35  C16 UNL     1      10.453  57.831  95.749  1.00  0.00     0.000 A
HETATM   36  C17 UNL     1       9.248  57.172  95.876  1.00  0.00     0.002 A
HETATM   37  C18 UNL     1       9.237  55.798  95.813  1.00  0.00     0.025 A
ENDBRANCH  29  32
ENDBRANCH  27  29
ENDBRANCH   8  27
TORSDOF 7
ENDMDL