MODEL 1
REMARK VINA RESULT: -8.832561008      0.000      0.000
REMARK  10 active torsions:
REMARK  status: ('A' for Active; 'I' for Inactive)
REMARK    1  A    between atoms: N1_1  and  S1_4
REMARK    2  A    between atoms: S1_4  and  C1_7
REMARK    3  A    between atoms: C4_10  and  N2_11
REMARK    4  A    between atoms: N2_11  and  C5_13
REMARK    5  A    between atoms: C6_16  and  N4_17
REMARK    6  A    between atoms: N4_17  and  C7_19
REMARK    7  A    between atoms: C7_19  and  C8_20
REMARK    8  A    between atoms: C8_20  and  C9_21
REMARK    9  A    between atoms: C9_21  and  C10_22
REMARK   10  A    between atoms: C10_22  and  N5_23
ROOT
HETATM    1  C5  UNL     1      13.640  54.447  91.621  1.00  0.00     0.262 A
HETATM    2  N3  UNL     1      13.074  53.703  90.646  1.00  0.00    -0.152 N
ATOM      3  H3  UNL     1      12.455  52.907  90.800  1.00  0.00     0.188 HD
HETATM    4  C6  UNL     1      13.450  54.168  89.444  1.00  0.00     0.701 A
HETATM    5  N6  UNL     1      14.263  55.221  89.720  1.00  0.00    -0.088 N
ATOM      6  H6  UNL     1      14.730  55.812  89.032  1.00  0.00     0.214 HD
HETATM    7  O3  UNL     1      14.344  55.346  91.020  1.00  0.00    -0.185 OA
ENDROOT
BRANCH   4   8
HETATM    8  N4  UNL     1      13.105  53.703  88.270  1.00  0.00    -0.224 N
ATOM      9  H4  UNL     1      13.580  54.030  87.428  1.00  0.00     0.177 HD
BRANCH   8  10
HETATM   10  C7  UNL     1      12.061  52.735  88.176  1.00  0.00     0.138 C
BRANCH  10  11
HETATM   11  C8  UNL     1      11.716  52.458  86.753  1.00  0.00     0.022 C
BRANCH  11  12
HETATM   12  C9  UNL     1      10.305  52.106  86.528  1.00  0.00     0.021 C
BRANCH  12  13
HETATM   13  C10 UNL     1       9.932  50.688  86.259  1.00  0.00     0.122 C
BRANCH  13  14
HETATM   14  N5  UNL     1      10.665  50.277  85.086  1.00  0.00    -0.393 N
HETATM   15  C11 UNL     1      10.291  50.793  83.847  1.00  0.00     0.059 C
HETATM   16  C12 UNL     1      11.516  51.354  83.144  1.00  0.00     0.058 C
HETATM   17  C13 UNL     1      12.552  50.248  83.106  1.00  0.00    -0.007 C
HETATM   18  C14 UNL     1      12.083  49.084  82.279  1.00  0.00     0.019 C
HETATM   19  C21 UNL     1      13.737  50.723  82.387  1.00  0.00    -0.043 A
HETATM   20  C22 UNL     1      12.921  49.808  84.500  1.00  0.00     0.034 C
HETATM   21  C15 UNL     1      12.251  49.677  80.871  1.00  0.00     0.040 C
HETATM   22  C16 UNL     1      13.554  50.394  81.047  1.00  0.00    -0.051 A
HETATM   23  C17 UNL     1      14.546  50.754  80.167  1.00  0.00     0.007 A
HETATM   24  C18 UNL     1      15.702  51.415  80.539  1.00  0.00     0.001 A
HETATM   25  C19 UNL     1      15.886  51.742  81.867  1.00  0.00     0.001 A
HETATM   26  C20 UNL     1      14.900  51.388  82.765  1.00  0.00     0.008 A
HETATM   27  C23 UNL     1      11.658  49.313  85.220  1.00  0.00     0.123 C
ENDBRANCH  13  14
ENDBRANCH  12  13
ENDBRANCH  11  12
ENDBRANCH  10  11
ENDBRANCH   8  10
ENDBRANCH   4   8
BRANCH   1  28
HETATM   28  N2  UNL     1      13.480  54.264  92.865  1.00  0.00    -0.320 N
ATOM     29  H2  UNL     1      14.233  53.762  93.337  1.00  0.00     0.169 HD
BRANCH  28  30
HETATM   30  C4  UNL     1      12.413  54.656  93.680  1.00  0.00     0.035 A
HETATM   31  C3  UNL     1      12.631  55.742  94.548  1.00  0.00     0.031 A
HETATM   32  C2  UNL     1      11.612  56.145  95.361  1.00  0.00     0.027 A
HETATM   33  C1  UNL     1      10.374  55.552  95.387  1.00  0.00     0.079 A
HETATM   34  C25 UNL     1      10.170  54.487  94.533  1.00  0.00     0.027 A
HETATM   35  C24 UNL     1      11.173  54.049  93.695  1.00  0.00     0.031 A
BRANCH  33  36
HETATM   36  S1  UNL     1       9.152  56.166  96.470  1.00  0.00     0.256 S
HETATM   37  O1  UNL     1       8.074  55.153  96.621  1.00  0.00    -0.201 OA
HETATM   38  O2  UNL     1       8.588  57.431  95.885  1.00  0.00    -0.201 OA
BRANCH  36  39
HETATM   39  N1  UNL     1       9.861  56.485  98.031  1.00  0.00    -0.324 N
ATOM     40  H12 UNL     1       9.360  56.884  98.825  1.00  0.00     0.169 HD
ATOM     41  H11 UNL     1      10.843  56.209  98.015  1.00  0.00     0.169 HD
ENDBRANCH  36  39
ENDBRANCH  33  36
ENDBRANCH  28  30
ENDBRANCH   1  28
TORSDOF 10
ENDMDL