MODEL 3
REMARK VINA RESULT: -8.052410542      3.909      6.292
REMARK  10 active torsions:
REMARK  status: ('A' for Active; 'I' for Inactive)
REMARK    1  A    between atoms: N1_4  and  C3_5
REMARK    2  A    between atoms: C3_5  and  C4_6
REMARK    3  A    between atoms: C8_10  and  C9_11
REMARK    4  A    between atoms: C9_11  and  N2_12
REMARK    5  A    between atoms: N2_12  and  C10_14
REMARK    6  A    between atoms: C14_20  and  N4_21
REMARK    7  A    between atoms: N4_21  and  C15_23
REMARK    8  A    between atoms: C18_28  and  O2_29
REMARK    9  A    between atoms: O2_29  and  C19_30
REMARK   10  A    between atoms: C28_40  and  O3_41
ROOT
HETATM    1  C10 UNL     1      10.515  50.276  88.971  1.00  0.00     0.116 A
HETATM    2  N3  UNL     1      10.181  50.257  90.261  1.00  0.00    -0.352 N
ATOM      3  H3  UNL     1       9.640  49.485  90.650  1.00  0.00     0.166 HD
HETATM    4  C11 UNL     1      10.580  51.295  91.046  1.00  0.00     0.090 A
HETATM    5  C12 UNL     1      11.310  52.356  90.567  1.00  0.00     0.033 A
HETATM    6  C13 UNL     1      11.647  52.373  89.246  1.00  0.00     0.023 A
HETATM    7  C14 UNL     1      12.397  53.454  88.715  1.00  0.00     0.114 A
HETATM    8  N5  UNL     1      12.702  53.418  87.414  1.00  0.00    -0.322 N
ATOM      9  H5  UNL     1      13.243  54.194  87.033  1.00  0.00     0.169 HD
HETATM   10  C18 UNL     1      12.339  52.402  86.546  1.00  0.00     0.150 A
HETATM   11  C25 UNL     1      11.604  51.368  87.113  1.00  0.00     0.072 A
HETATM   12  C26 UNL     1      11.256  51.344  88.449  1.00  0.00     0.026 A
ENDROOT
BRANCH   1  13
HETATM   13  N2  UNL     1      10.167  49.387  88.167  1.00  0.00    -0.351 N
ATOM     14  H2  UNL     1      10.960  48.905  87.745  1.00  0.00     0.166 HD
BRANCH  13  15
HETATM   15  C9  UNL     1       8.957  48.912  87.721  1.00  0.00     0.104 C
BRANCH  15  16
HETATM   16  C8  UNL     1       8.605  49.072  86.284  1.00  0.00     0.018 A
HETATM   17  C7  UNL     1       8.744  48.057  85.397  1.00  0.00     0.016 A
HETATM   18  C6  UNL     1       8.307  48.266  84.089  1.00  0.00     0.002 A
HETATM   19  C5  UNL     1       7.748  49.486  83.735  1.00  0.00     0.012 A
HETATM   20  C4  UNL     1       7.603  50.511  84.605  1.00  0.00    -0.001 A
HETATM   21  C27 UNL     1       8.064  50.256  85.912  1.00  0.00     0.136 A
HETATM   22  F1  UNL     1       7.922  51.276  86.845  1.00  0.00    -0.205 F
BRANCH  20  23
HETATM   23  C3  UNL     1       7.153  51.911  84.331  1.00  0.00     0.168 C
BRANCH  23  24
HETATM   24  N1  UNL     1       7.832  52.618  83.305  1.00  0.00    -0.333 N
HETATM   25  C2  UNL     1       7.025  53.043  82.100  1.00  0.00     0.231 C
HETATM   26  C1  UNL     1       7.677  52.048  81.100  1.00  0.00     0.254 C
HETATM   27  O1  UNL     1       7.001  51.252  80.515  1.00  0.00    -0.270 OA
HETATM   28  N7  UNL     1       9.083  52.200  80.986  1.00  0.00    -0.266 N
HETATM   29  N6  UNL     1       9.835  52.613  82.075  1.00  0.00    -0.263 N
ATOM     30  H7  UNL     1       9.543  52.004  80.096  1.00  0.00     0.190 HD
HETATM   31  C28 UNL     1       9.232  52.842  83.257  1.00  0.00     0.235 C
ATOM     32  H6  UNL     1      10.842  52.742  81.981  1.00  0.00     0.190 HD
BRANCH  31  33
HETATM   33  O3  UNL     1       9.974  53.276  84.333  1.00  0.00    -0.331 OA
ATOM     34  H3  UNL     1       9.660  53.908  84.968  1.00  0.00     0.221 HD
ENDBRANCH  31  33
ENDBRANCH  23  24
ENDBRANCH  20  23
ENDBRANCH  15  16
ENDBRANCH  13  15
ENDBRANCH   1  13
BRANCH   7  35
HETATM   35  N4  UNL     1      12.709  54.313  89.515  1.00  0.00    -0.371 N
ATOM     36  H4  UNL     1      11.846  54.413  90.049  1.00  0.00     0.161 HD
BRANCH  35  37
HETATM   37  C15 UNL     1      13.505  55.215  90.123  1.00  0.00     0.083 A
HETATM   38  C16 UNL     1      14.278  54.876  91.428  1.00  0.00     0.027 A
HETATM   39  C17 UNL     1      15.018  55.036  90.155  1.00  0.00     0.027 A
ENDBRANCH  35  37
ENDBRANCH   7  35
BRANCH  10  40
HETATM   40  O2  UNL     1      12.684  52.449  85.286  1.00  0.00    -0.294 OA
BRANCH  40  41
HETATM   41  C19 UNL     1      13.452  52.097  84.286  1.00  0.00     0.077 A
HETATM   42  C20 UNL     1      13.227  51.120  83.336  1.00  0.00     0.037 A
HETATM   43  C21 UNL     1      14.162  50.873  82.325  1.00  0.00     0.003 A
HETATM   44  C22 UNL     1      15.318  51.582  82.240  1.00  0.00     0.000 A
HETATM   45  C23 UNL     1      15.588  52.568  83.167  1.00  0.00     0.003 A
HETATM   46  C24 UNL     1      14.676  52.801  84.146  1.00  0.00     0.037 A
ENDBRANCH  40  41
ENDBRANCH  10  40
TORSDOF 10
ENDMDL