MODEL 4
REMARK VINA RESULT: -7.498160904      1.535      2.205
REMARK  10 active torsions:
REMARK  status: ('A' for Active; 'I' for Inactive)
REMARK    1  A    between atoms: O1_2  and  C2_3
REMARK    2  A    between atoms: C5_6  and  N1_7
REMARK    3  A    between atoms: N1_7  and  C6_9
REMARK    4  A    between atoms: C9_15  and  N3_16
REMARK    5  A    between atoms: N3_16  and  C10_18
REMARK    6  A    between atoms: C10_18  and  C11_19
REMARK    7  A    between atoms: C11_19  and  C12_20
REMARK    8  A    between atoms: C12_20  and  N4_21
REMARK    9  A    between atoms: C19_31  and  C20_32
REMARK   10  A    between atoms: N8_41  and  O2_42
ROOT
HETATM    1  N1  UNL     1      11.215  52.137  88.297  1.00  0.00    -0.192 N
ATOM      2  H1  UNL     1      10.857  51.405  88.912  1.00  0.00     0.184 HD
ENDROOT
BRANCH   1   3
HETATM    3  C5  UNL     1      10.751  52.230  86.932  1.00  0.00     0.050 A
HETATM    4  C4  UNL     1       9.494  52.704  86.645  1.00  0.00     0.033 A
HETATM    5  C3  UNL     1       9.089  52.778  85.334  1.00  0.00     0.040 A
HETATM    6  C2  UNL     1       9.939  52.376  84.282  1.00  0.00     0.082 A
HETATM    7  C19 UNL     1      11.176  51.908  84.548  1.00  0.00     0.046 A
HETATM    8  C18 UNL     1      11.561  51.845  85.898  1.00  0.00     0.048 A
BRANCH   6   9
HETATM    9  O1  UNL     1       9.459  52.472  82.990  1.00  0.00    -0.355 OA
HETATM   10  C1  UNL     1       8.239  53.132  82.751  1.00  0.00     0.210 C
ENDBRANCH   6   9
BRANCH   7  11
HETATM   11  C20 UNL     1      12.179  51.524  83.538  1.00  0.00     0.147 A
HETATM   12  N7  UNL     1      13.512  51.826  83.660  1.00  0.00    -0.338 N
HETATM   13  C21 UNL     1      14.199  51.420  82.594  1.00  0.00     0.063 A
ATOM     14  H7  UNL     1      13.923  52.301  84.463  1.00  0.00     0.167 HD
HETATM   15  C22 UNL     1      15.546  51.482  82.231  1.00  0.00     0.032 A
HETATM   16  C26 UNL     1      13.305  50.833  81.745  1.00  0.00     0.091 A
HETATM   17  C23 UNL     1      15.979  50.963  81.036  1.00  0.00     0.002 A
HETATM   18  C24 UNL     1      15.063  50.376  80.191  1.00  0.00     0.002 A
HETATM   19  C25 UNL     1      13.721  50.307  80.540  1.00  0.00     0.034 A
HETATM   20  N8  UNL     1      12.080  50.922  82.365  1.00  0.00    -0.205 N
BRANCH  20  21
HETATM   21  O2  UNL     1      10.959  50.445  81.735  1.00  0.00    -0.281 OA
ATOM     22  H2  UNL     1      10.878  49.713  81.134  1.00  0.00     0.245 HD
ENDBRANCH  20  21
ENDBRANCH   7  11
ENDBRANCH   1   3
BRANCH   1  23
HETATM   23  C6  UNL     1      12.089  52.986  88.738  1.00  0.00     0.684 A
HETATM   24  N2  UNL     1      13.023  53.552  87.950  1.00  0.00    -0.200 N
HETATM   25  C7  UNL     1      13.920  54.438  88.458  1.00  0.00     0.133 A
ATOM     26  H2  UNL     1      13.058  53.312  86.959  1.00  0.00     0.183 HD
HETATM   27  C8  UNL     1      13.914  54.794  89.788  1.00  0.00     0.094 A
HETATM   28 CL1  UNL     1      15.073  55.937  90.433  1.00  0.00    -0.079 Cl
HETATM   29  C9  UNL     1      12.938  54.198  90.592  1.00  0.00     0.140 A
HETATM   30  N6  UNL     1      12.076  53.328  90.037  1.00  0.00    -0.175 N
ATOM     31  H6  UNL     1      11.371  52.903  90.639  1.00  0.00     0.186 HD
BRANCH  29  32
HETATM   32  N3  UNL     1      12.935  54.528  91.820  1.00  0.00    -0.374 N
ATOM     33  H3  UNL     1      12.639  55.481  92.030  1.00  0.00     0.161 HD
BRANCH  32  34
HETATM   34  C10 UNL     1      13.300  53.717  92.943  1.00  0.00     0.123 C
BRANCH  34  35
HETATM   35  C11 UNL     1      13.340  54.510  94.238  1.00  0.00     0.050 C
BRANCH  35  36
HETATM   36  C12 UNL     1      12.060  55.284  94.443  1.00  0.00     0.274 C
BRANCH  36  37
HETATM   37  N4  UNL     1      12.015  55.980  95.688  1.00  0.00     0.091 N
HETATM   38  C13 UNL     1      11.248  57.205  95.624  1.00  0.00     0.302 C
HETATM   39  C14 UNL     1       9.777  56.978  95.845  1.00  0.00     0.302 C
HETATM   40  N5  UNL     1       9.446  55.961  96.776  1.00  0.00     0.087 N
HETATM   41  C15 UNL     1       9.282  56.436  98.132  1.00  0.00     0.310 C
HETATM   42  C16 UNL     1      10.257  54.771  96.702  1.00  0.00     0.302 C
HETATM   43  C17 UNL     1      11.702  55.191  96.838  1.00  0.00     0.302 C
ENDBRANCH  36  37
ENDBRANCH  35  36
ENDBRANCH  34  35
ENDBRANCH  32  34
ENDBRANCH  29  32
ENDBRANCH   1  23
TORSDOF 10
ENDMDL