MODEL 1
REMARK VINA RESULT: -7.182023307      0.000      0.000
REMARK  13 active torsions:
REMARK  status: ('A' for Active; 'I' for Inactive)
REMARK    1  A    between atoms: O1_1  and  C1_3
REMARK    2  A    between atoms: C1_3  and  C2_4
REMARK    3  A    between atoms: C2_4  and  O2_5
REMARK    4  A    between atoms: C2_4  and  C3_7
REMARK    5  A    between atoms: C3_7  and  N1_8
REMARK    6  A    between atoms: N2_11  and  C6_12
REMARK    7  A    between atoms: C6_12  and  C7_13
REMARK    8  A    between atoms: C7_13  and  N3_14
REMARK    9  A    between atoms: N3_14  and  C8_15
REMARK   10  A    between atoms: C9_18  and  C10_19
REMARK   11  A    between atoms: C19_31  and  C20_32
REMARK   12  A    between atoms: C20_32  and  C21_33
REMARK   13  A    between atoms: C21_33  and  C22_34
ROOT
HETATM    1  C8  UNL     1      10.953  53.332  88.445  1.00  0.00     0.186 A
HETATM    2  N4  UNL     1       9.818  53.674  89.160  1.00  0.00    -0.316 N
ATOM      3  H4  UNL     1       9.924  53.963  90.132  1.00  0.00     0.170 HD
HETATM    4  C9  UNL     1       8.600  53.645  88.638  1.00  0.00     0.118 A
HETATM    5  N5  UNL     1       8.493  53.258  87.351  1.00  0.00    -0.341 N
ATOM      6  H5  UNL     1       7.563  53.229  86.933  1.00  0.00     0.167 HD
HETATM    7  C16 UNL     1       9.537  52.909  86.592  1.00  0.00     0.050 A
HETATM    8  C17 UNL     1       9.366  52.512  85.266  1.00  0.00     0.056 A
HETATM    9  C18 UNL     1      10.449  52.151  84.497  1.00  0.00     0.055 A
HETATM   10 CL1  UNL     1      10.243  51.648  82.823  1.00  0.00    -0.083 Cl
HETATM   11  C19 UNL     1      11.728  52.173  85.012  1.00  0.00     0.040 A
HETATM   12  C26 UNL     1      11.862  52.569  86.321  1.00  0.00     0.041 A
HETATM   13  C27 UNL     1      10.791  52.938  87.120  1.00  0.00     0.050 A
ENDROOT
BRANCH   1  14
HETATM   14  N3  UNL     1      12.045  53.368  88.964  1.00  0.00    -0.428 NA
BRANCH  14  15
HETATM   15  C7  UNL     1      13.132  53.766  89.657  1.00  0.00     0.239 C
BRANCH  15  16
HETATM   16  C6  UNL     1      12.757  54.491  90.974  1.00  0.00     0.150 C
BRANCH  16  17
HETATM   17  N2  UNL     1      12.612  53.580  92.044  1.00  0.00    -0.407 N
HETATM   18  C5  UNL     1      13.599  53.577  93.059  1.00  0.00     0.147 C
HETATM   19  C4  UNL     1      13.315  54.384  94.278  1.00  0.00     0.291 C
HETATM   20  N1  UNL     1      11.925  54.306  94.733  1.00  0.00     0.094 N
HETATM   21  C29 UNL     1      11.212  53.312  94.021  1.00  0.00     0.291 C
HETATM   22  C28 UNL     1      11.267  53.516  92.513  1.00  0.00     0.147 C
BRANCH  20  23
HETATM   23  C3  UNL     1      11.419  55.621  94.793  1.00  0.00     0.306 C
BRANCH  23  24
HETATM   24  C2  UNL     1      11.975  56.570  95.786  1.00  0.00     0.170 C
BRANCH  24  25
HETATM   25  C1  UNL     1      11.326  57.948  95.579  1.00  0.00     0.197 C
BRANCH  25  26
HETATM   26  O1  UNL     1      12.242  58.943  95.930  1.00  0.00    -0.398 OA
ATOM     27  H1  UNL     1      12.385  59.512  95.182  1.00  0.00     0.209 HD
ENDBRANCH  25  26
ENDBRANCH  24  25
BRANCH  24  28
HETATM   28  O2  UNL     1      11.682  56.200  97.082  1.00  0.00    -0.392 OA
ATOM     29  H2  UNL     1      11.142  55.421  97.018  1.00  0.00     0.210 HD
ENDBRANCH  24  28
ENDBRANCH  23  24
ENDBRANCH  20  23
ENDBRANCH  16  17
ENDBRANCH  15  16
ENDBRANCH  14  15
ENDBRANCH   1  14
BRANCH   4  30
HETATM   30  C10 UNL     1       7.401  54.017  89.405  1.00  0.00     0.008 A
HETATM   31  C11 UNL     1       6.343  54.687  88.859  1.00  0.00     0.015 A
HETATM   32  C12 UNL     1       5.215  55.029  89.615  1.00  0.00     0.001 A
HETATM   33  C13 UNL     1       5.154  54.687  90.949  1.00  0.00     0.000 A
HETATM   34  C14 UNL     1       6.219  54.011  91.506  1.00  0.00     0.001 A
HETATM   35  C15 UNL     1       7.329  53.682  90.734  1.00  0.00     0.015 A
ENDBRANCH   4  30
BRANCH  11  36
HETATM   36  C20 UNL     1      12.877  51.798  84.239  1.00  0.00    -0.065 C
BRANCH  36  37
HETATM   37  C21 UNL     1      13.833  51.462  83.575  1.00  0.00    -0.096 C
BRANCH  37  38
HETATM   38  C22 UNL     1      14.979  51.033  82.767  1.00  0.00     0.065 C
HETATM   39  C23 UNL     1      14.593  50.963  81.326  1.00  0.00     0.017 C
HETATM   40  C24 UNL     1      15.788  51.815  81.005  1.00  0.00     0.002 C
HETATM   41  C25 UNL     1      16.008  52.099  82.487  1.00  0.00     0.017 C
ENDBRANCH  37  38
ENDBRANCH  36  37
ENDBRANCH  11  36
TORSDOF 13
ENDMDL