MODEL 4
REMARK VINA RESULT: -8.187851916      1.977      2.317
REMARK  10 active torsions:
REMARK  status: ('A' for Active; 'I' for Inactive)
REMARK    1  A    between atoms: C4_4  and  C5_5
REMARK    2  A    between atoms: C5_5  and  C6_6
REMARK    3  A    between atoms: C6_6  and  N1_7
REMARK       I    between atoms: N1_7  and  C7_9
REMARK    4  A    between atoms: C7_9  and  C8_11
REMARK    5  A    between atoms: C10_15  and  N3_16
REMARK    6  A    between atoms: N3_16  and  C11_17
REMARK    7  A    between atoms: C14_20  and  N4_21
REMARK    8  A    between atoms: N4_21  and  C15_23
REMARK    9  A    between atoms: C24_37  and  O2_38
REMARK   10  A    between atoms: C26_42  and  N8_43
ROOT
HETATM    1  C1  UNL     1      14.998  55.884  90.056  1.00  0.00     0.017 C
HETATM    2  C2  UNL     1      14.392  55.242  90.880  1.00  0.00    -0.090 C
HETATM    3  C3  UNL     1      13.684  54.483  91.893  1.00  0.00     0.059 C
HETATM    4  C4  UNL     1      14.206  53.384  92.374  1.00  0.00    -0.016 C
ENDROOT
BRANCH   4   5
HETATM    5  C5  UNL     1      13.545  52.533  93.425  1.00  0.00     0.047 C
BRANCH   5   6
HETATM    6  C6  UNL     1      12.971  51.294  92.787  1.00  0.00     0.126 C
BRANCH   6   7
HETATM    7  N1  UNL     1      12.647  51.376  91.406  1.00  0.00    -0.356 N
HETATM    8  C7  UNL     1      11.408  51.746  90.846  1.00  0.00     0.256 C
HETATM    9  O1  UNL     1      10.449  52.052  91.592  1.00  0.00    -0.267 OA
ATOM     10  H1  UNL     1      13.392  51.141  90.750  1.00  0.00     0.162 HD
BRANCH   8  11
HETATM   11  C8  UNL     1      11.234  51.789  89.413  1.00  0.00     0.091 A
HETATM   12  C9  UNL     1      11.421  50.646  88.679  1.00  0.00     0.113 A
HETATM   13  N2  UNL     1      11.186  50.667  87.372  1.00  0.00    -0.325 N
HETATM   14  C10 UNL     1      10.769  51.765  86.712  1.00  0.00     0.261 A
ATOM     15  H2  UNL     1      11.328  49.809  86.841  1.00  0.00     0.169 HD
HETATM   16  N7  UNL     1      10.597  52.890  87.479  1.00  0.00    -0.301 N
HETATM   17  C26 UNL     1      10.813  52.933  88.795  1.00  0.00     0.121 A
ATOM     18  H7  UNL     1      10.287  53.744  87.016  1.00  0.00     0.171 HD
BRANCH  14  19
HETATM   19  N3  UNL     1      10.495  51.795  85.565  1.00  0.00    -0.368 NA
BRANCH  19  20
HETATM   20  C11 UNL     1      10.254  51.740  84.274  1.00  0.00     0.145 A
HETATM   21  C12 UNL     1      11.070  51.115  83.360  1.00  0.00     0.065 A
HETATM   22  C13 UNL     1      10.822  51.050  82.014  1.00  0.00     0.038 A
HETATM   23  C14 UNL     1      11.651  50.414  81.116  1.00  0.00     0.119 A
HETATM   24  C22 UNL     1       9.672  51.653  81.538  1.00  0.00     0.050 A
HETATM   25  N5  UNL     1      11.316  50.400  79.815  1.00  0.00    -0.338 N
HETATM   26  C21 UNL     1      10.195  50.987  79.354  1.00  0.00     0.182 A
ATOM     27  H5  UNL     1      11.932  49.929  79.152  1.00  0.00     0.168 HD
HETATM   28  N6  UNL     1       9.395  51.603  80.227  1.00  0.00    -0.351 N
ATOM     29  H6  UNL     1       8.545  52.052  79.885  1.00  0.00     0.166 HD
HETATM   30  C23 UNL     1       8.819  52.294  82.424  1.00  0.00     0.070 A
HETATM   31  C24 UNL     1       9.084  52.350  83.769  1.00  0.00     0.111 A
BRANCH  23  32
HETATM   32  N4  UNL     1      12.720  49.846  81.552  1.00  0.00    -0.342 N
ATOM     33  H4  UNL     1      12.685  48.916  81.968  1.00  0.00     0.167 HD
BRANCH  32  34
HETATM   34  C15 UNL     1      13.948  50.546  81.437  1.00  0.00     0.036 A
HETATM   35  C16 UNL     1      14.592  50.658  80.227  1.00  0.00     0.029 A
HETATM   36  C17 UNL     1      15.790  51.347  80.083  1.00  0.00     0.005 A
HETATM   37  C18 UNL     1      16.376  51.947  81.172  1.00  0.00     0.042 A
HETATM   38  C19 UNL     1      15.752  51.846  82.385  1.00  0.00     0.118 A
HETATM   39  F1  UNL     1      16.336  52.437  83.449  1.00  0.00    -0.206 F
HETATM   40  C20 UNL     1      14.560  51.158  82.518  1.00  0.00     0.071 A
ENDBRANCH  32  34
ENDBRANCH  23  32
BRANCH  31  41
HETATM   41  O2  UNL     1       8.209  53.000  84.626  1.00  0.00    -0.352 OA
HETATM   42  C25 UNL     1       7.153  52.263  85.198  1.00  0.00     0.210 C
ENDBRANCH  31  41
ENDBRANCH  19  20
ENDBRANCH  14  19
BRANCH  17  43
HETATM   43  N8  UNL     1      10.614  54.052  89.457  1.00  0.00    -0.380 N
HETATM   44  C27 UNL     1       9.257  54.545  89.538  1.00  0.00     0.147 C
ATOM     45  H8  UNL     1      11.387  54.552  89.896  1.00  0.00     0.160 HD
ENDBRANCH  17  43
ENDBRANCH   8  11
ENDBRANCH   6   7
ENDBRANCH   5   6
ENDBRANCH   4   5
TORSDOF 10
ENDMDL