MODEL 5
REMARK VINA RESULT: -7.887628410      1.316      2.156
REMARK  9 active torsions:
REMARK  status: ('A' for Active; 'I' for Inactive)
REMARK    1  A    between atoms: C2_5  and  O2_6
REMARK    2  A    between atoms: C3_8  and  C4_9
REMARK    3  A    between atoms: N2_10  and  C5_12
REMARK    4  A    between atoms: C5_12  and  C6_13
REMARK    5  A    between atoms: C5_12  and  C13_22
REMARK    6  A    between atoms: C6_13  and  O3_14
REMARK    7  A    between atoms: O3_14  and  C7_15
REMARK    8  A    between atoms: C13_22  and  O4_23
REMARK    9  A    between atoms: O4_23  and  C14_24
ROOT
HETATM    1  C5  UNL     1      11.284  52.706  86.567  1.00  0.00     0.129 C
ENDROOT
BRANCH   1   2
HETATM    2  N2  UNL     1      11.520  53.093  87.941  1.00  0.00    -0.389 N
HETATM    3  C4  UNL     1      12.706  53.397  88.342  1.00  0.00     0.105 C
ATOM      4  H2  UNL     1      10.741  53.127  88.598  1.00  0.00     0.159 HD
BRANCH   3   5
HETATM    5  C3  UNL     1      12.897  53.783  89.744  1.00  0.00     0.098 A
HETATM    6  C2  UNL     1      12.431  52.990  90.761  1.00  0.00     0.161 A
HETATM    7  N1  UNL     1      12.589  53.315  92.043  1.00  0.00    -0.288 N
HETATM    8  C1  UNL     1      13.232  54.465  92.321  1.00  0.00     0.329 A
ATOM      9  H1  UNL     1      12.236  52.714  92.788  1.00  0.00     0.172 HD
HETATM   10  O1  UNL     1      13.375  54.758  93.547  1.00  0.00    -0.247 OA
HETATM   11  N3  UNL     1      13.708  55.276  91.368  1.00  0.00    -0.275 N
HETATM   12  C24 UNL     1      13.550  54.952  90.074  1.00  0.00     0.265 A
ATOM     13  H3  UNL     1      14.189  56.138  91.624  1.00  0.00     0.173 HD
HETATM   14  O5  UNL     1      13.996  55.713  89.177  1.00  0.00    -0.267 OA
BRANCH   6  15
HETATM   15  O2  UNL     1      11.775  51.818  90.431  1.00  0.00    -0.345 OA
ATOM     16  H2  UNL     1      12.277  51.073  90.121  1.00  0.00     0.219 HD
ENDBRANCH   6  15
ENDBRANCH   3   5
ENDBRANCH   1   2
BRANCH   1  17
HETATM   17  C6  UNL     1      10.803  51.293  86.567  1.00  0.00     0.203 C
BRANCH  17  18
HETATM   18  O3  UNL     1      11.173  50.560  87.694  1.00  0.00    -0.349 OA
BRANCH  18  19
HETATM   19  C7  UNL     1      12.069  49.513  87.526  1.00  0.00     0.068 A
HETATM   20  C8  UNL     1      12.372  49.048  86.263  1.00  0.00     0.038 A
HETATM   21  C9  UNL     1      13.264  48.005  86.076  1.00  0.00     0.022 A
HETATM   22  C10 UNL     1      13.884  47.389  87.145  1.00  0.00     0.011 A
HETATM   23 BR1  UNL     1      15.114  45.947  86.867  1.00  0.00    -0.051 Br
HETATM   24  C11 UNL     1      13.582  47.853  88.407  1.00  0.00     0.022 A
HETATM   25  C12 UNL     1      12.693  48.893  88.592  1.00  0.00     0.038 A
ENDBRANCH  18  19
ENDBRANCH  17  18
ENDBRANCH   1  17
BRANCH   1  26
HETATM   26  C13 UNL     1      12.590  52.879  85.821  1.00  0.00     0.203 C
BRANCH  26  27
HETATM   27  O4  UNL     1      12.648  51.937  84.738  1.00  0.00    -0.348 OA
BRANCH  27  28
HETATM   28  C14 UNL     1      13.723  51.920  83.863  1.00  0.00     0.080 A
HETATM   29  C15 UNL     1      14.857  52.660  84.116  1.00  0.00     0.037 A
HETATM   30  C16 UNL     1      15.897  52.606  83.212  1.00  0.00     0.004 A
HETATM   31  C17 UNL     1      15.811  51.830  82.074  1.00  0.00     0.012 A
HETATM   32  C18 UNL     1      14.659  51.106  81.858  1.00  0.00    -0.023 A
HETATM   33  C19 UNL     1      14.531  50.316  80.732  1.00  0.00     0.012 A
HETATM   34  C23 UNL     1      13.585  51.120  82.728  1.00  0.00     0.007 A
HETATM   35  C20 UNL     1      13.394  49.587  80.496  1.00  0.00     0.001 A
HETATM   36  C21 UNL     1      12.331  49.609  81.371  1.00  0.00     0.001 A
HETATM   37  C22 UNL     1      12.437  50.390  82.502  1.00  0.00     0.015 A
ENDBRANCH  27  28
ENDBRANCH  26  27
ENDBRANCH   1  26
TORSDOF 9
ENDMDL