MODEL 5
REMARK VINA RESULT: -5.582585778      7.065     11.008
REMARK  7 active torsions:
REMARK  status: ('A' for Active; 'I' for Inactive)
REMARK    1  A    between atoms: C2_2  and  C3_3
REMARK    2  A    between atoms: C3_3  and  C4_4
REMARK    3  A    between atoms: C4_4  and  C5_5
REMARK    4  A    between atoms: C5_5  and  C6_6
REMARK    5  A    between atoms: C6_6  and  C7_7
REMARK    6  A    between atoms: C18_27  and  C19_28
REMARK    7  A    between atoms: C19_28  and  N3_29
ROOT
HETATM    1  C7  UNL     1       9.513  50.345  82.464  1.00  0.00     0.176 C
HETATM    2  N1  UNL     1      10.483  49.878  83.429  1.00  0.00    -0.348 N
ATOM      3  H1  UNL     1      10.172  49.152  84.074  1.00  0.00     0.163 HD
HETATM    4  C8  UNL     1      11.818  50.322  83.574  1.00  0.00     0.218 C
HETATM    5  O1  UNL     1      12.724  49.430  83.541  1.00  0.00    -0.274 OA
HETATM    6  C9  UNL     1      12.270  51.714  83.759  1.00  0.00     0.103 C
HETATM    7  C10 UNL     1      13.607  51.672  84.509  1.00  0.00     0.009 C
HETATM    8  C11 UNL     1      14.198  53.032  84.681  1.00  0.00     0.003 C
HETATM    9  C12 UNL     1      13.449  53.877  85.685  1.00  0.00     0.039 C
HETATM   10  C13 UNL     1      13.502  53.199  87.037  1.00  0.00     0.194 C
HETATM   11  F1  UNL     1      12.289  52.540  87.208  1.00  0.00    -0.247 F
HETATM   12  C14 UNL     1      13.589  54.274  88.098  1.00  0.00     0.204 C
HETATM   13  O2  UNL     1      13.409  53.754  89.380  1.00  0.00    -0.386 OA
HETATM   14  C15 UNL     1      12.150  54.000  89.874  1.00  0.00     0.194 C
HETATM   15  C16 UNL     1      11.688  52.803  90.658  1.00  0.00     0.207 C
HETATM   16  O3  UNL     1      10.825  53.120  91.705  1.00  0.00    -0.302 OA
HETATM   17  C17 UNL     1       9.678  52.472  92.068  1.00  0.00     0.360 C
HETATM   18  O4  UNL     1       9.431  52.060  93.244  1.00  0.00    -0.239 OA
HETATM   19  N2  UNL     1       8.670  52.222  91.095  1.00  0.00    -0.331 N
ATOM     20  H2  UNL     1       8.088  51.393  91.220  1.00  0.00     0.165 HD
HETATM   21  C18 UNL     1       8.411  53.046  89.956  1.00  0.00     0.112 C
HETATM   22  C20 UNL     1       7.116  52.630  89.292  1.00  0.00     0.030 C
HETATM   23  C21 UNL     1       7.270  52.466  87.803  1.00  0.00     0.029 C
HETATM   24  C22 UNL     1       7.907  51.164  87.493  1.00  0.00    -0.029 C
HETATM   25  C23 UNL     1       8.331  50.825  86.297  1.00  0.00    -0.011 C
HETATM   26  C24 UNL     1       8.233  51.696  85.088  1.00  0.00     0.152 C
HETATM   27  N4  UNL     1       7.564  51.033  83.988  1.00  0.00    -0.351 N
HETATM   28  C25 UNL     1       6.105  51.237  83.897  1.00  0.00     0.153 C
HETATM   29  C26 UNL     1       8.163  50.222  83.012  1.00  0.00     0.242 C
HETATM   30  O5  UNL     1       7.454  49.280  82.559  1.00  0.00    -0.271 OA
ENDROOT
BRANCH   1  31
HETATM   31  C6  UNL     1       9.826  51.687  81.869  1.00  0.00     0.035 C
BRANCH  31  32
HETATM   32  C5  UNL     1      10.176  51.477  80.402  1.00  0.00     0.002 C
BRANCH  32  33
HETATM   33  C4  UNL     1      11.652  51.309  80.177  1.00  0.00     0.000 C
BRANCH  33  34
HETATM   34  C3  UNL     1      12.022  49.867  79.927  1.00  0.00    -0.000 C
BRANCH  34  35
HETATM   35  C2  UNL     1      13.503  49.676  80.186  1.00  0.00    -0.005 C
HETATM   36  C1  UNL     1      14.145  50.986  80.598  1.00  0.00     0.005 C
ENDBRANCH  34  35
ENDBRANCH  33  34
ENDBRANCH  32  33
ENDBRANCH  31  32
ENDBRANCH   1  31
BRANCH  21  37
HETATM   37  C19 UNL     1       8.270  54.511  90.313  1.00  0.00     0.254 C
BRANCH  37  38
HETATM   38  N3  UNL     1       6.933  54.869  90.663  1.00  0.00    -0.077 N
ATOM     39  H33 UNL     1       6.527  55.492  89.964  1.00  0.00     0.274 HD
ATOM     40  H32 UNL     1       6.303  54.074  90.561  1.00  0.00     0.274 HD
ATOM     41  H31 UNL     1       6.862  55.273  91.597  1.00  0.00     0.274 HD
ENDBRANCH  37  38
ENDBRANCH  21  37
TORSDOF 7
ENDMDL