MODEL 4
REMARK VINA RESULT: -8.175140086      1.514      3.760
REMARK  9 active torsions:
REMARK  status: ('A' for Active; 'I' for Inactive)
REMARK    1  A    between atoms: O1_1  and  C1_3
REMARK    2  A    between atoms: C1_3  and  C2_4
REMARK    3  A    between atoms: C1_3  and  C20_25
REMARK    4  A    between atoms: C2_4  and  O2_5
REMARK    5  A    between atoms: O2_5  and  C3_6
REMARK    6  A    between atoms: C3_6  and  C4_7
REMARK    7  A    between atoms: C3_6  and  C10_13
REMARK    8  A    between atoms: C3_6  and  C16_19
REMARK    9  A    between atoms: C20_25  and  N2_26
ROOT
HETATM    1  C2  UNL     1      10.419  51.698  82.931  1.00  0.00     0.203 C
ENDROOT
BRANCH   1   2
HETATM    2  C1  UNL     1      10.094  52.071  84.366  1.00  0.00     0.161 C
BRANCH   2   3
HETATM    3  O1  UNL     1      10.090  53.426  84.596  1.00  0.00    -0.392 OA
ATOM      4  H1  UNL     1      10.023  53.657  85.515  1.00  0.00     0.210 HD
ENDBRANCH   2   3
BRANCH   2   5
HETATM    5  C20 UNL     1      10.943  51.334  85.350  1.00  0.00     0.177 C
BRANCH   5   6
HETATM    6  N2  UNL     1      10.973  52.036  86.644  1.00  0.00    -0.314 N
HETATM    7  C21 UNL     1       9.875  51.714  87.535  1.00  0.00     0.221 C
HETATM    8  S1  UNL     1      10.511  51.692  89.259  1.00  0.00    -0.104 SA
HETATM    9  C22 UNL     1      11.879  52.842  89.258  1.00  0.00     0.060 A
HETATM   10  C23 UNL     1      12.578  53.445  90.207  1.00  0.00     0.014 A
HETATM   11  C29 UNL     1      12.456  53.310  88.012  1.00  0.00     0.138 A
HETATM   12  C24 UNL     1      12.404  53.321  91.593  1.00  0.00     0.015 A
HETATM   13  C28 UNL     1      13.552  54.258  89.694  1.00  0.00     0.084 A
HETATM   14  C25 UNL     1      13.211  54.014  92.461  1.00  0.00     0.004 A
HETATM   15  C26 UNL     1      14.187  54.828  91.932  1.00  0.00     0.045 A
HETATM   16  C27 UNL     1      14.369  54.961  90.581  1.00  0.00     0.143 A
HETATM   17  F1  UNL     1      15.312  55.746  90.025  1.00  0.00    -0.204 F
HETATM   18  N3  UNL     1      13.498  54.192  88.416  1.00  0.00    -0.337 N
ATOM     19  H3  UNL     1      14.113  54.699  87.779  1.00  0.00     0.167 HD
HETATM   20  N4  UNL     1      12.000  52.906  86.888  1.00  0.00    -0.286 N
ATOM     21  H4  UNL     1      12.463  53.283  86.062  1.00  0.00     0.188 HD
ENDBRANCH   5   6
ENDBRANCH   2   5
ENDBRANCH   1   2
BRANCH   1  22
HETATM   22  O2  UNL     1      11.061  50.493  82.956  1.00  0.00    -0.361 OA
BRANCH  22  23
HETATM   23  C3  UNL     1      11.694  50.115  81.786  1.00  0.00     0.157 C
BRANCH  23  24
HETATM   24  C4  UNL     1      11.760  48.604  81.802  1.00  0.00    -0.013 A
HETATM   25  C5  UNL     1      12.100  47.855  80.721  1.00  0.00     0.011 A
HETATM   26  C6  UNL     1      12.142  46.463  80.825  1.00  0.00     0.001 A
HETATM   27  C7  UNL     1      11.843  45.835  82.009  1.00  0.00     0.000 A
HETATM   28  C8  UNL     1      11.500  46.589  83.097  1.00  0.00     0.001 A
HETATM   29  C9  UNL     1      11.465  47.945  82.975  1.00  0.00     0.011 A
ENDBRANCH  23  24
BRANCH  23  30
HETATM   30  C10 UNL     1      13.101  50.544  81.681  1.00  0.00    -0.013 A
HETATM   31  C11 UNL     1      13.736  50.523  80.471  1.00  0.00     0.011 A
HETATM   32  C12 UNL     1      15.078  50.925  80.416  1.00  0.00     0.001 A
HETATM   33  C13 UNL     1      15.760  51.335  81.541  1.00  0.00     0.000 A
HETATM   34  C14 UNL     1      15.112  51.352  82.751  1.00  0.00     0.001 A
HETATM   35  C15 UNL     1      13.777  50.950  82.798  1.00  0.00     0.011 A
ENDBRANCH  23  30
BRANCH  23  36
HETATM   36  C16 UNL     1      10.871  50.591  80.625  1.00  0.00     0.053 A
HETATM   37  C17 UNL     1      11.032  51.733  79.880  1.00  0.00     0.030 A
HETATM   38  C18 UNL     1      10.050  51.743  78.934  1.00  0.00     0.019 A
HETATM   39  C19 UNL     1       9.303  50.586  79.131  1.00  0.00     0.088 A
HETATM   40  N1  UNL     1       9.819  49.895  80.166  1.00  0.00    -0.366 N
ATOM     41  H1  UNL     1       9.473  49.009  80.533  1.00  0.00     0.165 HD
ENDBRANCH  23  36
ENDBRANCH  22  23
ENDBRANCH   1  22
TORSDOF 9
ENDMDL