MODEL 3
REMARK VINA RESULT: -8.450238740      1.597      1.986
REMARK  8 active torsions:
REMARK  status: ('A' for Active; 'I' for Inactive)
REMARK    1  A    between atoms: C7_10  and  C8_11
REMARK    2  A    between atoms: C9_12  and  C10_13
REMARK    3  A    between atoms: C12_17  and  N3_18
REMARK    4  A    between atoms: N3_18  and  S1_20
REMARK    5  A    between atoms: C14_26  and  N5_27
REMARK    6  A    between atoms: N5_27  and  C15_28
REMARK    7  A    between atoms: C15_28  and  C16_29
REMARK    8  A    between atoms: C21_34  and  N6_35
ROOT
HETATM    1  C10 UNL     1       8.544  52.334  87.519  1.00  0.00     0.039 A
HETATM    2  C11 UNL     1       7.214  52.778  87.510  1.00  0.00     0.122 A
HETATM    3  N2  UNL     1       6.782  53.824  88.224  1.00  0.00    -0.200 N
ATOM      4  H2  UNL     1       5.800  54.094  88.174  1.00  0.00     0.183 HD
HETATM    5  C12 UNL     1       7.611  54.519  88.997  1.00  0.00     0.694 A
HETATM    6  N4  UNL     1       8.890  54.119  89.020  1.00  0.00    -0.163 N
ATOM      7  H4  UNL     1       9.533  54.650  89.607  1.00  0.00     0.187 HD
HETATM    8  C14 UNL     1       9.425  53.033  88.308  1.00  0.00     0.204 A
ENDROOT
BRANCH   1   9
HETATM    9  C9  UNL     1       9.032  51.139  86.885  1.00  0.00     0.021 C
HETATM   10  C8  UNL     1       9.511  50.936  85.567  1.00  0.00     0.049 C
BRANCH  10  11
HETATM   11  C7  UNL     1      10.818  51.488  85.159  1.00  0.00     0.106 A
HETATM   12  N1  UNL     1      11.521  52.476  85.705  1.00  0.00    -0.341 N
HETATM   13  C6  UNL     1      12.729  52.577  85.036  1.00  0.00     0.061 A
ATOM     14  H1  UNL     1      11.222  53.062  86.485  1.00  0.00     0.167 HD
HETATM   15  C5  UNL     1      13.833  53.374  85.150  1.00  0.00     0.033 A
HETATM   16  C22 UNL     1      12.709  51.585  84.066  1.00  0.00     0.068 A
HETATM   17  C4  UNL     1      14.905  53.165  84.285  1.00  0.00     0.027 A
HETATM   18  C3  UNL     1      14.860  52.185  83.346  1.00  0.00     0.042 A
HETATM   19  C2  UNL     1      13.766  51.367  83.211  1.00  0.00    -0.011 A
HETATM   20 CL1  UNL     1      16.203  51.969  82.250  1.00  0.00    -0.084 Cl
HETATM   21  C1  UNL     1      13.748  50.306  82.186  1.00  0.00     0.052 C
HETATM   22  N7  UNL     1      11.556  50.939  84.142  1.00  0.00    -0.340 N
ATOM     23  H7  UNL     1      11.265  50.165  83.545  1.00  0.00     0.167 HD
ENDBRANCH  10  11
ENDBRANCH   1   9
BRANCH   8  24
HETATM   24  N5  UNL     1      10.568  52.809  88.636  1.00  0.00    -0.398 NA
BRANCH  24  25
HETATM   25  C15 UNL     1      11.779  52.608  89.122  1.00  0.00     0.198 C
BRANCH  25  26
HETATM   26  C16 UNL     1      12.639  53.648  89.703  1.00  0.00     0.026 A
HETATM   27  C17 UNL     1      13.691  54.257  89.054  1.00  0.00     0.016 A
HETATM   28  C18 UNL     1      14.675  54.982  89.741  1.00  0.00     0.001 A
HETATM   29  C19 UNL     1      14.619  55.118  91.111  1.00  0.00     0.002 A
HETATM   30  C20 UNL     1      13.570  54.517  91.775  1.00  0.00     0.037 A
HETATM   31  C21 UNL     1      12.592  53.800  91.108  1.00  0.00     0.115 A
BRANCH  31  32
HETATM   32  N6  UNL     1      11.454  53.366  91.803  1.00  0.00    -0.115 N
HETATM   33  O3  UNL     1      11.657  52.304  92.514  1.00  0.00    -0.532 OA
HETATM   34  O4  UNL     1      10.213  53.852  91.868  1.00  0.00    -0.532 OA
ENDBRANCH  31  32
ENDBRANCH  25  26
ENDBRANCH  24  25
ENDBRANCH   8  24
BRANCH   5  35
HETATM   35  N3  UNL     1       7.217  55.370  89.834  1.00  0.00    -0.117 N
ATOM     36  H3  UNL     1       7.491  55.200  90.802  1.00  0.00     0.197 HD
BRANCH  35  37
HETATM   37  S1  UNL     1       6.292  56.758  89.566  1.00  0.00     0.240 S
HETATM   38  C13 UNL     1       7.327  58.194  89.224  1.00  0.00     0.186 C
HETATM   39  O1  UNL     1       5.583  57.139  90.903  1.00  0.00    -0.206 OA
HETATM   40  O2  UNL     1       5.254  56.698  88.518  1.00  0.00    -0.206 OA
ENDBRANCH  35  37
ENDBRANCH   5  35
TORSDOF 8
ENDMDL