MODEL 4
REMARK VINA RESULT: -7.447168612      1.786      2.356
REMARK  8 active torsions:
REMARK  status: ('A' for Active; 'I' for Inactive)
REMARK    1  A    between atoms: O1_2  and  C2_3
REMARK    2  A    between atoms: C4_5  and  N1_6
REMARK    3  A    between atoms: C12_15  and  N3_16
REMARK    4  A    between atoms: C14_21  and  N5_22
REMARK    5  A    between atoms: N5_22  and  C15_24
REMARK    6  A    between atoms: C15_24  and  C16_25
REMARK    7  A    between atoms: C16_25  and  N6_26
REMARK    8  A    between atoms: N6_26  and  C17_29
ROOT
HETATM    1  N3  UNL     1      11.809  52.704  90.879  1.00  0.00    -0.339 N
ATOM      2  H3  UNL     1      11.123  51.981  90.662  1.00  0.00     0.167 HD
HETATM    3  C13 UNL     1      12.354  53.145  89.844  1.00  0.00     0.140 A
HETATM    4  N4  UNL     1      11.944  52.594  88.658  1.00  0.00    -0.175 N
ATOM      5  H4  UNL     1      11.228  51.867  88.686  1.00  0.00     0.186 HD
HETATM    6  C14 UNL     1      12.429  52.955  87.466  1.00  0.00     0.679 A
HETATM    7  N7  UNL     1      13.372  53.909  87.369  1.00  0.00    -0.201 N
ATOM      8  H7  UNL     1      13.740  54.184  86.458  1.00  0.00     0.183 HD
HETATM    9  C23 UNL     1      13.824  54.495  88.492  1.00  0.00     0.129 A
HETATM   10  C24 UNL     1      13.314  54.113  89.740  1.00  0.00     0.071 A
HETATM   11 BR1  UNL     1      13.948  54.934  91.332  1.00  0.00    -0.046 Br
ENDROOT
BRANCH   1  12
HETATM   12  C12 UNL     1      11.886  52.934  92.220  1.00  0.00     0.067 A
HETATM   13  C2  UNL     1      12.803  52.271  93.009  1.00  0.00     0.097 A
HETATM   14  C3  UNL     1      12.907  52.465  94.368  1.00  0.00     0.068 A
HETATM   15  C4  UNL     1      12.054  53.365  94.977  1.00  0.00     0.033 A
HETATM   16  C10 UNL     1      11.133  54.034  94.202  1.00  0.00     0.032 A
HETATM   17  C11 UNL     1      11.046  53.827  92.852  1.00  0.00     0.035 A
BRANCH  13  18
HETATM   18  O1  UNL     1      13.701  51.343  92.454  1.00  0.00    -0.354 OA
HETATM   19  C1  UNL     1      13.759  50.006  92.835  1.00  0.00     0.210 C
ENDBRANCH  13  18
BRANCH  15  20
HETATM   20  N1  UNL     1      12.085  53.622  96.370  1.00  0.00    -0.377 N
HETATM   21  C5  UNL     1      12.747  52.655  97.214  1.00  0.00     0.153 C
HETATM   22  C6  UNL     1      12.556  52.882  98.673  1.00  0.00     0.291 C
HETATM   23  N2  UNL     1      11.438  53.738  99.010  1.00  0.00     0.087 N
HETATM   24  C7  UNL     1      10.156  53.171  98.722  1.00  0.00     0.310 C
HETATM   25  C8  UNL     1      11.648  55.003  98.348  1.00  0.00     0.291 C
HETATM   26  C9  UNL     1      11.461  54.827  96.860  1.00  0.00     0.153 C
ENDBRANCH  15  20
ENDBRANCH   1  12
BRANCH   6  27
HETATM   27  N5  UNL     1      12.021  52.415  86.360  1.00  0.00    -0.224 N
ATOM     28  H5  UNL     1      11.375  51.629  86.438  1.00  0.00     0.177 HD
BRANCH  27  29
HETATM   29  C15 UNL     1      12.393  52.819  85.048  1.00  0.00     0.165 C
BRANCH  29  30
HETATM   30  C16 UNL     1      12.967  51.675  84.233  1.00  0.00     0.253 C
BRANCH  30  31
HETATM   31  N6  UNL     1      14.276  52.036  83.754  1.00  0.00    -0.069 N
ATOM     32  H62 UNL     1      14.308  53.022  83.498  1.00  0.00     0.277 HD
ATOM     33  H61 UNL     1      14.952  52.038  84.517  1.00  0.00     0.277 HD
BRANCH  31  34
HETATM   34  C17 UNL     1      14.731  51.214  82.673  1.00  0.00     0.186 C
HETATM   35  C18 UNL     1      13.710  51.104  81.559  1.00  0.00     0.033 C
HETATM   36  C19 UNL     1      14.265  50.065  80.583  1.00  0.00     0.002 C
HETATM   37  C20 UNL     1      15.428  50.683  79.834  1.00  0.00     0.000 C
HETATM   38  C21 UNL     1      15.964  51.856  80.588  1.00  0.00     0.002 C
HETATM   39  C22 UNL     1      16.045  51.632  82.084  1.00  0.00     0.033 C
ENDBRANCH  31  34
ENDBRANCH  30  31
ENDBRANCH  29  30
ENDBRANCH  27  29
ENDBRANCH   6  27
TORSDOF 8
ENDMDL