MODEL 3
REMARK VINA RESULT: -8.593816171      1.031      1.200
REMARK  11 active torsions:
REMARK  status: ('A' for Active; 'I' for Inactive)
REMARK    1  A    between atoms: S1_2  and  N1_4
REMARK    2  A    between atoms: S1_2  and  C7_14
REMARK    3  A    between atoms: N1_4  and  C1_6
REMARK    4  A    between atoms: C1_6  and  C2_7
REMARK    5  A    between atoms: C2_7  and  N2_8
REMARK    6  A    between atoms: C12_19  and  N3_20
REMARK    7  A    between atoms: N3_20  and  C13_22
REMARK    8  A    between atoms: C14_25  and  N5_26
REMARK    9  A    between atoms: N5_26  and  C15_28
REMARK   10  A    between atoms: C25_40  and  N7_41
REMARK   11  A    between atoms: N7_41  and  C26_43
ROOT
HETATM    1  C13 UNL     1      11.139  53.463  89.451  1.00  0.00     0.711 A
HETATM    2  N4  UNL     1      11.260  53.698  88.147  1.00  0.00    -0.021 N
ATOM      3  H4  UNL     1      11.440  54.646  87.815  1.00  0.00     0.203 HD
HETATM    4  C14 UNL     1      11.147  52.696  87.269  1.00  0.00     0.711 A
HETATM    5  N6  UNL     1      10.909  51.445  87.693  1.00  0.00    -0.021 N
ATOM      6  H6  UNL     1      10.821  50.681  87.023  1.00  0.00     0.203 HD
HETATM    7  C25 UNL     1      10.786  51.212  89.018  1.00  0.00     0.707 A
HETATM    8  N8  UNL     1      10.902  52.223  89.893  1.00  0.00    -0.021 N
ATOM      9  H8  UNL     1      10.810  52.046  90.893  1.00  0.00     0.203 HD
ENDROOT
BRANCH   1  10
HETATM   10  N3  UNL     1      11.245  54.406  90.341  1.00  0.00    -0.189 N
ATOM     11  H3  UNL     1      10.407  54.947  90.555  1.00  0.00     0.184 HD
BRANCH  10  12
HETATM   12  C12 UNL     1      12.417  54.737  91.028  1.00  0.00     0.072 A
HETATM   13  C7  UNL     1      12.604  54.561  92.379  1.00  0.00     0.106 A
HETATM   14  C8  UNL     1      13.797  54.925  92.960  1.00  0.00     0.027 A
HETATM   15  C9  UNL     1      14.841  55.468  92.250  1.00  0.00     0.002 A
HETATM   16  C10 UNL     1      14.640  55.640  90.887  1.00  0.00     0.002 A
HETATM   17  C11 UNL     1      13.458  55.287  90.272  1.00  0.00     0.031 A
BRANCH  13  18
HETATM   18  S1  UNL     1      11.361  53.873  93.357  1.00  0.00     0.261 S
HETATM   19  O1  UNL     1      10.075  54.681  93.236  1.00  0.00    -0.200 OA
HETATM   20  O2  UNL     1      11.009  52.503  92.855  1.00  0.00    -0.200 OA
BRANCH  18  21
HETATM   21  N1  UNL     1      11.805  53.753  95.017  1.00  0.00    -0.314 N
ATOM     22  H1  UNL     1      12.504  53.104  95.376  1.00  0.00     0.172 HD
BRANCH  21  23
HETATM   23  C1  UNL     1      11.062  54.685  95.842  1.00  0.00     0.162 C
BRANCH  23  24
HETATM   24  C2  UNL     1      11.736  54.976  97.140  1.00  0.00     0.292 C
BRANCH  24  25
HETATM   25  N2  UNL     1      11.793  56.358  97.480  1.00  0.00     0.094 N
HETATM   26  C3  UNL     1      10.732  56.715  98.363  1.00  0.00     0.298 C
HETATM   27  C4  UNL     1       9.597  57.472  97.770  1.00  0.00     0.198 C
HETATM   28  O3  UNL     1       9.831  58.056  96.548  1.00  0.00    -0.388 OA
HETATM   29  C5  UNL     1      11.144  58.515  96.493  1.00  0.00     0.198 C
HETATM   30  C6  UNL     1      12.009  57.272  96.414  1.00  0.00     0.298 C
ENDBRANCH  24  25
ENDBRANCH  23  24
ENDBRANCH  21  23
ENDBRANCH  18  21
ENDBRANCH  13  18
ENDBRANCH  10  12
ENDBRANCH   1  10
BRANCH   4  31
HETATM   31  N5  UNL     1      11.265  52.928  85.998  1.00  0.00    -0.191 N
ATOM     32  H5  UNL     1      10.435  53.071  85.424  1.00  0.00     0.184 HD
BRANCH  31  33
HETATM   33  C15 UNL     1      12.540  52.980  85.416  1.00  0.00     0.050 A
HETATM   34  C16 UNL     1      13.501  53.863  85.897  1.00  0.00     0.031 A
HETATM   35  C17 UNL     1      14.749  53.899  85.311  1.00  0.00     0.014 A
HETATM   36  C18 UNL     1      15.026  53.056  84.254  1.00  0.00    -0.026 A
HETATM   37  C19 UNL     1      16.270  53.089  83.666  1.00  0.00     0.012 A
HETATM   38  C23 UNL     1      14.050  52.179  83.788  1.00  0.00    -0.024 A
HETATM   39  C20 UNL     1      16.520  52.233  82.610  1.00  0.00     0.001 A
HETATM   40  C21 UNL     1      15.555  51.361  82.144  1.00  0.00     0.001 A
HETATM   41  C22 UNL     1      14.304  51.322  82.728  1.00  0.00     0.012 A
HETATM   42  C24 UNL     1      12.813  52.139  84.364  1.00  0.00     0.042 A
ENDBRANCH  31  33
ENDBRANCH   4  31
BRANCH   7  43
HETATM   43  N7  UNL     1      10.559  50.000  89.436  1.00  0.00    -0.220 N
ATOM     44  H7  UNL     1       9.711  49.776  89.956  1.00  0.00     0.178 HD
BRANCH  43  45
HETATM   45  C26 UNL     1      11.542  48.979  89.144  1.00  0.00     0.099 A
HETATM   46  C27 UNL     1      12.066  48.153  90.298  1.00  0.00     0.028 A
HETATM   47  C28 UNL     1      12.947  49.148  89.564  1.00  0.00     0.028 A
ENDBRANCH  43  45
ENDBRANCH   7  43
TORSDOF 11
ENDMDL