MODEL 5
REMARK VINA RESULT: -6.940457261      2.985      4.172
REMARK  12 active torsions:
REMARK  status: ('A' for Active; 'I' for Inactive)
REMARK    1  A    between atoms: C1_4  and  C2_5
REMARK    2  A    between atoms: C1_4  and  N6_40
REMARK    3  A    between atoms: C4_9  and  N3_10
REMARK    4  A    between atoms: C5_13  and  N4_14
REMARK       I    between atoms: N4_14  and  C6_16
REMARK    5  A    between atoms: C6_16  and  C7_18
REMARK    6  A    between atoms: C14_25  and  S1_26
REMARK    7  A    between atoms: S1_26  and  C15_27
REMARK    8  A    between atoms: C15_27  and  C16_28
REMARK    9  A    between atoms: C16_28  and  N5_29
REMARK   10  A    between atoms: N5_29  and  C17_30
REMARK   11  A    between atoms: C17_30  and  C18_31
REMARK   12  A    between atoms: C18_31  and  O2_32
ROOT
HETATM    1  N4  UNL     1      11.771  52.605  88.564  1.00  0.00    -0.318 N
ATOM      2  H4  UNL     1      10.775  52.813  88.629  1.00  0.00     0.169 HD
HETATM    3  C6  UNL     1      12.515  53.276  89.515  1.00  0.00     0.228 C
HETATM    4  O1  UNL     1      13.307  54.198  89.086  1.00  0.00    -0.273 OA
ENDROOT
BRANCH   3   5
HETATM    5  C7  UNL     1      12.493  53.046  90.963  1.00  0.00     0.097 C
HETATM    6  C8  UNL     1      12.167  51.656  91.396  1.00  0.00     0.016 C
HETATM    7  C9  UNL     1      10.683  51.688  91.537  1.00  0.00     0.007 C
HETATM    8  C10 UNL     1      10.317  53.073  91.938  1.00  0.00     0.005 C
HETATM    9  C11 UNL     1       9.233  53.622  91.076  1.00  0.00     0.006 C
HETATM   10  C14 UNL     1      11.552  53.964  91.723  1.00  0.00     0.024 C
HETATM   11  C12 UNL     1       9.622  54.991  90.640  1.00  0.00     0.002 C
HETATM   12  C13 UNL     1      11.098  55.133  90.943  1.00  0.00     0.022 C
BRANCH  10  13
HETATM   13  S1  UNL     1      12.231  54.276  93.343  1.00  0.00    -0.156 SA
BRANCH  13  14
HETATM   14  C15 UNL     1      11.156  54.957  94.562  1.00  0.00     0.102 C
BRANCH  14  15
HETATM   15  C16 UNL     1      11.583  55.043  95.966  1.00  0.00     0.247 C
BRANCH  15  16
HETATM   16  N5  UNL     1      11.385  56.232  96.708  1.00  0.00    -0.060 N
HETATM   17  C19 UNL     1       9.974  56.600  96.809  1.00  0.00     0.263 C
HETATM   18  C20 UNL     1       9.146  55.527  97.483  1.00  0.00     0.195 C
HETATM   19  O3  UNL     1       9.611  55.144  98.715  1.00  0.00    -0.388 OA
HETATM   20  C21 UNL     1      10.936  54.803  98.645  1.00  0.00     0.195 C
HETATM   21  C22 UNL     1      11.770  55.960  98.105  1.00  0.00     0.263 C
BRANCH  16  22
HETATM   22  C17 UNL     1      12.147  57.329  96.236  1.00  0.00     0.263 C
BRANCH  22  23
HETATM   23  C18 UNL     1      11.479  58.688  96.363  1.00  0.00     0.192 C
BRANCH  23  24
HETATM   24  O2  UNL     1      12.526  59.566  96.752  1.00  0.00    -0.399 OA
ATOM     25  H2  UNL     1      12.325  59.793  97.653  1.00  0.00     0.209 HD
ENDBRANCH  23  24
ENDBRANCH  22  23
ENDBRANCH  16  22
ENDBRANCH  15  16
ENDBRANCH  14  15
ENDBRANCH  13  14
ENDBRANCH  10  13
ENDBRANCH   3   5
BRANCH   1  26
HETATM   26  C5  UNL     1      12.034  51.801  87.641  1.00  0.00     0.121 A
HETATM   27  C4  UNL     1      12.157  50.433  87.698  1.00  0.00     0.133 A
HETATM   28  N2  UNL     1      12.437  49.610  86.700  1.00  0.00    -0.349 N
HETATM   29  C3  UNL     1      12.663  49.929  85.419  1.00  0.00     0.112 A
ATOM     30  H2  UNL     1      12.487  48.619  86.934  1.00  0.00     0.167 HD
HETATM   31  C2  UNL     1      12.642  51.206  84.907  1.00  0.00     0.066 A
HETATM   32  S2  UNL     1      12.294  52.420  86.045  1.00  0.00    -0.064 SA
BRANCH  27  33
HETATM   33  N3  UNL     1      11.977  49.854  88.866  1.00  0.00    -0.383 N
ATOM     34  H32 UNL     1      12.761  49.333  89.260  1.00  0.00     0.157 HD
ATOM     35  H31 UNL     1      11.052  49.986  89.277  1.00  0.00     0.157 HD
ENDBRANCH  27  33
BRANCH  31  36
HETATM   36  C1  UNL     1      12.900  51.482  83.492  1.00  0.00     0.115 C
HETATM   37  N1  UNL     1      11.910  51.787  82.729  1.00  0.00    -0.384 N
ATOM     38  H12 UNL     1      10.977  51.824  83.141  1.00  0.00     0.157 HD
ATOM     39  H11 UNL     1      12.089  51.979  81.743  1.00  0.00     0.157 HD
BRANCH  36  40
HETATM   40  N6  UNL     1      14.184  51.431  82.925  1.00  0.00    -0.367 N
HETATM   41  C23 UNL     1      15.260  52.099  83.665  1.00  0.00     0.124 C
HETATM   42  C24 UNL     1      16.406  52.472  82.768  1.00  0.00     0.020 C
HETATM   43  C25 UNL     1      15.964  52.841  81.383  1.00  0.00     0.003 C
HETATM   44  C26 UNL     1      15.219  51.729  80.720  1.00  0.00     0.020 C
HETATM   45  C27 UNL     1      14.543  50.790  81.696  1.00  0.00     0.124 C
ENDBRANCH  36  40
ENDBRANCH  31  36
ENDBRANCH   1  26
TORSDOF 12
ENDMDL