MODEL 3
REMARK VINA RESULT: -8.363364872      4.551      6.307
REMARK  11 active torsions:
REMARK  status: ('A' for Active; 'I' for Inactive)
REMARK    1  A    between atoms: O1_2  and  C2_3
REMARK    2  A    between atoms: C6_7  and  C7_8
REMARK    3  A    between atoms: C7_8  and  N1_9
REMARK    4  A    between atoms: N1_9  and  N2_11
REMARK    5  A    between atoms: N2_11  and  C8_13
REMARK    6  A    between atoms: C8_13  and  N3_15
REMARK    7  A    between atoms: C11_18  and  C12_19
REMARK    8  A    between atoms: C12_19  and  N4_20
REMARK    9  A    between atoms: N4_20  and  C14_22
REMARK   10  A    between atoms: C14_22  and  C15_23
REMARK   11  A    between atoms: C15_23  and  N5_24
ROOT
HETATM    1  N3  UNL     1      10.529  51.749  88.089  1.00  0.00    -0.357 N
HETATM    2  C9  UNL     1      11.706  50.876  87.873  1.00  0.00     0.125 C
HETATM    3  C10 UNL     1      12.138  50.408  89.241  1.00  0.00     0.026 C
HETATM    4  C11 UNL     1      11.036  49.452  89.690  1.00  0.00     0.017 C
HETATM    5  C24 UNL     1       9.827  50.272  89.986  1.00  0.00     0.026 C
HETATM    6  C25 UNL     1       9.588  51.427  89.100  1.00  0.00     0.125 C
ENDROOT
BRANCH   1   7
HETATM    7  C8  UNL     1      10.453  52.875  87.241  1.00  0.00     0.188 C
HETATM    8  S1  UNL     1       9.271  52.901  86.068  1.00  0.00    -0.039 SA
BRANCH   7   9
HETATM    9  N2  UNL     1      11.280  53.998  87.277  1.00  0.00    -0.277 N
ATOM     10  H2  UNL     1      11.201  54.633  88.072  1.00  0.00     0.189 HD
BRANCH   9  11
HETATM   11  N1  UNL     1      12.210  54.295  86.280  1.00  0.00    -0.309 N
ATOM     12  H1  UNL     1      12.016  55.045  85.615  1.00  0.00     0.186 HD
BRANCH  11  13
HETATM   13  C7  UNL     1      13.294  53.644  86.191  1.00  0.00     0.120 C
BRANCH  13  14
HETATM   14  C6  UNL     1      14.063  53.175  85.076  1.00  0.00     0.007 A
HETATM   15  C5  UNL     1      13.707  52.182  84.193  1.00  0.00    -0.009 A
HETATM   16  C4  UNL     1      12.479  51.576  84.333  1.00  0.00     0.016 A
HETATM   17  C28 UNL     1      14.550  51.768  83.148  1.00  0.00     0.021 A
HETATM   18  C3  UNL     1      12.129  50.579  83.430  1.00  0.00     0.037 A
HETATM   19  C2  UNL     1      12.947  50.170  82.408  1.00  0.00     0.069 A
HETATM   20  C29 UNL     1      14.171  50.774  82.268  1.00  0.00     0.053 A
HETATM   21  C27 UNL     1      15.781  52.382  83.002  1.00  0.00     0.110 A
HETATM   22  N7  UNL     1      16.131  53.346  83.854  1.00  0.00    -0.351 N
HETATM   23  N8  UNL     1      16.535  51.988  82.039  1.00  0.00    -0.385 N
HETATM   24  C26 UNL     1      15.333  53.731  84.837  1.00  0.00     0.103 A
ATOM     25  H7  UNL     1      17.039  53.799  83.746  1.00  0.00     0.166 HD
ATOM     26  H82 UNL     1      17.442  52.441  81.931  1.00  0.00     0.157 HD
ATOM     27  H81 UNL     1      16.267  51.251  81.387  1.00  0.00     0.157 HD
BRANCH  19  28
HETATM   28  O1  UNL     1      12.519  49.162  81.548  1.00  0.00    -0.356 OA
HETATM   29  C1  UNL     1      12.309  49.486  80.185  1.00  0.00     0.210 C
ENDBRANCH  19  28
ENDBRANCH  13  14
ENDBRANCH  11  13
ENDBRANCH   9  11
ENDBRANCH   7   9
ENDBRANCH   1   7
BRANCH   4  30
HETATM   30  C12 UNL     1      11.481  48.648  90.895  1.00  0.00     0.276 C
BRANCH  30  31
HETATM   31  N4  UNL     1      12.486  49.367  91.646  1.00  0.00     0.086 N
HETATM   32  C13 UNL     1      13.715  48.636  91.756  1.00  0.00     0.310 C
BRANCH  31  33
HETATM   33  C14 UNL     1      11.961  49.656  92.957  1.00  0.00     0.302 C
BRANCH  33  34
HETATM   34  C15 UNL     1      11.602  51.121  93.117  1.00  0.00     0.303 C
BRANCH  34  35
HETATM   35  N5  UNL     1      12.580  51.985  92.528  1.00  0.00     0.094 N
HETATM   36  C16 UNL     1      13.595  52.311  93.468  1.00  0.00     0.277 C
HETATM   37  C17 UNL     1      13.690  53.795  93.805  1.00  0.00     0.069 C
HETATM   38  C18 UNL     1      13.796  54.511  92.515  1.00  0.00    -0.042 A
HETATM   39  C19 UNL     1      14.723  55.502  92.274  1.00  0.00     0.082 A
HETATM   40  C22 UNL     1      12.916  54.153  91.518  1.00  0.00    -0.008 A
HETATM   41  C20 UNL     1      14.736  56.108  91.027  1.00  0.00     0.245 A
HETATM   42  O2  UNL     1      15.551  57.022  90.723  1.00  0.00    -0.268 OA
HETATM   43  N6  UNL     1      13.859  55.747  90.043  1.00  0.00    -0.333 N
HETATM   44  C21 UNL     1      12.946  54.770  90.284  1.00  0.00     0.100 A
ATOM     45  H6  UNL     1      13.889  56.209  89.134  1.00  0.00     0.168 HD
HETATM   46  C23 UNL     1      11.950  53.077  91.854  1.00  0.00     0.313 C
ENDBRANCH  34  35
ENDBRANCH  33  34
ENDBRANCH  31  33
ENDBRANCH  30  31
ENDBRANCH   4  30
TORSDOF 11
ENDMDL