MODEL 4
REMARK VINA RESULT: -7.595693385      2.051      2.666
REMARK  10 active torsions:
REMARK  status: ('A' for Active; 'I' for Inactive)
REMARK    1  A    between atoms: N1_2  and  C2_5
REMARK    2  A    between atoms: C2_5  and  C3_6
REMARK    3  A    between atoms: C2_5  and  C22_42
REMARK    4  A    between atoms: C3_6  and  C4_7
REMARK    5  A    between atoms: C4_7  and  N2_8
REMARK    6  A    between atoms: C9_14  and  N3_15
REMARK    7  A    between atoms: N3_15  and  C10_16
REMARK    8  A    between atoms: N6_22  and  C12_24
REMARK    9  A    between atoms: C15_27  and  S1_28
REMARK   10  A    between atoms: S1_28  and  N7_29
ROOT
HETATM    1  N2  UNL     1      10.658  50.682  85.873  1.00  0.00    -0.280 N
HETATM    2  C5  UNL     1       9.606  51.540  86.402  1.00  0.00     0.261 A
HETATM    3  O1  UNL     1       8.431  51.623  85.966  1.00  0.00    -0.267 OA
HETATM    4  C6  UNL     1      10.107  52.307  87.528  1.00  0.00     0.048 A
HETATM    5  C7  UNL     1       9.516  53.253  88.368  1.00  0.00     0.021 A
HETATM    6  C8  UNL     1      10.281  53.795  89.351  1.00  0.00     0.046 A
HETATM    7  C9  UNL     1      11.642  53.460  89.574  1.00  0.00     0.112 A
HETATM    8  C19 UNL     1      12.152  52.491  88.671  1.00  0.00     0.063 A
HETATM    9  C20 UNL     1      11.410  51.929  87.677  1.00  0.00     0.051 A
HETATM   10  C21 UNL     1      11.785  50.915  86.660  1.00  0.00     0.261 A
HETATM   11  O4  UNL     1      12.941  50.411  86.598  1.00  0.00    -0.267 OA
ENDROOT
BRANCH   7  12
HETATM   12  N3  UNL     1      12.386  53.972  90.510  1.00  0.00    -0.370 NA
BRANCH  12  13
HETATM   13  C10 UNL     1      13.073  54.438  91.363  1.00  0.00     0.291 A
HETATM   14  N4  UNL     1      14.408  54.794  91.306  1.00  0.00    -0.244 N
HETATM   15  N5  UNL     1      14.816  55.261  92.430  1.00  0.00    -0.128 N
ATOM     16  H4  UNL     1      14.995  54.697  90.477  1.00  0.00     0.191 HD
HETATM   17  C11 UNL     1      13.767  55.248  93.322  1.00  0.00     0.702 A
ATOM     18  H5  UNL     1      15.761  55.589  92.629  1.00  0.00     0.205 HD
HETATM   19  N6  UNL     1      13.899  55.665  94.535  1.00  0.00    -0.190 N
HETATM   20  N8  UNL     1      12.734  54.754  92.673  1.00  0.00    -0.142 N
ATOM     21  H6  UNL     1      14.833  56.001  94.769  1.00  0.00     0.184 HD
HETATM   22  C18 UNL     1      11.381  54.533  93.156  1.00  0.00     0.180 C
BRANCH  19  23
HETATM   23  C12 UNL     1      12.982  55.735  95.577  1.00  0.00     0.049 A
HETATM   24  C13 UNL     1      12.814  54.662  96.469  1.00  0.00     0.031 A
HETATM   25  C14 UNL     1      11.923  54.729  97.511  1.00  0.00     0.027 A
HETATM   26  C15 UNL     1      11.144  55.841  97.751  1.00  0.00     0.079 A
HETATM   27  C16 UNL     1      11.298  56.902  96.884  1.00  0.00     0.027 A
HETATM   28  C17 UNL     1      12.190  56.842  95.836  1.00  0.00     0.031 A
BRANCH  26  29
HETATM   29  S1  UNL     1      10.017  55.908  99.085  1.00  0.00     0.256 S
HETATM   30  O2  UNL     1      10.663  56.438 100.329  1.00  0.00    -0.201 OA
HETATM   31  O3  UNL     1       8.873  56.800  98.697  1.00  0.00    -0.201 OA
BRANCH  29  32
HETATM   32  N7  UNL     1       9.350  54.360  99.448  1.00  0.00    -0.324 N
ATOM     33  H72 UNL     1       9.908  53.507  99.486  1.00  0.00     0.169 HD
ATOM     34  H71 UNL     1       8.346  54.405  99.617  1.00  0.00     0.169 HD
ENDBRANCH  29  32
ENDBRANCH  26  29
ENDBRANCH  19  23
ENDBRANCH  12  13
ENDBRANCH   7  12
BRANCH   1  35
HETATM   35  C4  UNL     1      10.440  49.795  84.776  1.00  0.00     0.138 C
BRANCH  35  36
HETATM   36  C3  UNL     1      11.235  50.016  83.554  1.00  0.00     0.058 C
BRANCH  36  37
HETATM   37  C2  UNL     1      11.543  51.431  83.236  1.00  0.00     0.220 C
BRANCH  37  38
HETATM   38  N1  UNL     1      10.838  51.824  81.984  1.00  0.00    -0.071 N
HETATM   39  C1  UNL     1       9.602  52.499  82.278  1.00  0.00     0.267 C
ATOM     40  H12 UNL     1      10.692  51.025  81.368  1.00  0.00     0.277 HD
ATOM     41  H11 UNL     1      11.436  52.383  81.376  1.00  0.00     0.277 HD
ENDBRANCH  37  38
BRANCH  37  42
HETATM   42  C22 UNL     1      12.980  51.440  82.745  1.00  0.00    -0.028 A
HETATM   43  C23 UNL     1      13.191  51.108  81.436  1.00  0.00     0.009 A
HETATM   44  C24 UNL     1      14.492  51.133  80.946  1.00  0.00     0.001 A
HETATM   45  C25 UNL     1      15.524  51.489  81.787  1.00  0.00     0.000 A
HETATM   46  C26 UNL     1      15.303  51.820  83.097  1.00  0.00     0.001 A
HETATM   47  C27 UNL     1      14.011  51.789  83.558  1.00  0.00     0.009 A
ENDBRANCH  37  42
ENDBRANCH  36  37
ENDBRANCH  35  36
ENDBRANCH   1  35
TORSDOF 10
ENDMDL