MODEL 4
REMARK VINA RESULT: -5.387250142      2.772      7.811
REMARK  11 active torsions:
REMARK  status: ('A' for Active; 'I' for Inactive)
REMARK    1  A    between atoms: C2_2  and  C4_4
REMARK    2  A    between atoms: C4_4  and  C5_5
REMARK    3  A    between atoms: C6_8  and  O1_9
REMARK    4  A    between atoms: C7_11  and  C8_12
REMARK    5  A    between atoms: C8_12  and  C9_13
REMARK    6  A    between atoms: C9_13  and  C10_14
REMARK    7  A    between atoms: C10_14  and  C11_15
REMARK    8  A    between atoms: C11_15  and  N2_16
REMARK    9  A    between atoms: C12_22  and  N4_23
REMARK   10  A    between atoms: C23_39  and  C24_40
REMARK   11  A    between atoms: C24_40  and  C25_41
ROOT
HETATM    1  C5  UNL     1       9.786  53.719  91.438  1.00  0.00     0.175 C
HETATM    2  N1  UNL     1       9.906  54.437  92.683  1.00  0.00    -0.359 N
ATOM      3  H1  UNL     1       9.179  55.141  92.815  1.00  0.00     0.162 HD
HETATM    4  C6  UNL     1      10.796  54.370  93.728  1.00  0.00     0.135 C
HETATM    5  C7  UNL     1      12.188  53.864  93.844  1.00  0.00     0.157 C
HETATM    6  N3  UNL     1      12.359  52.810  94.785  1.00  0.00    -0.367 N
ATOM      7  H3  UNL     1      12.276  53.116  95.754  1.00  0.00     0.161 HD
HETATM    8  C12 UNL     1      12.590  51.579  94.669  1.00  0.00     0.085 C
HETATM    9  C18 UNL     1      12.729  50.963  93.352  1.00  0.00     0.187 C
HETATM   10  C19 UNL     1      13.960  50.287  93.001  1.00  0.00     0.265 C
HETATM   11  O2  UNL     1      15.058  50.770  93.412  1.00  0.00    -0.265 OA
HETATM   12  O3  UNL     1      13.999  49.143  92.240  1.00  0.00    -0.320 OA
HETATM   13  C20 UNL     1      13.394  48.928  90.972  1.00  0.00     0.198 C
HETATM   14  C21 UNL     1      12.813  50.209  90.424  1.00  0.00     0.149 C
HETATM   15  N5  UNL     1      12.569  50.238  89.021  1.00  0.00    -0.357 N
ATOM     16  H5  UNL     1      13.179  49.650  88.453  1.00  0.00     0.162 HD
HETATM   17  C22 UNL     1      11.606  50.965  88.322  1.00  0.00     0.240 C
HETATM   18  O4  UNL     1      11.051  50.334  87.340  1.00  0.00    -0.271 OA
HETATM   19  C23 UNL     1      11.111  52.325  88.503  1.00  0.00     0.177 C
HETATM   20  N6  UNL     1      11.572  53.046  89.656  1.00  0.00    -0.346 N
ATOM     21  H6  UNL     1      12.559  52.902  89.866  1.00  0.00     0.163 HD
HETATM   22  C28 UNL     1      10.931  53.895  90.532  1.00  0.00     0.241 C
HETATM   23  O5  UNL     1      11.385  55.107  90.620  1.00  0.00    -0.271 OA
ENDROOT
BRANCH   5  24
HETATM   24  C8  UNL     1      13.083  54.995  94.430  1.00  0.00     0.033 C
BRANCH  24  25
HETATM   25  C9  UNL     1      13.755  55.802  93.384  1.00  0.00     0.004 C
BRANCH  25  26
HETATM   26  C10 UNL     1      14.450  54.837  92.449  1.00  0.00     0.027 C
BRANCH  26  27
HETATM   27  C11 UNL     1      15.059  55.539  91.250  1.00  0.00     0.229 C
BRANCH  27  28
HETATM   28  N2  UNL     1      14.460  55.011  90.055  1.00  0.00    -0.079 N
ATOM     29  H23 UNL     1      14.398  53.993  90.065  1.00  0.00     0.274 HD
ATOM     30  H22 UNL     1      13.462  55.212  89.998  1.00  0.00     0.274 HD
ATOM     31  H21 UNL     1      14.976  55.363  89.248  1.00  0.00     0.274 HD
ENDBRANCH  27  28
ENDBRANCH  26  27
ENDBRANCH  25  26
ENDBRANCH  24  25
ENDBRANCH   5  24
BRANCH   4  32
HETATM   32  O1  UNL     1      10.393  54.829  94.877  1.00  0.00    -0.348 OA
ATOM     33  H1  UNL     1       9.463  54.767  95.063  1.00  0.00     0.219 HD
ENDBRANCH   4  32
BRANCH   8  34
HETATM   34  N4  UNL     1      12.712  50.753  95.822  1.00  0.00    -0.370 N
HETATM   35  C13 UNL     1      13.694  50.937  96.863  1.00  0.00     0.124 C
HETATM   36  C14 UNL     1      13.326  49.974  98.004  1.00  0.00     0.020 C
HETATM   37  C15 UNL     1      13.458  48.541  97.544  1.00  0.00     0.003 C
HETATM   38  C16 UNL     1      12.553  48.349  96.354  1.00  0.00     0.020 C
HETATM   39  C17 UNL     1      11.807  49.614  96.038  1.00  0.00     0.124 C
ENDBRANCH   8  34
BRANCH   1  40
HETATM   40  C4  UNL     1       9.276  52.356  91.654  1.00  0.00     0.038 C
BRANCH  40  41
HETATM   41  C2  UNL     1       7.971  51.988  91.015  1.00  0.00    -0.020 C
HETATM   42  C1  UNL     1       7.576  52.730  89.796  1.00  0.00     0.009 C
HETATM   43  C3  UNL     1       6.899  52.306  92.077  1.00  0.00     0.009 C
ENDBRANCH  40  41
ENDBRANCH   1  40
BRANCH  19  44
HETATM   44  C24 UNL     1      11.308  53.198  87.286  1.00  0.00     0.038 C
BRANCH  44  45
HETATM   45  C25 UNL     1      12.613  53.123  86.598  1.00  0.00    -0.020 C
HETATM   46  C26 UNL     1      13.456  54.347  86.577  1.00  0.00     0.009 C
HETATM   47  C27 UNL     1      12.273  52.833  85.121  1.00  0.00     0.009 C
ENDBRANCH  44  45
ENDBRANCH  19  44
TORSDOF 11
ENDMDL