MODEL 2
REMARK VINA RESULT: -7.674525957      2.741     13.199
REMARK  9 active torsions:
REMARK  status: ('A' for Active; 'I' for Inactive)
REMARK    1  A    between atoms: C2_2  and  N1_3
REMARK    2  A    between atoms: C2_2  and  C10_12
REMARK    3  A    between atoms: N1_3  and  C3_5
REMARK       I    between atoms: C10_12  and  N2_14
REMARK    4  A    between atoms: N2_14  and  C11_16
REMARK    5  A    between atoms: C14_19  and  C15_20
REMARK    6  A    between atoms: C15_20  and  O2_21
REMARK    7  A    between atoms: C15_20  and  N3_23
REMARK    8  A    between atoms: N3_23  and  C16_25
REMARK    9  A    between atoms: C16_25  and  C17_26
ROOT
HETATM    1  C11 UNL     1      12.072  52.508  89.038  1.00  0.00     0.177 C
HETATM    2  C12 UNL     1      10.680  52.051  89.473  1.00  0.00     0.037 C
HETATM    3  C13 UNL     1      10.588  52.298  90.997  1.00  0.00     0.036 C
HETATM    4  C14 UNL     1      10.465  53.778  91.164  1.00  0.00     0.159 C
HETATM    5  N4  UNL     1      11.440  54.542  90.381  1.00  0.00    -0.347 N
ATOM      6  H4  UNL     1      11.404  55.555  90.273  1.00  0.00     0.163 HD
HETATM    7  C28 UNL     1      12.459  53.710  89.779  1.00  0.00     0.241 C
HETATM    8  O7  UNL     1      13.638  54.061  89.920  1.00  0.00    -0.271 OA
ENDROOT
BRANCH   4   9
HETATM    9  C15 UNL     1      10.324  54.252  92.503  1.00  0.00     0.134 C
BRANCH   9  10
HETATM   10  O2  UNL     1       9.134  54.680  92.863  1.00  0.00    -0.348 OA
ATOM     11  H2  UNL     1       8.812  54.396  93.711  1.00  0.00     0.219 HD
ENDBRANCH   9  10
BRANCH   9  12
HETATM   12  N3  UNL     1      11.349  54.334  93.524  1.00  0.00    -0.372 N
ATOM     13  H3  UNL     1      12.259  53.888  93.413  1.00  0.00     0.161 HD
BRANCH  12  14
HETATM   14  C16 UNL     1      10.994  55.102  94.739  1.00  0.00     0.126 C
BRANCH  14  15
HETATM   15  C17 UNL     1      12.345  55.500  95.290  1.00  0.00     0.007 C
HETATM   16  C18 UNL     1      12.844  54.729  96.464  1.00  0.00     0.032 C
HETATM   17  C19 UNL     1      13.677  53.534  96.043  1.00  0.00     0.168 C
HETATM   18  O3  UNL     1      14.350  53.050  97.156  1.00  0.00    -0.389 OA
HETATM   19  C20 UNL     1      13.476  53.104  98.204  1.00  0.00     0.193 C
HETATM   20  C21 UNL     1      13.748  52.146  99.351  1.00  0.00     0.193 C
HETATM   21  O4  UNL     1      12.683  52.462 100.251  1.00  0.00    -0.387 OA
HETATM   22  C22 UNL     1      12.873  53.665 100.856  1.00  0.00     0.193 C
HETATM   23  C23 UNL     1      11.911  54.748 100.617  1.00  0.00     0.193 C
HETATM   24  O5  UNL     1      10.907  54.567  99.716  1.00  0.00    -0.387 OA
HETATM   25  C24 UNL     1      10.005  55.589  99.741  1.00  0.00     0.193 C
HETATM   26  C25 UNL     1      10.228  56.698  98.747  1.00  0.00     0.193 C
HETATM   27  O6  UNL     1      10.445  56.227  97.487  1.00  0.00    -0.389 OA
HETATM   28  C26 UNL     1      10.795  57.100  96.514  1.00  0.00     0.168 C
HETATM   29  C27 UNL     1      12.153  56.928  95.882  1.00  0.00     0.032 C
ENDBRANCH  14  15
ENDBRANCH  12  14
ENDBRANCH   9  12
ENDBRANCH   4   9
BRANCH   1  30
HETATM   30  N2  UNL     1      12.086  52.822  87.632  1.00  0.00    -0.343 N
HETATM   31  C10 UNL     1      12.290  51.870  86.602  1.00  0.00     0.264 C
HETATM   32  O1  UNL     1      12.437  50.678  86.922  1.00  0.00    -0.266 OA
ATOM     33  H2  UNL     1      11.939  53.794  87.360  1.00  0.00     0.163 HD
BRANCH  31  34
HETATM   34  C2  UNL     1      12.328  52.345  85.212  1.00  0.00     0.073 C
HETATM   35  C1  UNL     1      10.998  53.030  84.848  1.00  0.00     0.074 C
BRANCH  34  36
HETATM   36  N1  UNL     1      13.434  52.970  84.692  1.00  0.00    -0.362 N
ATOM     37  H1  UNL     1      13.621  53.915  85.029  1.00  0.00     0.165 HD
BRANCH  36  38
HETATM   38  C3  UNL     1      14.319  52.463  83.767  1.00  0.00    -0.013 C
HETATM   39  C4  UNL     1      15.778  52.808  83.852  1.00  0.00     0.052 C
HETATM   40  C5  UNL     1      16.497  52.368  82.592  1.00  0.00     0.006 C
HETATM   41  C6  UNL     1      15.781  52.752  81.339  1.00  0.00     0.000 C
HETATM   42  C7  UNL     1      14.920  51.658  80.795  1.00  0.00     0.000 C
HETATM   43  C8  UNL     1      13.843  51.148  81.654  1.00  0.00     0.006 C
HETATM   44  C9  UNL     1      14.143  51.110  83.149  1.00  0.00     0.052 C
ENDBRANCH  36  38
ENDBRANCH  34  36
ENDBRANCH  31  34
ENDBRANCH   1  30
TORSDOF 9
ENDMDL