MODEL 3
REMARK VINA RESULT: -7.711617588      2.700     11.231
REMARK  12 active torsions:
REMARK  status: ('A' for Active; 'I' for Inactive)
REMARK    1  A    between atoms: C3_3  and  N1_4
REMARK    2  A    between atoms: N2_7  and  C6_8
REMARK    3  A    between atoms: C6_8  and  C7_10
REMARK    4  A    between atoms: C7_10  and  C8_11
REMARK    5  A    between atoms: C8_11  and  C9_12
REMARK    6  A    between atoms: C9_12  and  C10_13
REMARK    7  A    between atoms: C10_13  and  C11_14
REMARK    8  A    between atoms: C11_14  and  N3_15
REMARK    9  A    between atoms: C18_23  and  O2_24
REMARK   10  A    between atoms: C19_26  and  C20_27
REMARK   11  A    between atoms: C20_27  and  C21_28
REMARK   12  A    between atoms: C22_29  and  O3_30
ROOT
HETATM    1  C1  UNL     1      10.241  49.530  89.871  1.00  0.00     0.032 C
HETATM    2  C2  UNL     1      10.690  50.471  89.085  1.00  0.00     0.052 A
HETATM    3  C3  UNL     1      11.221  51.664  89.455  1.00  0.00     0.081 A
HETATM    4  C18 UNL     1      11.656  52.627  88.507  1.00  0.00     0.120 A
HETATM    5  C19 UNL     1      11.525  52.314  87.161  1.00  0.00     0.071 A
HETATM    6  N5  UNL     1      10.998  51.128  86.814  1.00  0.00    -0.320 N
ATOM      7  H5  UNL     1      10.904  50.904  85.824  1.00  0.00     0.169 HD
HETATM    8  C29 UNL     1      10.595  50.235  87.714  1.00  0.00     0.257 A
HETATM    9  O4  UNL     1      10.105  49.130  87.308  1.00  0.00    -0.267 OA
ENDROOT
BRANCH   3  10
HETATM   10  N1  UNL     1      11.355  51.968  90.844  1.00  0.00    -0.375 N
HETATM   11  C4  UNL     1      10.462  52.787  91.604  1.00  0.00     0.143 C
HETATM   12  C5  UNL     1      11.183  53.849  92.370  1.00  0.00     0.143 C
HETATM   13  N2  UNL     1      12.373  53.315  92.967  1.00  0.00    -0.372 N
HETATM   14  C16 UNL     1      12.585  51.881  92.956  1.00  0.00     0.143 C
HETATM   15  C17 UNL     1      12.488  51.351  91.536  1.00  0.00     0.143 C
BRANCH  13  16
HETATM   16  C6  UNL     1      13.339  54.145  93.548  1.00  0.00     0.075 C
HETATM   17  S1  UNL     1      14.274  55.066  92.551  1.00  0.00    -0.066 SA
BRANCH  16  18
HETATM   18  C7  UNL     1      13.622  54.288  95.007  1.00  0.00     0.069 C
BRANCH  18  19
HETATM   19  C8  UNL     1      13.515  55.712  95.409  1.00  0.00     0.007 C
BRANCH  19  20
HETATM   20  C9  UNL     1      12.072  56.213  95.555  1.00  0.00     0.002 C
BRANCH  20  21
HETATM   21  C10 UNL     1      11.964  57.311  96.530  1.00  0.00     0.030 C
BRANCH  21  22
HETATM   22  C11 UNL     1      10.705  58.080  96.506  1.00  0.00     0.272 C
BRANCH  22  23
HETATM   23  N3  UNL     1       9.766  58.009  97.540  1.00  0.00     0.092 N
HETATM   24  C12 UNL     1       8.389  57.836  97.281  1.00  0.00     0.298 C
HETATM   25  C13 UNL     1       8.142  56.555  96.483  1.00  0.00     0.198 C
HETATM   26  O1  UNL     1       8.939  55.526  96.996  1.00  0.00    -0.388 OA
HETATM   27  C14 UNL     1       9.307  55.733  98.320  1.00  0.00     0.198 C
HETATM   28  C15 UNL     1      10.145  56.978  98.527  1.00  0.00     0.298 C
ENDBRANCH  22  23
ENDBRANCH  21  22
ENDBRANCH  20  21
ENDBRANCH  19  20
ENDBRANCH  18  19
ENDBRANCH  16  18
ENDBRANCH  13  16
ENDBRANCH   3  10
BRANCH   4  29
HETATM   29  O2  UNL     1      12.155  53.750  89.029  1.00  0.00    -0.356 OA
ATOM     30  H2  UNL     1      11.948  54.544  88.549  1.00  0.00     0.218 HD
ENDBRANCH   4  29
BRANCH   5  31
HETATM   31  C20 UNL     1      11.888  53.138  86.208  1.00  0.00     0.049 C
BRANCH  31  32
HETATM   32  C21 UNL     1      13.195  53.459  85.709  1.00  0.00     0.029 A
HETATM   33  C22 UNL     1      14.047  54.438  86.161  1.00  0.00     0.151 A
HETATM   34  N4  UNL     1      15.200  54.379  85.439  1.00  0.00    -0.336 N
HETATM   35  C23 UNL     1      15.110  53.387  84.536  1.00  0.00     0.045 A
ATOM     36  H4  UNL     1      16.006  54.991  85.565  1.00  0.00     0.168 HD
HETATM   37  C24 UNL     1      15.984  52.897  83.560  1.00  0.00     0.030 A
HETATM   38  C28 UNL     1      13.873  52.805  84.690  1.00  0.00     0.005 A
HETATM   39  C25 UNL     1      15.624  51.843  82.753  1.00  0.00     0.002 A
HETATM   40  C26 UNL     1      14.390  51.277  82.919  1.00  0.00     0.001 A
HETATM   41  C27 UNL     1      13.529  51.765  83.885  1.00  0.00     0.014 A
BRANCH  33  42
HETATM   42  O3  UNL     1      13.816  55.352  87.175  1.00  0.00    -0.345 OA
ATOM     43  H3  UNL     1      14.171  55.338  88.056  1.00  0.00     0.219 HD
ENDBRANCH  33  42
ENDBRANCH  31  32
ENDBRANCH   5  31
TORSDOF 12
ENDMDL