MODEL 1
REMARK VINA RESULT: -7.348490476      0.000      0.000
REMARK  11 active torsions:
REMARK  status: ('A' for Active; 'I' for Inactive)
REMARK    1  A    between atoms: C2_2  and  N1_3
REMARK       I    between atoms: N2_6  and  C5_7
REMARK    2  A    between atoms: C5_7  and  C6_9
REMARK    3  A    between atoms: C9_12  and  N3_13
REMARK    4  A    between atoms: N3_13  and  C10_15
REMARK    5  A    between atoms: C11_18  and  N5_19
REMARK    6  A    between atoms: N5_19  and  C12_21
REMARK    7  A    between atoms: C14_23  and  C15_24
REMARK    8  A    between atoms: C19_32  and  N8_33
REMARK    9  A    between atoms: N8_33  and  C20_35
REMARK   10  A    between atoms: C20_35  and  C21_36
REMARK   11  A    between atoms: C26_44  and  O3_45
ROOT
HETATM    1  C10 UNL     1      12.078  52.807  87.497  1.00  0.00     0.685 A
HETATM    2  N4  UNL     1      12.569  53.818  88.260  1.00  0.00    -0.176 N
ATOM      3  H4  UNL     1      12.178  53.973  89.189  1.00  0.00     0.186 HD
HETATM    4  C11 UNL     1      13.555  54.620  87.825  1.00  0.00     0.126 A
HETATM    5  C18 UNL     1      14.076  54.393  86.550  1.00  0.00     0.097 A
HETATM    6  C19 UNL     1      13.585  53.369  85.769  1.00  0.00     0.120 A
HETATM    7  N9  UNL     1      12.605  52.618  86.276  1.00  0.00    -0.177 N
ATOM      8  H9  UNL     1      12.236  51.858  85.704  1.00  0.00     0.186 HD
ENDROOT
BRANCH   1   9
HETATM    9  N3  UNL     1      11.125  52.069  87.979  1.00  0.00    -0.192 N
ATOM     10  H3  UNL     1      10.198  52.076  87.554  1.00  0.00     0.184 HD
BRANCH   9  11
HETATM   11  C9  UNL     1      11.399  51.246  89.120  1.00  0.00     0.051 A
HETATM   12  C8  UNL     1      10.815  51.591  90.327  1.00  0.00     0.031 A
HETATM   13  C7  UNL     1      11.058  50.824  91.426  1.00  0.00     0.022 A
HETATM   14  C6  UNL     1      11.869  49.716  91.368  1.00  0.00     0.065 A
HETATM   15  C26 UNL     1      12.451  49.365  90.179  1.00  0.00     0.086 A
HETATM   16  C25 UNL     1      12.209  50.136  89.064  1.00  0.00     0.067 A
BRANCH  14  17
HETATM   17  C5  UNL     1      12.131  48.890  92.541  1.00  0.00     0.256 C
HETATM   18  N2  UNL     1      13.208  49.172  93.391  1.00  0.00    -0.345 N
HETATM   19  C4  UNL     1      13.459  48.348  94.547  1.00  0.00     0.156 C
HETATM   20  C28 UNL     1      14.073  50.290  93.118  1.00  0.00     0.156 C
HETATM   21  C3  UNL     1      14.776  48.835  95.145  1.00  0.00     0.292 C
HETATM   22  N1  UNL     1      14.620  50.220  95.509  1.00  0.00     0.091 N
HETATM   23  C29 UNL     1      14.338  51.072  94.394  1.00  0.00     0.292 C
HETATM   24  O1  UNL     1      11.354  47.912  92.759  1.00  0.00    -0.267 OA
BRANCH  22  25
HETATM   25  C2  UNL     1      15.704  50.692  96.347  1.00  0.00     0.268 C
HETATM   26  C1  UNL     1      15.284  51.978  97.023  1.00  0.00     0.037 C
ENDBRANCH  22  25
ENDBRANCH  14  17
BRANCH  15  27
HETATM   27  O3  UNL     1      13.285  48.249  90.060  1.00  0.00    -0.355 OA
HETATM   28  C27 UNL     1      14.666  48.399  89.860  1.00  0.00     0.210 C
ENDBRANCH  15  27
ENDBRANCH   9  11
ENDBRANCH   1   9
BRANCH   4  29
HETATM   29  N5  UNL     1      14.076  55.674  88.610  1.00  0.00    -0.327 N
ATOM     30  H5  UNL     1      14.310  56.564  88.168  1.00  0.00     0.169 HD
BRANCH  29  31
HETATM   31  C12 UNL     1      14.264  55.526  89.892  1.00  0.00     0.123 A
HETATM   32  C13 UNL     1      13.332  55.718  90.887  1.00  0.00     0.076 A
HETATM   33  C14 UNL     1      13.925  55.455  92.115  1.00  0.00     0.033 A
HETATM   34  N6  UNL     1      15.190  55.114  91.831  1.00  0.00    -0.303 N
HETATM   35  N7  UNL     1      15.397  55.153  90.526  1.00  0.00    -0.285 N
ATOM     36  H6  UNL     1      15.895  54.861  92.524  1.00  0.00     0.186 HD
ATOM     37  H7  UNL     1      16.280  54.934  90.066  1.00  0.00     0.188 HD
BRANCH  33  38
HETATM   38  C15 UNL     1      13.292  55.535  93.464  1.00  0.00     0.037 A
HETATM   39  C16 UNL     1      12.444  54.279  93.831  1.00  0.00     0.011 A
HETATM   40  C17 UNL     1      13.701  54.630  94.537  1.00  0.00     0.011 A
ENDBRANCH  33  38
ENDBRANCH  29  31
ENDBRANCH   4  29
BRANCH   6  41
HETATM   41  N8  UNL     1      14.057  53.146  84.591  1.00  0.00    -0.373 N
ATOM     42  H8  UNL     1      13.406  52.856  83.861  1.00  0.00     0.161 HD
BRANCH  41  43
HETATM   43  C20 UNL     1      15.435  53.278  84.244  1.00  0.00     0.153 C
BRANCH  43  44
HETATM   44  C21 UNL     1      15.746  52.168  83.230  1.00  0.00     0.139 C
HETATM   45  C22 UNL     1      16.326  52.738  81.979  1.00  0.00     0.035 C
HETATM   46  C23 UNL     1      15.435  52.176  80.895  1.00  0.00     0.029 C
HETATM   47  C24 UNL     1      14.752  51.029  81.601  1.00  0.00     0.168 C
HETATM   48  O2  UNL     1      14.562  51.525  82.876  1.00  0.00    -0.384 OA
ENDBRANCH  43  44
ENDBRANCH  41  43
ENDBRANCH   6  41
TORSDOF 11
ENDMDL