MODEL 1
REMARK VINA RESULT: -8.262264216      0.000      0.000
REMARK  11 active torsions:
REMARK  status: ('A' for Active; 'I' for Inactive)
REMARK    1  A    between atoms: S1_2  and  C2_4
REMARK    2  A    between atoms: C4_6  and  N1_7
REMARK       I    between atoms: N1_7  and  C5_9
REMARK    3  A    between atoms: C5_9  and  C6_11
REMARK    4  A    between atoms: C6_11  and  S2_12
REMARK    5  A    between atoms: C10_18  and  N2_19
REMARK    6  A    between atoms: N2_19  and  C11_21
REMARK    7  A    between atoms: C12_24  and  N4_25
REMARK    8  A    between atoms: N4_25  and  C13_27
REMARK    9  A    between atoms: C13_27  and  C14_28
REMARK   10  A    between atoms: C20_36  and  N6_37
REMARK   11  A    between atoms: N6_37  and  C21_39
ROOT
HETATM    1  C11 UNL     1      11.964  53.305  90.060  1.00  0.00     0.711 A
HETATM    2  N3  UNL     1      12.435  53.564  88.843  1.00  0.00    -0.021 N
ATOM      3  H3  UNL     1      13.447  53.638  88.730  1.00  0.00     0.203 HD
HETATM    4  C12 UNL     1      11.676  53.733  87.756  1.00  0.00     0.707 A
HETATM    5  N5  UNL     1      10.340  53.629  87.931  1.00  0.00    -0.021 N
ATOM      6  H5  UNL     1       9.724  53.751  87.128  1.00  0.00     0.203 HD
HETATM    7  C20 UNL     1       9.802  53.371  89.129  1.00  0.00     0.711 A
HETATM    8  N7  UNL     1      10.611  53.211  90.178  1.00  0.00    -0.021 N
ATOM      9  H7  UNL     1      10.206  53.013  91.092  1.00  0.00     0.203 HD
ENDROOT
BRANCH   1  10
HETATM   10  N2  UNL     1      12.747  53.153  91.043  1.00  0.00    -0.189 N
ATOM     11  H2  UNL     1      13.560  52.549  90.925  1.00  0.00     0.184 HD
BRANCH  10  12
HETATM   12  C10 UNL     1      12.553  53.776  92.293  1.00  0.00     0.068 A
HETATM   13  C2  UNL     1      13.143  54.879  92.745  1.00  0.00     0.060 A
HETATM   14  C3  UNL     1      12.985  55.504  93.916  1.00  0.00     0.053 A
HETATM   15  C4  UNL     1      12.056  54.947  94.858  1.00  0.00     0.036 A
HETATM   16  C8  UNL     1      11.424  53.812  94.439  1.00  0.00     0.032 A
HETATM   17  C9  UNL     1      11.625  53.195  93.198  1.00  0.00     0.034 A
BRANCH  13  18
HETATM   18  S1  UNL     1      14.183  55.684  91.569  1.00  0.00     0.048 S
HETATM   19  C1  UNL     1      14.168  56.653  90.760  1.00  0.00     0.133 C
HETATM   20  O1  UNL     1      15.154  54.523  92.084  1.00  0.00    -0.253 OA
ENDBRANCH  13  18
BRANCH  15  21
HETATM   21  N1  UNL     1      11.896  55.585  96.094  1.00  0.00    -0.326 N
HETATM   22  C5  UNL     1      10.778  56.256  96.580  1.00  0.00     0.236 C
HETATM   23  O2  UNL     1       9.737  56.359  95.885  1.00  0.00    -0.272 OA
ATOM     24  H1  UNL     1      12.702  55.554  96.719  1.00  0.00     0.169 HD
BRANCH  22  25
HETATM   25  C6  UNL     1      10.716  56.890  97.916  1.00  0.00     0.242 C
BRANCH  25  26
HETATM   26  S2  UNL     1      11.084  55.840  99.264  1.00  0.00     0.149 S
HETATM   27  C7  UNL     1      10.070  54.392  99.230  1.00  0.00     0.161 C
HETATM   28  O3  UNL     1      10.732  56.594 100.529  1.00  0.00    -0.228 OA
HETATM   29  O4  UNL     1      12.533  55.464  99.359  1.00  0.00    -0.228 OA
ENDBRANCH  25  26
ENDBRANCH  22  25
ENDBRANCH  15  21
ENDBRANCH  10  12
ENDBRANCH   1  10
BRANCH   4  30
HETATM   30  N4  UNL     1      12.215  53.984  86.620  1.00  0.00    -0.221 N
ATOM     31  H4  UNL     1      11.623  53.939  85.790  1.00  0.00     0.178 HD
BRANCH  30  32
HETATM   32  C13 UNL     1      13.604  54.324  86.441  1.00  0.00     0.176 C
BRANCH  32  33
HETATM   33  C14 UNL     1      14.190  53.526  85.338  1.00  0.00    -0.040 A
HETATM   34  C15 UNL     1      15.396  53.864  84.801  1.00  0.00     0.009 A
HETATM   35  C16 UNL     1      15.889  53.084  83.778  1.00  0.00     0.001 A
HETATM   36  C17 UNL     1      15.209  51.984  83.283  1.00  0.00     0.000 A
HETATM   37  C18 UNL     1      13.980  51.677  83.861  1.00  0.00     0.001 A
HETATM   38  C19 UNL     1      13.459  52.435  84.886  1.00  0.00     0.009 A
ENDBRANCH  32  33
ENDBRANCH  30  32
ENDBRANCH   4  30
BRANCH   7  39
HETATM   39  N6  UNL     1       8.535  53.279  89.254  1.00  0.00    -0.191 N
ATOM     40  H6  UNL     1       8.143  52.338  89.252  1.00  0.00     0.184 HD
BRANCH  39  41
HETATM   41  C21 UNL     1       7.625  54.339  89.394  1.00  0.00     0.049 A
HETATM   42  C22 UNL     1       6.390  54.205  88.780  1.00  0.00     0.030 A
HETATM   43  C23 UNL     1       5.481  55.207  88.892  1.00  0.00     0.002 A
HETATM   44  C24 UNL     1       5.785  56.337  89.606  1.00  0.00     0.000 A
HETATM   45  C25 UNL     1       7.011  56.488  90.224  1.00  0.00     0.002 A
HETATM   46  C26 UNL     1       7.948  55.482  90.123  1.00  0.00     0.030 A
ENDBRANCH  39  41
ENDBRANCH   7  39
TORSDOF 11
ENDMDL