MODEL 3
REMARK VINA RESULT: -6.180928875      2.455      5.035
REMARK  9 active torsions:
REMARK  status: ('A' for Active; 'I' for Inactive)
REMARK    1  A    between atoms: C2_2  and  C3_3
REMARK    2  A    between atoms: C3_3  and  C4_4
REMARK    3  A    between atoms: C4_4  and  C5_5
REMARK    4  A    between atoms: C7_10  and  C8_11
REMARK    5  A    between atoms: C8_11  and  C9_12
REMARK    6  A    between atoms: C13_19  and  C14_20
REMARK    7  A    between atoms: C21_34  and  C22_35
REMARK    8  A    between atoms: C22_35  and  C23_36
REMARK    9  A    between atoms: C29_42  and  O7_43
ROOT
HETATM    1  C5  UNL     1      12.572  54.153  92.448  1.00  0.00     0.115 C
HETATM    2  N1  UNL     1      11.269  54.644  92.830  1.00  0.00    -0.352 N
ATOM      3  H1  UNL     1      10.799  55.227  92.137  1.00  0.00     0.163 HD
HETATM    4  C6  UNL     1      10.567  54.435  94.010  1.00  0.00     0.240 C
HETATM    5  O1  UNL     1       9.378  53.957  93.918  1.00  0.00    -0.271 OA
HETATM    6  C7  UNL     1      11.004  54.693  95.407  1.00  0.00     0.177 C
HETATM    7  N2  UNL     1      10.496  53.590  96.238  1.00  0.00    -0.346 N
ATOM      8  H2  UNL     1       9.652  53.113  95.920  1.00  0.00     0.163 HD
HETATM    9  C12 UNL     1      11.076  53.146  97.429  1.00  0.00     0.259 C
HETATM   10  O2  UNL     1      10.260  52.708  98.313  1.00  0.00    -0.271 OA
HETATM   11  C13 UNL     1      12.489  53.123  97.786  1.00  0.00     0.374 C
HETATM   12  N3  UNL     1      13.158  51.872  97.661  1.00  0.00     0.106 N
HETATM   13  C15 UNL     1      14.554  52.072  98.005  1.00  0.00     0.311 C
HETATM   14  C16 UNL     1      12.638  50.807  98.459  1.00  0.00     0.299 C
HETATM   15  C17 UNL     1      12.039  49.719  97.557  1.00  0.00     0.198 C
HETATM   16  O4  UNL     1      13.083  48.930  97.030  1.00  0.00    -0.387 OA
HETATM   17  C18 UNL     1      12.843  48.590  95.711  1.00  0.00     0.194 C
HETATM   18  C19 UNL     1      13.746  49.401  94.769  1.00  0.00     0.207 C
HETATM   19  O5  UNL     1      13.439  48.999  93.479  1.00  0.00    -0.302 OA
HETATM   20  C20 UNL     1      13.834  49.501  92.280  1.00  0.00     0.361 C
HETATM   21  O6  UNL     1      14.466  48.847  91.392  1.00  0.00    -0.239 OA
HETATM   22  N4  UNL     1      13.545  50.851  91.938  1.00  0.00    -0.330 N
ATOM     23  H4  UNL     1      14.167  51.302  91.267  1.00  0.00     0.165 HD
HETATM   24  C21 UNL     1      12.459  51.636  92.450  1.00  0.00     0.117 C
HETATM   25  C29 UNL     1      12.978  52.879  93.096  1.00  0.00     0.163 C
ENDROOT
BRANCH  24  26
HETATM   26  C22 UNL     1      11.509  51.883  91.310  1.00  0.00     0.032 C
BRANCH  26  27
HETATM   27  C23 UNL     1      12.267  51.598  90.018  1.00  0.00    -0.013 C
HETATM   28  C24 UNL     1      12.252  52.918  89.251  1.00  0.00     0.005 C
HETATM   29  C25 UNL     1      11.047  53.015  88.339  1.00  0.00     0.000 C
HETATM   30  C26 UNL     1      11.140  52.038  87.187  1.00  0.00     0.000 C
HETATM   31  C27 UNL     1      11.722  50.751  87.715  1.00  0.00     0.000 C
HETATM   32  C28 UNL     1      11.396  50.659  89.195  1.00  0.00     0.005 C
ENDBRANCH  26  27
ENDBRANCH  24  26
BRANCH  25  33
HETATM   33  O7  UNL     1      14.369  52.844  93.176  1.00  0.00    -0.391 OA
ATOM     34  H7  UNL     1      14.617  52.251  93.876  1.00  0.00     0.210 HD
ENDBRANCH  25  33
BRANCH   1  35
HETATM   35  C4  UNL     1      13.583  55.222  92.807  1.00  0.00     0.031 C
BRANCH  35  36
HETATM   36  C3  UNL     1      13.547  56.234  91.663  1.00  0.00     0.028 C
BRANCH  36  37
HETATM   37  C2  UNL     1      14.345  55.760  90.494  1.00  0.00    -0.037 C
HETATM   38  C1  UNL     1      15.606  55.371  90.612  1.00  0.00     0.007 C
ENDBRANCH  36  37
ENDBRANCH  35  36
ENDBRANCH   1  35
BRANCH   6  39
HETATM   39  C8  UNL     1      10.185  55.917  95.842  1.00  0.00     0.038 C
BRANCH  39  40
HETATM   40  C9  UNL     1      10.934  56.841  96.738  1.00  0.00    -0.020 C
HETATM   41  C10 UNL     1      10.157  58.165  96.737  1.00  0.00     0.009 C
HETATM   42  C11 UNL     1      12.264  57.196  96.060  1.00  0.00     0.009 C
ENDBRANCH  39  40
ENDBRANCH   6  39
BRANCH  11  43
HETATM   43  C14 UNL     1      12.627  53.629  99.195  1.00  0.00     0.276 C
HETATM   44  O3  UNL     1      12.456  54.803  99.489  1.00  0.00    -0.304 OA
ENDBRANCH  11  43
TORSDOF 9
ENDMDL