MODEL 2
REMARK VINA RESULT: -9.046779308      0.845      1.305
REMARK  9 active torsions:
REMARK  status: ('A' for Active; 'I' for Inactive)
REMARK    1  A    between atoms: C3_4  and  C4_5
REMARK    2  A    between atoms: C4_5  and  N1_6
REMARK    3  A    between atoms: N1_6  and  C5_8
REMARK    4  A    between atoms: C6_11  and  N3_12
REMARK    5  A    between atoms: N3_12  and  C7_14
REMARK    6  A    between atoms: C10_17  and  O2_18
REMARK    7  A    between atoms: O2_18  and  C11_19
REMARK    8  A    between atoms: C11_19  and  C12_20
REMARK    9  A    between atoms: C23_31  and  C24_32
ROOT
HETATM    1  C5  UNL     1      10.257  52.245  87.622  1.00  0.00     0.680 A
HETATM    2  N2  UNL     1      10.843  53.049  88.502  1.00  0.00    -0.176 N
ATOM      3  H2  UNL     1      10.365  53.227  89.385  1.00  0.00     0.186 HD
HETATM    4  C6  UNL     1      12.066  53.658  88.287  1.00  0.00     0.134 A
HETATM    5  C20 UNL     1      12.667  53.375  87.062  1.00  0.00     0.036 A
HETATM    6  C21 UNL     1      13.886  53.905  86.697  1.00  0.00     0.018 A
HETATM    7  C22 UNL     1      14.477  53.614  85.465  1.00  0.00     0.013 A
HETATM    8  C23 UNL     1      13.854  52.778  84.565  1.00  0.00    -0.022 A
HETATM    9  C29 UNL     1      12.640  52.244  84.916  1.00  0.00     0.043 A
HETATM   10  C30 UNL     1      12.048  52.533  86.146  1.00  0.00     0.064 A
HETATM   11  N5  UNL     1      10.858  52.001  86.472  1.00  0.00    -0.191 N
ATOM     12  H5  UNL     1      10.399  51.382  85.803  1.00  0.00     0.184 HD
ENDROOT
BRANCH   4  13
HETATM   13  N3  UNL     1      12.542  54.378  89.125  1.00  0.00    -0.341 N
ATOM     14  H3  UNL     1      12.899  55.149  88.561  1.00  0.00     0.167 HD
BRANCH  13  15
HETATM   15  C7  UNL     1      12.879  54.764  90.360  1.00  0.00     0.033 A
HETATM   16  C8  UNL     1      14.056  55.480  90.671  1.00  0.00     0.032 A
HETATM   17  C9  UNL     1      14.377  55.858  91.945  1.00  0.00     0.039 A
HETATM   18  C10 UNL     1      13.535  55.540  92.989  1.00  0.00     0.069 A
HETATM   19  C18 UNL     1      12.381  54.842  92.701  1.00  0.00     0.039 A
HETATM   20  C19 UNL     1      12.042  54.455  91.442  1.00  0.00     0.032 A
BRANCH  18  21
HETATM   21  O2  UNL     1      13.817  55.901  94.296  1.00  0.00    -0.347 OA
BRANCH  21  22
HETATM   22  C11 UNL     1      12.993  55.400  95.336  1.00  0.00     0.214 C
BRANCH  22  23
HETATM   23  C12 UNL     1      12.054  56.435  95.828  1.00  0.00    -0.034 A
HETATM   24  C13 UNL     1      12.508  57.708  96.076  1.00  0.00     0.009 A
HETATM   25  C14 UNL     1      11.642  58.696  96.539  1.00  0.00     0.001 A
HETATM   26  C15 UNL     1      10.319  58.360  96.741  1.00  0.00     0.000 A
HETATM   27  C16 UNL     1       9.835  57.092  96.502  1.00  0.00     0.001 A
HETATM   28  C17 UNL     1      10.727  56.137  96.042  1.00  0.00     0.009 A
ENDBRANCH  22  23
ENDBRANCH  21  22
ENDBRANCH  18  21
ENDBRANCH  13  15
ENDBRANCH   4  13
BRANCH   1  29
HETATM   29  N1  UNL     1       9.111  51.741  87.953  1.00  0.00    -0.224 N
ATOM     30  H1  UNL     1       9.118  50.832  88.415  1.00  0.00     0.177 HD
BRANCH  29  31
HETATM   31  C4  UNL     1       7.845  52.346  87.729  1.00  0.00     0.161 C
BRANCH  31  32
HETATM   32  C3  UNL     1       7.358  52.880  89.081  1.00  0.00     0.126 C
HETATM   33  C2  UNL     1       7.619  54.385  89.163  1.00  0.00     0.128 C
HETATM   34  C1  UNL     1       7.687  54.591  90.626  1.00  0.00     0.234 C
HETATM   35  O1  UNL     1       7.529  55.659  91.240  1.00  0.00    -0.272 OA
HETATM   36  N7  UNL     1       7.970  53.320  91.189  1.00  0.00    -0.274 N
HETATM   37  N6  UNL     1       8.202  52.391  90.154  1.00  0.00    -0.132 NA
ATOM     38  H7  UNL     1       8.000  53.111  92.187  1.00  0.00     0.185 HD
ENDBRANCH  31  32
ENDBRANCH  29  31
ENDBRANCH   1  29
BRANCH   8  39
HETATM   39  C24 UNL     1      14.496  52.491  83.282  1.00  0.00    -0.011 A
HETATM   40  C25 UNL     1      15.803  52.864  83.057  1.00  0.00     0.015 A
HETATM   41  C26 UNL     1      16.450  52.614  81.859  1.00  0.00     0.018 A
HETATM   42  C27 UNL     1      15.753  51.971  80.868  1.00  0.00     0.087 A
HETATM   43  N4  UNL     1      14.478  51.600  81.066  1.00  0.00    -0.374 N
HETATM   44  C28 UNL     1      13.850  51.849  82.246  1.00  0.00     0.099 A
ATOM     45  H4  UNL     1      13.972  51.123  80.320  1.00  0.00     0.164 HD
ENDBRANCH   8  39
TORSDOF 9
ENDMDL