MODEL 5
REMARK VINA RESULT: -8.221667354      3.468     10.411
REMARK  9 active torsions:
REMARK  status: ('A' for Active; 'I' for Inactive)
REMARK    1  A    between atoms: C3_3  and  N1_4
REMARK    2  A    between atoms: N1_4  and  C4_6
REMARK    3  A    between atoms: C5_9  and  C6_10
REMARK    4  A    between atoms: C11_19  and  N5_20
REMARK    5  A    between atoms: N5_20  and  C12_21
REMARK    6  A    between atoms: C15_24  and  S1_25
REMARK    7  A    between atoms: S1_25  and  N6_28
REMARK    8  A    between atoms: N6_28  and  C16_30
REMARK    9  A    between atoms: C23_37  and  C24_38
ROOT
HETATM    1  C1  UNL     1       5.942  52.439  85.439  1.00  0.00     0.014 C
HETATM    2  C2  UNL     1       7.109  52.653  85.218  1.00  0.00    -0.097 C
HETATM    3  C3  UNL     1       8.541  52.940  84.956  1.00  0.00     0.231 C
ENDROOT
BRANCH   3   4
HETATM    4  N1  UNL     1       9.108  53.757  85.971  1.00  0.00    -0.215 N
ATOM      5  H1  UNL     1       8.519  54.491  86.363  1.00  0.00     0.178 HD
BRANCH   4   6
HETATM    6  C4  UNL     1      10.297  53.650  86.436  1.00  0.00     0.684 A
HETATM    7  N2  UNL     1      11.325  53.432  85.567  1.00  0.00    -0.174 N
HETATM    8  C5  UNL     1      12.564  53.314  86.027  1.00  0.00     0.151 A
ATOM      9  H2  UNL     1      11.141  53.361  84.566  1.00  0.00     0.186 HD
HETATM   10  N4  UNL     1      12.781  53.412  87.351  1.00  0.00    -0.299 N
HETATM   11  C11 UNL     1      11.794  53.629  88.272  1.00  0.00     0.275 A
ATOM     12  H4  UNL     1      13.740  53.320  87.689  1.00  0.00     0.171 HD
HETATM   13  N7  UNL     1      10.532  53.745  87.747  1.00  0.00    -0.149 N
ATOM     14  H7  UNL     1       9.748  53.909  88.379  1.00  0.00     0.188 HD
BRANCH   8  15
HETATM   15  C6  UNL     1      13.660  53.080  85.103  1.00  0.00     0.077 A
HETATM   16  C7  UNL     1      14.781  53.852  85.158  1.00  0.00     0.033 A
HETATM   17  C8  UNL     1      15.859  53.654  84.278  1.00  0.00     0.004 A
HETATM   18  C9  UNL     1      15.759  52.661  83.356  1.00  0.00     0.017 A
HETATM   19  C10 UNL     1      14.622  51.886  83.309  1.00  0.00     0.088 A
HETATM   20  N3  UNL     1      13.612  52.107  84.169  1.00  0.00    -0.363 N
ATOM     21  H3  UNL     1      12.781  51.518  84.113  1.00  0.00     0.165 HD
ENDBRANCH   8  15
BRANCH  11  22
HETATM   22  N5  UNL     1      11.989  53.707  89.454  1.00  0.00    -0.370 NA
BRANCH  22  23
HETATM   23  C12 UNL     1      12.122  53.814  90.745  1.00  0.00     0.118 A
HETATM   24  C13 UNL     1      11.280  52.941  91.524  1.00  0.00     0.047 A
HETATM   25  C14 UNL     1      11.303  52.959  92.869  1.00  0.00     0.028 A
HETATM   26  C15 UNL     1      12.134  53.817  93.516  1.00  0.00     0.080 A
HETATM   27  C22 UNL     1      12.928  54.640  92.792  1.00  0.00     0.036 A
HETATM   28  C23 UNL     1      12.973  54.690  91.385  1.00  0.00    -0.007 A
BRANCH  26  29
HETATM   29  S1  UNL     1      12.197  53.869  95.271  1.00  0.00     0.263 S
HETATM   30  O1  UNL     1      12.142  52.449  95.747  1.00  0.00    -0.200 OA
HETATM   31  O2  UNL     1      13.566  54.392  95.629  1.00  0.00    -0.200 OA
BRANCH  29  32
HETATM   32  N6  UNL     1      10.947  54.797  95.956  1.00  0.00    -0.281 N
ATOM     33  H6  UNL     1      10.090  54.311  96.217  1.00  0.00     0.179 HD
BRANCH  32  34
HETATM   34  C16 UNL     1      11.004  56.181  96.192  1.00  0.00     0.042 A
HETATM   35  C17 UNL     1       9.885  56.818  96.663  1.00  0.00     0.030 A
HETATM   36  C18 UNL     1       9.829  58.176  96.931  1.00  0.00     0.002 A
HETATM   37  C19 UNL     1      10.993  58.890  96.695  1.00  0.00     0.000 A
HETATM   38  C20 UNL     1      12.127  58.274  96.224  1.00  0.00     0.002 A
HETATM   39  C21 UNL     1      12.137  56.922  95.972  1.00  0.00     0.030 A
ENDBRANCH  32  34
ENDBRANCH  29  32
ENDBRANCH  26  29
BRANCH  28  40
HETATM   40  C24 UNL     1      13.880  55.606  90.751  1.00  0.00    -0.013 A
HETATM   41  C25 UNL     1      13.734  57.068  91.304  1.00  0.00     0.020 C
HETATM   42  C26 UNL     1      14.729  55.542  89.610  1.00  0.00     0.015 A
HETATM   43  C27 UNL     1      15.377  55.164  90.905  1.00  0.00     0.015 A
ENDBRANCH  28  40
ENDBRANCH  22  23
ENDBRANCH  11  22
ENDBRANCH   4   6
ENDBRANCH   3   4
TORSDOF 9
ENDMDL