MODEL 3
REMARK VINA RESULT: -8.047948138      2.965     12.519
REMARK  8 active torsions:
REMARK  status: ('A' for Active; 'I' for Inactive)
REMARK       I    between atoms: C1_2  and  N1_3
REMARK    1  A    between atoms: C1_2  and  C11_22
REMARK    2  A    between atoms: N1_3  and  C2_5
REMARK    3  A    between atoms: C5_8  and  S1_9
REMARK    4  A    between atoms: S1_9  and  N2_12
REMARK    5  A    between atoms: N2_12  and  C6_14
REMARK    6  A    between atoms: C14_25  and  C15_26
REMARK    7  A    between atoms: C15_26  and  S3_27
REMARK    8  A    between atoms: S3_27  and  C16_29
ROOT
HETATM    1  O1  UNL     1      10.264  54.128  89.534  1.00  0.00    -0.266 OA
HETATM    2  C1  UNL     1      11.341  53.647  89.042  1.00  0.00     0.272 C
HETATM    3  N1  UNL     1      12.469  53.502  89.835  1.00  0.00    -0.322 N
ATOM      4  H1  UNL     1      13.297  53.106  89.387  1.00  0.00     0.169 HD
ENDROOT
BRANCH   2   5
HETATM    5  C11 UNL     1      11.346  53.258  87.631  1.00  0.00     0.103 A
HETATM    6  C12 UNL     1      12.146  52.184  87.236  1.00  0.00     0.036 A
HETATM    7  C13 UNL     1      12.147  51.823  85.906  1.00  0.00     0.016 A
HETATM    8  C14 UNL     1      11.403  52.461  84.958  1.00  0.00     0.022 A
HETATM    9  C22 UNL     1      10.629  53.516  85.397  1.00  0.00     0.253 A
HETATM   10  O5  UNL     1       9.925  54.136  84.556  1.00  0.00    -0.268 OA
HETATM   11  N4  UNL     1      10.617  53.889  86.720  1.00  0.00    -0.319 N
ATOM     12  H4  UNL     1      10.032  54.673  87.010  1.00  0.00     0.169 HD
BRANCH   8  13
HETATM   13  C15 UNL     1      11.408  52.104  83.540  1.00  0.00     0.158 C
BRANCH  13  14
HETATM   14  S3  UNL     1      12.645  50.884  83.224  1.00  0.00     0.054 S
HETATM   15  O4  UNL     1      12.053  49.783  82.121  1.00  0.00    -0.252 OA
BRANCH  14  16
HETATM   16  C16 UNL     1      14.134  51.554  82.678  1.00  0.00     0.031 A
HETATM   17  C17 UNL     1      14.435  51.553  81.325  1.00  0.00     0.021 A
HETATM   18  C18 UNL     1      15.613  52.082  80.878  1.00  0.00     0.001 A
HETATM   19  C19 UNL     1      16.492  52.613  81.787  1.00  0.00     0.000 A
HETATM   20  C20 UNL     1      16.213  52.626  83.147  1.00  0.00     0.001 A
HETATM   21  C21 UNL     1      15.020  52.089  83.585  1.00  0.00     0.021 A
ENDBRANCH  14  16
ENDBRANCH  13  14
ENDBRANCH   8  13
ENDBRANCH   2   5
BRANCH   3  22
HETATM   22  C2  UNL     1      12.589  53.851  91.218  1.00  0.00     0.035 A
HETATM   23  C3  UNL     1      13.104  55.015  91.704  1.00  0.00     0.031 A
HETATM   24  C4  UNL     1      13.153  55.266  93.086  1.00  0.00     0.027 A
HETATM   25  C5  UNL     1      12.691  54.363  94.008  1.00  0.00     0.080 A
HETATM   26  C9  UNL     1      12.171  53.187  93.514  1.00  0.00     0.027 A
HETATM   27  C10 UNL     1      12.115  52.926  92.172  1.00  0.00     0.031 A
BRANCH  25  28
HETATM   28  S1  UNL     1      12.758  54.698  95.728  1.00  0.00     0.264 S
HETATM   29  O2  UNL     1      11.589  53.951  96.365  1.00  0.00    -0.200 OA
HETATM   30  O3  UNL     1      13.990  54.106  96.357  1.00  0.00    -0.200 OA
BRANCH  28  31
HETATM   31  N2  UNL     1      12.521  56.342  96.070  1.00  0.00    -0.260 N
ATOM     32  H2  UNL     1      13.342  56.947  96.064  1.00  0.00     0.181 HD
BRANCH  31  33
HETATM   33  C6  UNL     1      11.361  56.897  96.341  1.00  0.00     0.158 A
HETATM   34  N3  UNL     1      10.155  56.335  96.277  1.00  0.00    -0.345 N
HETATM   35  C7  UNL     1       9.112  57.064  96.591  1.00  0.00     0.097 A
ATOM     36  H3  UNL     1      10.046  55.362  95.992  1.00  0.00     0.167 HD
HETATM   37  C8  UNL     1       9.325  58.360  96.964  1.00  0.00     0.070 A
HETATM   38  S2  UNL     1      11.023  58.487  96.852  1.00  0.00    -0.064 SA
ENDBRANCH  31  33
ENDBRANCH  28  31
ENDBRANCH  25  28
ENDBRANCH   3  22
TORSDOF 8
ENDMDL