MODEL 3
REMARK VINA RESULT: -7.284415327      2.861      6.318
REMARK  9 active torsions:
REMARK  status: ('A' for Active; 'I' for Inactive)
REMARK    1  A    between atoms: N1_2  and  C3_4
REMARK    2  A    between atoms: C3_4  and  C4_5
REMARK    3  A    between atoms: C6_7  and  C7_8
REMARK    4  A    between atoms: N3_14  and  C10_15
REMARK    5  A    between atoms: C10_15  and  C11_16
REMARK    6  A    between atoms: C11_16  and  C12_17
REMARK    7  A    between atoms: C12_17  and  O2_18
REMARK    8  A    between atoms: N4_28  and  C20_29
REMARK    9  A    between atoms: C29_39  and  O5_40
ROOT
HETATM    1  C7  UNL     1      13.202  54.337  93.471  1.00  0.00     0.140 A
HETATM    2  C8  UNL     1      13.969  53.508  94.473  1.00  0.00     0.054 C
HETATM    3  N2  UNL     1      13.859  55.619  93.273  1.00  0.00    -0.321 N
ATOM      4  H2  UNL     1      14.136  56.270  94.007  1.00  0.00     0.165 HD
HETATM    5  C9  UNL     1      14.048  55.806  91.881  1.00  0.00     0.326 A
HETATM    6  O1  UNL     1      14.524  56.841  91.344  1.00  0.00    -0.247 OA
HETATM    7  N3  UNL     1      13.630  54.673  91.156  1.00  0.00    -0.268 N
HETATM    8  C26 UNL     1      13.166  53.750  92.130  1.00  0.00     0.260 A
HETATM    9  O4  UNL     1      12.778  52.583  91.863  1.00  0.00    -0.270 OA
ENDROOT
BRANCH   7  10
HETATM   10  C10 UNL     1      13.654  54.453  89.705  1.00  0.00     0.142 C
BRANCH  10  11
HETATM   11  C11 UNL     1      12.262  54.662  89.212  1.00  0.00     0.087 C
BRANCH  11  12
HETATM   12  C12 UNL     1      11.667  53.496  88.469  1.00  0.00     0.172 A
HETATM   13  C13 UNL     1      10.188  53.567  88.742  1.00  0.00     0.013 A
HETATM   14  C14 UNL     1       9.499  53.542  89.958  1.00  0.00     0.013 A
HETATM   15  C18 UNL     1       9.494  53.671  87.578  1.00  0.00     0.043 A
HETATM   16  C15 UNL     1       8.128  53.624  89.948  1.00  0.00     0.001 A
HETATM   17  C16 UNL     1       7.441  53.730  88.760  1.00  0.00     0.001 A
HETATM   18  C17 UNL     1       8.095  53.756  87.565  1.00  0.00     0.018 A
HETATM   19  C19 UNL     1      10.441  53.670  86.489  1.00  0.00     0.261 A
HETATM   20  O3  UNL     1      10.118  53.755  85.272  1.00  0.00    -0.267 OA
HETATM   21  N4  UNL     1      11.768  53.558  87.053  1.00  0.00    -0.276 N
BRANCH  12  22
HETATM   22  O2  UNL     1      12.105  52.299  89.035  1.00  0.00    -0.366 OA
ATOM     23  H2  UNL     1      11.447  51.965  89.635  1.00  0.00     0.213 HD
ENDBRANCH  12  22
BRANCH  21  24
HETATM   24  C20 UNL     1      12.888  53.526  86.191  1.00  0.00     0.041 A
HETATM   25  C21 UNL     1      12.993  52.507  85.273  1.00  0.00     0.030 A
HETATM   26  C22 UNL     1      14.079  52.422  84.400  1.00  0.00     0.002 A
HETATM   27  C23 UNL     1      15.069  53.373  84.451  1.00  0.00     0.000 A
HETATM   28  C24 UNL     1      14.977  54.391  85.360  1.00  0.00     0.002 A
HETATM   29  C25 UNL     1      13.897  54.458  86.213  1.00  0.00     0.030 A
ENDBRANCH  21  24
ENDBRANCH  11  12
ENDBRANCH  10  11
ENDBRANCH   7  10
BRANCH   1  30
HETATM   30  C6  UNL     1      11.844  54.608  94.012  1.00  0.00    -0.020 A
HETATM   31  C5  UNL     1      11.645  55.414  95.139  1.00  0.00     0.022 A
HETATM   32  C4  UNL     1      10.409  55.682  95.650  1.00  0.00     0.004 A
HETATM   33  C29 UNL     1       9.286  55.132  95.027  1.00  0.00     0.073 A
HETATM   34  C28 UNL     1       9.496  54.343  93.922  1.00  0.00     0.038 A
HETATM   35  C27 UNL     1      10.748  54.076  93.410  1.00  0.00     0.013 A
BRANCH  32  36
HETATM   36  C3  UNL     1      10.211  56.507  96.840  1.00  0.00     0.312 C
BRANCH  36  37
HETATM   37  N1  UNL     1       9.828  57.865  96.550  1.00  0.00     0.084 N
HETATM   38  C1  UNL     1      11.020  58.703  96.831  1.00  0.00     0.309 C
HETATM   39  C2  UNL     1       8.858  58.308  97.577  1.00  0.00     0.309 C
ENDBRANCH  36  37
ENDBRANCH  32  36
BRANCH  33  40
HETATM   40  O5  UNL     1       7.989  55.375  95.511  1.00  0.00    -0.360 OA
ATOM     41  H5  UNL     1       7.727  56.238  95.807  1.00  0.00     0.217 HD
ENDBRANCH  33  40
ENDBRANCH   1  30
TORSDOF 9
ENDMDL