MODEL 2
REMARK VINA RESULT: -8.606207153      1.708      2.621
REMARK  8 active torsions:
REMARK  status: ('A' for Active; 'I' for Inactive)
REMARK    1  A    between atoms: C11_14  and  N3_15
REMARK    2  A    between atoms: N3_15  and  C12_17
REMARK    3  A    between atoms: C15_20  and  C16_21
REMARK    4  A    between atoms: N7_32  and  C21_33
REMARK    5  A    between atoms: C21_33  and  C22_34
REMARK    6  A    between atoms: C22_34  and  C23_35
REMARK    7  A    between atoms: C23_35  and  C24_36
REMARK    8  A    between atoms: C24_36  and  N8_37
ROOT
HETATM    1  N1  UNL     1      15.748  51.645  81.875  1.00  0.00    -0.191 NA
HETATM    2  C1  UNL     1      15.243  52.128  82.790  1.00  0.00     0.099 C
HETATM    3  C2  UNL     1      14.620  52.743  83.951  1.00  0.00     0.045 A
HETATM    4  C3  UNL     1      15.242  53.744  84.656  1.00  0.00     0.025 A
HETATM    5  C4  UNL     1      14.604  54.290  85.747  1.00  0.00     0.032 A
HETATM    6  C5  UNL     1      13.348  53.843  86.140  1.00  0.00     0.045 A
HETATM    7  N2  UNL     1      12.549  54.225  87.161  1.00  0.00    -0.341 N
ATOM      8  H2  UNL     1      12.768  54.953  87.842  1.00  0.00     0.167 HD
HETATM    9  C6  UNL     1      11.419  53.495  87.137  1.00  0.00     0.122 A
HETATM   10  C7  UNL     1      11.512  52.627  86.067  1.00  0.00     0.038 A
HETATM   11  C8  UNL     1      12.740  52.835  85.418  1.00  0.00     0.007 A
HETATM   12  C9  UNL     1      13.357  52.276  84.325  1.00  0.00     0.037 A
HETATM   13  C10 UNL     1      10.370  51.877  86.024  1.00  0.00     0.067 A
HETATM   14  C11 UNL     1       9.892  50.876  85.214  1.00  0.00     0.121 A
HETATM   15  N5  UNL     1       8.669  50.355  85.494  1.00  0.00    -0.338 N
ATOM     16  H5  UNL     1       8.308  49.611  84.896  1.00  0.00     0.168 HD
HETATM   17  C19 UNL     1       7.918  50.771  86.517  1.00  0.00     0.183 A
HETATM   18  N6  UNL     1       8.400  51.738  87.285  1.00  0.00    -0.338 N
ATOM     19  H6  UNL     1       7.826  52.056  88.066  1.00  0.00     0.168 HD
HETATM   20  C20 UNL     1       9.588  52.324  87.106  1.00  0.00     0.125 A
HETATM   21  N7  UNL     1      10.244  53.299  87.757  1.00  0.00    -0.318 N
ENDROOT
BRANCH  21  22
HETATM   22  C21 UNL     1       9.786  54.003  88.909  1.00  0.00     0.133 C
BRANCH  22  23
HETATM   23  C22 UNL     1      10.260  53.453  90.230  1.00  0.00     0.026 C
BRANCH  23  24
HETATM   24  C23 UNL     1      10.710  54.492  91.185  1.00  0.00     0.064 C
BRANCH  24  25
HETATM   25  C24 UNL     1      11.783  55.397  90.710  1.00  0.00     0.257 C
BRANCH  25  26
HETATM   26  N8  UNL     1      13.123  55.096  91.026  1.00  0.00     0.100 N
HETATM   27  O2  UNL     1      13.658  54.334  89.996  1.00  0.00    -0.052 OA
HETATM   28  C25 UNL     1      13.408  54.374  92.255  1.00  0.00     0.338 C
HETATM   29  C26 UNL     1      14.687  55.190  92.401  1.00  0.00     0.159 C
HETATM   30  C27 UNL     1      14.014  56.111  91.412  1.00  0.00     0.385 C
HETATM   31  O3  UNL     1      14.209  57.259  91.112  1.00  0.00    -0.255 OA
ENDBRANCH  25  26
ENDBRANCH  24  25
ENDBRANCH  23  24
ENDBRANCH  22  23
ENDBRANCH  21  22
BRANCH  14  32
HETATM   32  N3  UNL     1      10.509  50.410  84.229  1.00  0.00    -0.342 N
ATOM     33  H3  UNL     1      11.140  49.632  84.419  1.00  0.00     0.167 HD
BRANCH  32  34
HETATM   34  C12 UNL     1      10.429  50.837  82.894  1.00  0.00     0.033 A
HETATM   35  C13 UNL     1       9.447  51.757  82.561  1.00  0.00     0.030 A
HETATM   36  C14 UNL     1       9.298  52.230  81.270  1.00  0.00     0.019 A
HETATM   37  C15 UNL     1      10.134  51.791  80.265  1.00  0.00     0.029 A
HETATM   38  C17 UNL     1      11.110  50.878  80.584  1.00  0.00     0.019 A
HETATM   39  C18 UNL     1      11.256  50.407  81.880  1.00  0.00     0.030 A
BRANCH  37  40
HETATM   40  C16 UNL     1       9.981  52.285  78.902  1.00  0.00     0.264 C
HETATM   41  N4  UNL     1       9.507  51.386  77.889  1.00  0.00    -0.057 NA
HETATM   42  O1  UNL     1      10.249  53.465  78.587  1.00  0.00    -0.271 OA
ENDBRANCH  37  40
ENDBRANCH  32  34
ENDBRANCH  14  32
TORSDOF 8
ENDMDL