MODEL 2
REMARK VINA RESULT: -8.061091971      1.099      1.820
REMARK  10 active torsions:
REMARK  status: ('A' for Active; 'I' for Inactive)
REMARK    1  A    between atoms: O1_2  and  C2_3
REMARK    2  A    between atoms: C5_6  and  N1_7
REMARK    3  A    between atoms: N2_10  and  C8_11
REMARK    4  A    between atoms: C10_13  and  N3_14
REMARK    5  A    between atoms: N3_14  and  C11_16
REMARK    6  A    between atoms: C11_16  and  C12_17
REMARK    7  A    between atoms: C12_17  and  N4_18
REMARK    8  A    between atoms: N4_18  and  C13_20
REMARK    9  A    between atoms: C18_29  and  N7_30
REMARK   10  A    between atoms: N7_30  and  C19_32
ROOT
HETATM    1  C8  UNL     1      11.374  54.187  90.104  1.00  0.00     0.122 A
HETATM    2  C9  UNL     1      11.613  53.751  91.380  1.00  0.00     0.098 A
HETATM    3  C10 UNL     1      10.765  54.072  92.450  1.00  0.00     0.124 A
HETATM    4  N6  UNL     1       9.712  54.827  92.161  1.00  0.00    -0.176 N
ATOM      5  H6  UNL     1       9.074  55.081  92.914  1.00  0.00     0.186 HD
HETATM    6  C18 UNL     1       9.443  55.281  90.895  1.00  0.00     0.685 A
HETATM    7  N8  UNL     1      10.291  54.943  89.901  1.00  0.00    -0.176 N
ATOM      8  H8  UNL     1      10.097  55.277  88.957  1.00  0.00     0.186 HD
ENDROOT
BRANCH   1   9
HETATM    9  N2  UNL     1      12.252  53.830  89.053  1.00  0.00    -0.364 N
HETATM   10  C7  UNL     1      13.524  54.496  88.836  1.00  0.00     0.144 C
HETATM   11  C6  UNL     1      13.738  54.830  87.380  1.00  0.00     0.143 C
HETATM   12  N1  UNL     1      13.192  53.860  86.477  1.00  0.00    -0.378 N
HETATM   13  C27 UNL     1      11.839  53.416  86.747  1.00  0.00     0.143 C
HETATM   14  C26 UNL     1      11.888  52.761  88.139  1.00  0.00     0.144 C
BRANCH  12  15
HETATM   15  C5  UNL     1      13.866  53.293  85.364  1.00  0.00     0.030 A
HETATM   16  C4  UNL     1      13.339  52.192  84.703  1.00  0.00     0.032 A
HETATM   17  C3  UNL     1      13.999  51.625  83.638  1.00  0.00     0.039 A
HETATM   18  C2  UNL     1      15.199  52.092  83.157  1.00  0.00     0.068 A
HETATM   19  C29 UNL     1      15.735  53.184  83.800  1.00  0.00     0.039 A
HETATM   20  C28 UNL     1      15.069  53.765  84.886  1.00  0.00     0.032 A
BRANCH  18  21
HETATM   21  O1  UNL     1      15.807  51.468  82.077  1.00  0.00    -0.356 OA
HETATM   22  C1  UNL     1      15.324  51.525  80.769  1.00  0.00     0.210 C
ENDBRANCH  18  21
ENDBRANCH  12  15
ENDBRANCH   1   9
BRANCH   3  23
HETATM   23  N3  UNL     1      11.090  53.618  93.579  1.00  0.00    -0.354 N
ATOM     24  H3  UNL     1      10.352  53.180  94.131  1.00  0.00     0.166 HD
BRANCH  23  25
HETATM   25  C11 UNL     1      12.375  53.660  94.150  1.00  0.00     0.082 C
BRANCH  25  26
HETATM   26  C12 UNL     1      12.401  54.372  95.495  1.00  0.00     0.165 C
BRANCH  26  27
HETATM   27  N4  UNL     1      12.572  55.784  95.325  1.00  0.00    -0.372 N
ATOM     28  H4  UNL     1      13.363  56.132  94.783  1.00  0.00     0.161 HD
BRANCH  27  29
HETATM   29  C13 UNL     1      11.749  56.614  95.842  1.00  0.00     0.101 A
HETATM   30  C14 UNL     1      12.085  57.898  96.207  1.00  0.00     0.048 A
HETATM   31  C15 UNL     1      11.128  58.707  96.753  1.00  0.00     0.005 A
HETATM   32  C16 UNL     1       9.832  58.284  96.955  1.00  0.00     0.017 A
HETATM   33  C17 UNL     1       9.538  56.985  96.573  1.00  0.00     0.089 A
HETATM   34  N5  UNL     1      10.471  56.181  96.035  1.00  0.00    -0.353 N
ATOM     35  H5  UNL     1      10.218  55.230  95.765  1.00  0.00     0.166 HD
ENDBRANCH  27  29
ENDBRANCH  26  27
ENDBRANCH  25  26
ENDBRANCH  23  25
ENDBRANCH   3  23
BRANCH   6  36
HETATM   36  N7  UNL     1       8.401  56.011  90.689  1.00  0.00    -0.191 N
ATOM     37  H7  UNL     1       8.363  56.944  91.098  1.00  0.00     0.184 HD
BRANCH  36  38
HETATM   38  C19 UNL     1       7.311  55.558  89.915  1.00  0.00     0.055 A
HETATM   39  C20 UNL     1       7.199  54.242  89.546  1.00  0.00     0.030 A
HETATM   40  C21 UNL     1       6.139  53.806  88.792  1.00  0.00     0.002 A
HETATM   41  C22 UNL     1       5.172  54.708  88.400  1.00  0.00     0.001 A
HETATM   42  C23 UNL     1       5.249  56.042  88.751  1.00  0.00     0.009 A
HETATM   43  C24 UNL     1       6.341  56.445  89.517  1.00  0.00    -0.035 A
HETATM   44  C25 UNL     1       6.445  57.868  89.905  1.00  0.00     0.050 C
ENDBRANCH  36  38
ENDBRANCH   6  36
TORSDOF 10
ENDMDL