MODEL 3
REMARK VINA RESULT: -7.287264878      7.171     12.531
REMARK  8 active torsions:
REMARK  status: ('A' for Active; 'I' for Inactive)
REMARK    1  A    between atoms: C2_3  and  C3_4
REMARK       I    between atoms: C3_4  and  N2_6
REMARK    2  A    between atoms: N2_6  and  C4_8
REMARK    3  A    between atoms: C7_11  and  S1_12
REMARK    4  A    between atoms: S1_12  and  N3_15
REMARK    5  A    between atoms: N3_15  and  C8_16
REMARK    6  A    between atoms: C15_25  and  N5_26
REMARK    7  A    between atoms: N5_26  and  S2_28
REMARK    8  A    between atoms: S2_28  and  C16_31
ROOT
HETATM    1  N1  UNL     1      13.596  55.055  93.711  1.00  0.00    -0.197 NA
HETATM    2  C1  UNL     1      14.085  55.636  92.830  1.00  0.00     0.068 C
HETATM    3  C2  UNL     1      14.668  56.356  91.731  1.00  0.00     0.226 C
ENDROOT
BRANCH   3   4
HETATM    4  C3  UNL     1      14.707  55.441  90.512  1.00  0.00     0.235 C
HETATM    5  O1  UNL     1      15.781  54.904  90.256  1.00  0.00    -0.272 OA
HETATM    6  N2  UNL     1      13.491  55.315  89.814  1.00  0.00    -0.326 N
ATOM      7  H2  UNL     1      12.697  55.840  90.180  1.00  0.00     0.169 HD
BRANCH   6   8
HETATM    8  C4  UNL     1      13.260  54.540  88.661  1.00  0.00     0.045 A
HETATM    9  C5  UNL     1      13.692  54.922  87.408  1.00  0.00     0.032 A
HETATM   10  C6  UNL     1      13.414  54.117  86.321  1.00  0.00     0.029 A
HETATM   11  C7  UNL     1      12.726  52.949  86.402  1.00  0.00     0.104 A
HETATM   12  C13 UNL     1      12.287  52.557  87.649  1.00  0.00     0.003 A
HETATM   13  C14 UNL     1      11.590  51.372  87.742  1.00  0.00     0.044 A
HETATM   14  C24 UNL     1      12.543  53.338  88.790  1.00  0.00     0.003 A
HETATM   15  C15 UNL     1      11.119  50.913  88.984  1.00  0.00     0.043 A
HETATM   16  C22 UNL     1      11.385  51.692  90.067  1.00  0.00     0.031 A
HETATM   17  C23 UNL     1      12.089  52.902  90.008  1.00  0.00     0.017 A
BRANCH  11  18
HETATM   18  S1  UNL     1      12.409  51.922  85.004  1.00  0.00     0.326 S
HETATM   19  O2  UNL     1      11.920  50.555  85.503  1.00  0.00    -0.186 OA
HETATM   20  O3  UNL     1      11.121  52.511  84.393  1.00  0.00    -0.186 OA
BRANCH  18  21
HETATM   21  N3  UNL     1      13.560  51.875  83.883  1.00  0.00    -0.319 NA
BRANCH  21  22
HETATM   22  C8  UNL     1      14.405  51.877  83.065  1.00  0.00     0.124 A
HETATM   23  C9  UNL     1      14.285  51.167  81.866  1.00  0.00     0.062 A
HETATM   24  C10 UNL     1      15.245  51.158  80.902  1.00  0.00     0.091 A
HETATM   25  N4  UNL     1      16.378  51.874  81.120  1.00  0.00    -0.375 N
HETATM   26  C11 UNL     1      16.587  52.585  82.237  1.00  0.00     0.091 A
ATOM     27  H4  UNL     1      17.102  51.871  80.401  1.00  0.00     0.164 HD
HETATM   28  C12 UNL     1      15.614  52.587  83.198  1.00  0.00     0.062 A
ENDBRANCH  21  22
ENDBRANCH  18  21
ENDBRANCH  11  18
BRANCH  15  29
HETATM   29  N5  UNL     1      10.400  49.694  89.041  1.00  0.00    -0.281 N
ATOM     30  H5  UNL     1       9.387  49.725  89.158  1.00  0.00     0.179 HD
BRANCH  29  31
HETATM   31  S2  UNL     1      11.169  48.181  88.922  1.00  0.00     0.263 S
HETATM   32  O4  UNL     1      10.690  47.447  87.670  1.00  0.00    -0.200 OA
HETATM   33  O5  UNL     1      10.713  47.317  90.103  1.00  0.00    -0.200 OA
BRANCH  31  34
HETATM   34  C16 UNL     1      12.884  48.178  88.890  1.00  0.00     0.079 A
HETATM   35  C17 UNL     1      13.557  47.810  87.732  1.00  0.00     0.025 A
HETATM   36  C18 UNL     1      14.954  47.771  87.730  1.00  0.00     0.002 A
HETATM   37  C19 UNL     1      15.695  48.086  88.842  1.00  0.00     0.000 A
HETATM   38  C20 UNL     1      15.042  48.451  89.995  1.00  0.00     0.002 A
HETATM   39  C21 UNL     1      13.642  48.493  90.002  1.00  0.00     0.025 A
ENDBRANCH  31  34
ENDBRANCH  29  31
ENDBRANCH  15  29
ENDBRANCH   6   8
ENDBRANCH   3   4
TORSDOF 8
ENDMDL