MODEL 1
REMARK VINA RESULT: -8.400051068      0.000      0.000
REMARK  7 active torsions:
REMARK  status: ('A' for Active; 'I' for Inactive)
REMARK       I    between atoms: C1_2  and  N1_3
REMARK    1  A    between atoms: C1_2  and  C12_24
REMARK    2  A    between atoms: N1_3  and  C2_5
REMARK    3  A    between atoms: C5_8  and  S1_9
REMARK    4  A    between atoms: S1_9  and  N2_12
REMARK    5  A    between atoms: C17_29  and  N5_30
REMARK    6  A    between atoms: N5_30  and  S2_32
REMARK    7  A    between atoms: S2_32  and  C18_35
ROOT
HETATM    1  O1  UNL     1      10.204  54.414  86.121  1.00  0.00    -0.267 OA
HETATM    2  C1  UNL     1       9.745  53.378  86.649  1.00  0.00     0.258 C
HETATM    3  N1  UNL     1      10.140  52.960  87.925  1.00  0.00    -0.323 N
ATOM      4  H1  UNL     1       9.708  52.105  88.277  1.00  0.00     0.169 HD
ENDROOT
BRANCH   3   5
HETATM    5  C2  UNL     1      11.074  53.593  88.784  1.00  0.00     0.035 A
HETATM    6  C3  UNL     1      12.417  53.679  88.407  1.00  0.00     0.031 A
HETATM    7  C4  UNL     1      13.373  54.292  89.177  1.00  0.00     0.027 A
HETATM    8  C5  UNL     1      13.034  54.859  90.381  1.00  0.00     0.080 A
HETATM    9  C10 UNL     1      11.724  54.799  90.792  1.00  0.00     0.027 A
HETATM   10  C11 UNL     1      10.756  54.165  89.987  1.00  0.00     0.031 A
BRANCH   8  11
HETATM   11  S1  UNL     1      14.249  55.646  91.372  1.00  0.00     0.276 S
HETATM   12  O2  UNL     1      15.616  55.191  91.003  1.00  0.00    -0.200 OA
HETATM   13  O3  UNL     1      14.199  57.126  90.995  1.00  0.00    -0.200 OA
BRANCH  11  14
HETATM   14  N2  UNL     1      13.863  55.527  93.017  1.00  0.00    -0.112 N
HETATM   15  C6  UNL     1      13.875  54.521  93.779  1.00  0.00     0.691 A
HETATM   16  N3  UNL     1      13.507  54.734  95.082  1.00  0.00    -0.201 N
HETATM   17  N4  UNL     1      14.226  53.312  93.345  1.00  0.00    -0.201 N
HETATM   18  C7  UNL     1      13.496  53.722  95.944  1.00  0.00     0.107 A
ATOM     19  H3  UNL     1      13.242  55.669  95.390  1.00  0.00     0.183 HD
HETATM   20  C8  UNL     1      13.851  52.452  95.540  1.00  0.00     0.035 A
HETATM   21  C9  UNL     1      14.218  52.281  94.205  1.00  0.00     0.107 A
ATOM     22  H4  UNL     1      14.497  53.171  92.373  1.00  0.00     0.183 HD
ATOM     23  H2  UNL     1      13.577  56.401  93.459  1.00  0.00     0.197 HD
ENDBRANCH  11  14
ENDBRANCH   8  11
ENDBRANCH   3   5
BRANCH   2  24
HETATM   24  C12 UNL     1       8.758  52.574  85.902  1.00  0.00     0.059 A
HETATM   25  C13 UNL     1       7.452  52.427  86.314  1.00  0.00     0.019 A
HETATM   26  C14 UNL     1       6.573  51.651  85.598  1.00  0.00     0.001 A
HETATM   27  C15 UNL     1       7.013  51.019  84.460  1.00  0.00     0.002 A
HETATM   28  C16 UNL     1       8.321  51.171  84.053  1.00  0.00     0.031 A
HETATM   29  C17 UNL     1       9.215  51.942  84.753  1.00  0.00     0.058 A
BRANCH  29  30
HETATM   30  N5  UNL     1      10.515  52.087  84.272  1.00  0.00    -0.280 N
ATOM     31  H5  UNL     1      10.660  52.817  83.575  1.00  0.00     0.179 HD
BRANCH  30  32
HETATM   32  S2  UNL     1      11.894  51.182  84.717  1.00  0.00     0.263 S
HETATM   33  O4  UNL     1      11.978  49.875  83.969  1.00  0.00    -0.200 OA
HETATM   34  O5  UNL     1      11.759  50.781  86.178  1.00  0.00    -0.200 OA
BRANCH  32  35
HETATM   35  C18 UNL     1      13.363  52.101  84.548  1.00  0.00     0.079 A
HETATM   36  C19 UNL     1      14.334  51.659  83.647  1.00  0.00     0.025 A
HETATM   37  C20 UNL     1      15.518  52.346  83.470  1.00  0.00     0.002 A
HETATM   38  C21 UNL     1      15.756  53.504  84.200  1.00  0.00     0.000 A
HETATM   39  C22 UNL     1      14.823  53.961  85.090  1.00  0.00     0.002 A
HETATM   40  C23 UNL     1      13.645  53.250  85.245  1.00  0.00     0.025 A
ENDBRANCH  32  35
ENDBRANCH  30  32
ENDBRANCH  29  30
ENDBRANCH   2  24
TORSDOF 7
ENDMDL