MODEL 4
REMARK VINA RESULT: -6.850301214      2.834      3.282
REMARK  9 active torsions:
REMARK  status: ('A' for Active; 'I' for Inactive)
REMARK    1  A    between atoms: C2_2  and  C3_3
REMARK    2  A    between atoms: C3_3  and  C4_4
REMARK    3  A    between atoms: C4_4  and  N1_5
REMARK    4  A    between atoms: C5_6  and  C6_7
REMARK    5  A    between atoms: C12_13  and  N2_14
REMARK    6  A    between atoms: C15_19  and  N4_20
REMARK    7  A    between atoms: N4_20  and  C16_22
REMARK    8  A    between atoms: C16_22  and  C18_24
REMARK    9  A    between atoms: C18_24  and  O1_25
ROOT
HETATM    1  N1  UNL     1      11.413  51.627  82.367  1.00  0.00    -0.307 N
HETATM    2  C5  UNL     1      10.520  51.862  83.518  1.00  0.00     0.095 A
HETATM    3  C12 UNL     1      11.220  52.258  84.553  1.00  0.00     0.144 A
HETATM    4  N5  UNL     1      12.619  52.330  84.226  1.00  0.00    -0.316 N
HETATM    5  C21 UNL     1      13.622  52.656  85.188  1.00  0.00     0.136 C
HETATM    6  C22 UNL     1      14.827  53.369  84.735  1.00  0.00     0.049 C
HETATM    7  C23 UNL     1      15.536  52.755  83.619  1.00  0.00     0.005 C
HETATM    8  C24 UNL     1      15.120  52.072  82.575  1.00  0.00     0.042 A
HETATM    9  N6  UNL     1      15.971  51.586  81.630  1.00  0.00    -0.359 N
ATOM     10  H6  UNL     1      16.988  51.653  81.667  1.00  0.00     0.166 HD
HETATM   11  C25 UNL     1      15.279  51.010  80.651  1.00  0.00     0.006 A
HETATM   12  C26 UNL     1      15.856  50.365  79.440  1.00  0.00     0.068 C
HETATM   13  C27 UNL     1      13.916  51.107  80.942  1.00  0.00     0.042 A
HETATM   14  C28 UNL     1      13.843  51.764  82.141  1.00  0.00     0.037 A
HETATM   15  C29 UNL     1      12.708  51.929  82.845  1.00  0.00     0.128 A
ENDROOT
BRANCH   3  16
HETATM   16  N2  UNL     1      10.737  52.583  85.841  1.00  0.00    -0.313 N
HETATM   17  C13 UNL     1      10.391  53.786  86.309  1.00  0.00     0.129 A
HETATM   18  C14 UNL     1       9.967  53.676  87.651  1.00  0.00     0.069 A
HETATM   19  N3  UNL     1       9.529  54.454  88.606  1.00  0.00    -0.335 N
HETATM   20  C19 UNL     1      10.095  52.342  87.915  1.00  0.00     0.052 A
HETATM   21  C15 UNL     1       9.227  53.912  89.788  1.00  0.00     0.146 A
ATOM     22  H3  UNL     1       9.420  55.456  88.450  1.00  0.00     0.168 HD
HETATM   23  S1  UNL     1       9.575  52.255  89.540  1.00  0.00    -0.051 SA
HETATM   24  C20 UNL     1      10.575  51.647  86.792  1.00  0.00     0.119 A
BRANCH  21  25
HETATM   25  N4  UNL     1       8.772  54.503  90.871  1.00  0.00    -0.364 N
ATOM     26  H4  UNL     1       9.408  54.951  91.530  1.00  0.00     0.162 HD
BRANCH  25  27
HETATM   27  C16 UNL     1       7.357  54.499  91.099  1.00  0.00     0.103 C
HETATM   28  C17 UNL     1       7.125  54.419  92.597  1.00  0.00     0.034 C
BRANCH  27  29
HETATM   29  C18 UNL     1       6.721  55.781  90.558  1.00  0.00     0.188 C
BRANCH  29  30
HETATM   30  O1  UNL     1       7.632  56.819  90.643  1.00  0.00    -0.399 OA
ATOM     31  H1  UNL     1       7.443  57.343  91.412  1.00  0.00     0.209 HD
ENDBRANCH  29  30
ENDBRANCH  27  29
ENDBRANCH  25  27
ENDBRANCH  21  25
ENDBRANCH   3  16
BRANCH   2  32
HETATM   32  C6  UNL     1       9.073  51.712  83.455  1.00  0.00    -0.005 A
HETATM   33  C7  UNL     1       8.339  52.887  83.238  1.00  0.00     0.014 A
HETATM   34  C8  UNL     1       6.984  52.954  83.210  1.00  0.00     0.001 A
HETATM   35  C9  UNL     1       6.275  51.789  83.408  1.00  0.00     0.000 A
HETATM   36  C10 UNL     1       6.946  50.608  83.625  1.00  0.00     0.001 A
HETATM   37  C11 UNL     1       8.347  50.589  83.646  1.00  0.00     0.014 A
ENDBRANCH   2  32
BRANCH   1  38
HETATM   38  C4  UNL     1      10.940  51.235  81.108  1.00  0.00     0.072 C
BRANCH  38  39
HETATM   39  C3  UNL     1      10.523  52.302  80.142  1.00  0.00     0.045 C
BRANCH  39  40
HETATM   40  C2  UNL     1       9.116  52.351  79.673  1.00  0.00     0.001 C
HETATM   41  C1  UNL     1       8.235  51.181  79.886  1.00  0.00     0.005 C
ENDBRANCH  39  40
ENDBRANCH  38  39
ENDBRANCH   1  38
TORSDOF 9
ENDMDL