MODEL 2
REMARK VINA RESULT: -7.844187259      3.479      9.344
REMARK  9 active torsions:
REMARK  status: ('A' for Active; 'I' for Inactive)
REMARK    1  A    between atoms: C2_2  and  C3_3
REMARK    2  A    between atoms: C3_3  and  C4_4
REMARK    3  A    between atoms: C5_7  and  N2_8
REMARK    4  A    between atoms: N2_8  and  C6_10
REMARK    5  A    between atoms: C10_14  and  S1_15
REMARK    6  A    between atoms: S1_15  and  N3_18
REMARK    7  A    between atoms: N3_18  and  C11_20
REMARK    8  A    between atoms: C16_25  and  S2_26
REMARK    9  A    between atoms: N4_37  and  O6_38
ROOT
HETATM    1  C6  UNL     1      11.675  52.468  85.748  1.00  0.00     0.035 A
HETATM    2  C7  UNL     1      10.494  53.134  85.338  1.00  0.00     0.029 A
HETATM    3  C8  UNL     1       9.699  53.754  86.261  1.00  0.00     0.004 A
HETATM    4  C9  UNL     1      10.005  53.757  87.603  1.00  0.00     0.025 A
HETATM    5  C10 UNL     1      11.160  53.113  88.061  1.00  0.00     0.082 A
HETATM    6  C17 UNL     1      11.929  52.509  87.136  1.00  0.00     0.054 A
ENDROOT
BRANCH   1   7
HETATM    7  N2  UNL     1      12.469  51.863  84.861  1.00  0.00    -0.342 N
ATOM      8  H2  UNL     1      13.173  51.461  85.481  1.00  0.00     0.167 HD
BRANCH   7   9
HETATM    9  C5  UNL     1      12.875  51.496  83.795  1.00  0.00     0.119 A
HETATM   10  N1  UNL     1      12.087  50.667  82.998  1.00  0.00    -0.329 N
HETATM   11  C4  UNL     1      12.437  50.208  81.816  1.00  0.00     0.111 A
ATOM     12  H1  UNL     1      11.172  50.396  83.358  1.00  0.00     0.168 HD
HETATM   13  N4  UNL     1      13.633  50.554  81.329  1.00  0.00    -0.211 N
HETATM   14  C23 UNL     1      14.457  51.357  82.047  1.00  0.00     0.078 A
HETATM   15  C18 UNL     1      14.133  51.859  83.284  1.00  0.00     0.037 A
HETATM   16  C22 UNL     1      15.702  51.700  81.509  1.00  0.00     0.033 A
HETATM   17  C19 UNL     1      14.970  52.675  84.010  1.00  0.00     0.017 A
HETATM   18  C20 UNL     1      16.208  52.997  83.442  1.00  0.00     0.001 A
HETATM   19  C21 UNL     1      16.571  52.515  82.202  1.00  0.00     0.002 A
BRANCH  11  20
HETATM   20  C3  UNL     1      11.517  49.311  81.016  1.00  0.00     0.079 C
BRANCH  20  21
HETATM   21  C2  UNL     1      11.451  47.975  81.754  1.00  0.00     0.003 C
HETATM   22  C1  UNL     1      12.519  47.034  81.287  1.00  0.00     0.005 C
ENDBRANCH  20  21
ENDBRANCH  11  20
BRANCH  13  23
HETATM   23  O6  UNL     1      14.045  50.105  80.105  1.00  0.00    -0.281 OA
ATOM     24  H6  UNL     1      14.721  50.564  79.622  1.00  0.00     0.245 HD
ENDBRANCH  13  23
ENDBRANCH   7   9
ENDBRANCH   1   7
BRANCH   5  25
HETATM   25  S1  UNL     1      11.568  53.105  89.762  1.00  0.00     0.263 S
HETATM   26  O1  UNL     1      12.541  51.972  89.974  1.00  0.00    -0.200 OA
HETATM   27  O2  UNL     1      10.345  52.732  90.587  1.00  0.00    -0.200 OA
BRANCH  25  28
HETATM   28  N3  UNL     1      12.269  54.541  90.328  1.00  0.00    -0.279 N
ATOM     29  H3  UNL     1      12.487  55.257  89.634  1.00  0.00     0.179 HD
BRANCH  28  30
HETATM   30  C11 UNL     1      12.578  54.836  91.676  1.00  0.00     0.067 A
HETATM   31  C12 UNL     1      11.763  54.512  92.732  1.00  0.00     0.032 A
HETATM   32  C13 UNL     1      12.094  54.838  94.036  1.00  0.00     0.002 A
HETATM   33  C14 UNL     1      13.260  55.499  94.269  1.00  0.00     0.002 A
HETATM   34  C15 UNL     1      14.088  55.834  93.233  1.00  0.00     0.028 A
HETATM   35  C16 UNL     1      13.772  55.516  91.944  1.00  0.00     0.107 A
BRANCH  35  36
HETATM   36  S2  UNL     1      14.837  55.952  90.613  1.00  0.00     0.140 S
HETATM   37  O3  UNL     1      15.913  54.893  90.488  1.00  0.00    -0.591 OA
HETATM   38  O4  UNL     1      15.554  57.234  90.942  1.00  0.00    -0.591 OA
HETATM   39  O5  UNL     1      14.045  56.029  89.159  1.00  0.00    -0.591 OA
ENDBRANCH  35  36
ENDBRANCH  28  30
ENDBRANCH  25  28
ENDBRANCH   5  25
TORSDOF 9
ENDMDL