MODEL 2
REMARK VINA RESULT: -5.401524952      1.040      1.830
REMARK  9 active torsions:
REMARK  status: ('A' for Active; 'I' for Inactive)
REMARK    1  A    between atoms: N1_1  and  C1_5
REMARK    2  A    between atoms: C3_10  and  O1_11
REMARK    3  A    between atoms: C4_15  and  N4_16
REMARK    4  A    between atoms: N4_16  and  C5_18
REMARK    5  A    between atoms: C5_18  and  C6_19
REMARK    6  A    between atoms: C6_19  and  O2_20
REMARK    7  A    between atoms: O2_20  and  C7_21
REMARK    8  A    between atoms: C9_23  and  O3_24
REMARK    9  A    between atoms: C10_26  and  N5_27
ROOT
HETATM    1  C1  UNL     1      20.145  16.735  10.777  1.00  0.00     0.421 C
HETATM    2  N2  UNL     1      21.438  16.286  11.183  1.00  0.00    -0.038 N
ATOM      3  H21 UNL     1      21.480  15.266  11.169  1.00  0.00     0.280 HD
ATOM      4  H22 UNL     1      21.575  16.453  12.180  1.00  0.00     0.280 HD
HETATM    5  C2  UNL     1      22.531  16.847  10.422  1.00  0.00     0.287 C
HETATM    6  C3  UNL     1      22.132  17.121   8.999  1.00  0.00     0.240 C
HETATM    7  N3  UNL     1      20.953  17.906   8.861  1.00  0.00    -0.372 N
ATOM      8  H3  UNL     1      20.671  18.320   7.973  1.00  0.00     0.158 HD
HETATM    9  C4  UNL     1      20.180  18.075  10.076  1.00  0.00     0.237 C
ENDROOT
BRANCH   9  10
HETATM   10  N4  UNL     1      20.725  19.114  10.872  1.00  0.00    -0.377 N
ATOM     11  H4  UNL     1      21.646  19.501  10.660  1.00  0.00     0.160 HD
BRANCH  10  12
HETATM   12  C5  UNL     1      19.976  19.604  11.957  1.00  0.00     0.083 C
BRANCH  12  13
HETATM   13  C6  UNL     1      20.141  21.023  12.351  1.00  0.00     0.212 C
BRANCH  13  14
HETATM   14  O2  UNL     1      20.366  21.232  13.680  1.00  0.00    -0.379 OA
BRANCH  14  15
HETATM   15  C7  UNL     1      19.838  22.411  14.169  1.00  0.00     0.157 C
HETATM   16  C8  UNL     1      18.675  22.242  15.122  1.00  0.00     0.068 C
HETATM   17  C9  UNL     1      19.266  23.356  15.953  1.00  0.00     0.153 C
HETATM   18  C10 UNL     1      20.616  23.011  15.317  1.00  0.00     0.240 C
BRANCH  17  19
HETATM   19  O3  UNL     1      19.214  23.090  17.329  1.00  0.00    -0.393 OA
ATOM     20  H3  UNL     1      20.077  23.013  17.720  1.00  0.00     0.210 HD
ENDBRANCH  17  19
BRANCH  18  21
HETATM   21  N5  UNL     1      21.309  21.962  16.047  1.00  0.00    -0.070 N
ATOM     22  H53 UNL     1      21.473  22.217  17.021  1.00  0.00     0.274 HD
ATOM     23  H52 UNL     1      20.715  21.148  16.205  1.00  0.00     0.274 HD
ATOM     24  H51 UNL     1      22.174  21.717  15.565  1.00  0.00     0.274 HD
ENDBRANCH  18  21
ENDBRANCH  14  15
ENDBRANCH  13  14
ENDBRANCH  12  13
ENDBRANCH  10  12
ENDBRANCH   9  10
BRANCH   1  25
HETATM   25  N1  UNL     1      19.458  15.794   9.925  1.00  0.00    -0.046 N
ATOM     26  H13 UNL     1      19.323  16.180   8.991  1.00  0.00     0.277 HD
ATOM     27  H12 UNL     1      20.063  15.006   9.694  1.00  0.00     0.277 HD
ATOM     28  H11 UNL     1      18.573  15.470  10.316  1.00  0.00     0.277 HD
ENDBRANCH   1  25
BRANCH   6  29
HETATM   29  O1  UNL     1      21.968  15.939   8.262  1.00  0.00    -0.375 OA
ATOM     30  H1  UNL     1      21.546  16.096   7.426  1.00  0.00     0.212 HD
ENDBRANCH   6  29
TORSDOF 9
ENDMDL