MODEL 4
REMARK VINA RESULT: -6.550488264      1.880      2.464
REMARK  8 active torsions:
REMARK  status: ('A' for Active; 'I' for Inactive)
REMARK    1  A    between atoms: N1_1  and  C1_4
REMARK    2  A    between atoms: C2_7  and  C3_8
REMARK    3  A    between atoms: C3_8  and  N3_9
REMARK    4  A    between atoms: N3_9  and  C4_12
REMARK    5  A    between atoms: C4_12  and  C5_13
REMARK    6  A    between atoms: C5_13  and  N4_14
REMARK    7  A    between atoms: N4_14  and  C6_17
REMARK    8  A    between atoms: C8_23  and  O1_24
ROOT
HETATM    1  N3  UNL     1      26.680  18.487   9.853  1.00  0.00    -0.067 N
ATOM      2  H31 UNL     1      26.949  17.505   9.916  1.00  0.00     0.277 HD
ATOM      3  H32 UNL     1      26.695  18.585   8.838  1.00  0.00     0.277 HD
ENDROOT
BRANCH   1   4
HETATM    4  C3  UNL     1      27.651  19.352  10.491  1.00  0.00     0.309 C
BRANCH   4   5
HETATM    5  C2  UNL     1      27.523  20.731  10.008  1.00  0.00     0.127 A
HETATM    6  N2  UNL     1      27.611  21.040   8.703  1.00  0.00    -0.179 N
HETATM    7  C1  UNL     1      27.489  22.328   8.305  1.00  0.00     0.681 A
ATOM      8  H2  UNL     1      27.771  20.305   8.014  1.00  0.00     0.185 HD
HETATM    9  N9  UNL     1      27.280  23.302   9.204  1.00  0.00    -0.141 N
HETATM   10  C9  UNL     1      27.191  23.008  10.500  1.00  0.00     0.340 A
ATOM     11  H9  UNL     1      27.189  24.269   8.893  1.00  0.00     0.189 HD
HETATM   12  N8  UNL     1      27.311  21.726  10.913  1.00  0.00    -0.296 N
HETATM   13  O2  UNL     1      26.997  23.870  11.377  1.00  0.00    -0.246 OA
ATOM     14  H8  UNL     1      27.242  21.504  11.906  1.00  0.00     0.172 HD
BRANCH   7  15
HETATM   15  N1  UNL     1      27.579  22.595   7.039  1.00  0.00    -0.234 N
ATOM     16  H12 UNL     1      28.317  23.202   6.681  1.00  0.00     0.174 HD
ATOM     17  H11 UNL     1      26.894  22.185   6.404  1.00  0.00     0.174 HD
ENDBRANCH   7  15
ENDBRANCH   4   5
ENDBRANCH   1   4
BRANCH   1  18
HETATM   18  C4  UNL     1      25.339  18.721  10.405  1.00  0.00     0.260 C
BRANCH  18  19
HETATM   19  C5  UNL     1      24.287  18.085   9.512  1.00  0.00     0.260 C
BRANCH  19  20
HETATM   20  N4  UNL     1      23.611  17.003  10.195  1.00  0.00    -0.059 N
ATOM     21  H42 UNL     1      23.746  16.109   9.722  1.00  0.00     0.278 HD
ATOM     22  H41 UNL     1      24.059  16.773  11.082  1.00  0.00     0.278 HD
BRANCH  20  23
HETATM   23  C6  UNL     1      22.207  17.320  10.363  1.00  0.00     0.296 C
HETATM   24  C7  UNL     1      21.404  16.393   9.545  1.00  0.00     0.139 C
HETATM   25  N5  UNL     1      21.648  14.977   9.378  1.00  0.00    -0.084 NA
HETATM   26  N6  UNL     1      20.452  17.052   9.005  1.00  0.00    -0.291 N
HETATM   27  N7  UNL     1      20.492  18.397   9.362  1.00  0.00    -0.105 NA
ATOM     28  H6  UNL     1      19.750  16.643   8.388  1.00  0.00     0.183 HD
HETATM   29  C8  UNL     1      21.840  18.656   9.802  1.00  0.00     0.269 C
BRANCH  29  30
HETATM   30  O1  UNL     1      21.904  19.684  10.735  1.00  0.00    -0.375 OA
ATOM     31  H1  UNL     1      21.981  20.546  10.344  1.00  0.00     0.211 HD
ENDBRANCH  29  30
ENDBRANCH  20  23
ENDBRANCH  19  20
ENDBRANCH  18  19
ENDBRANCH   1  18
TORSDOF 8
ENDMDL