MODEL 5
REMARK VINA RESULT: -5.854022437      1.031      1.099
REMARK  12 active torsions:
REMARK  status: ('A' for Active; 'I' for Inactive)
REMARK    1  A    between atoms: N1_1  and  C1_5
REMARK    2  A    between atoms: C1_5  and  C2_6
REMARK    3  A    between atoms: N2_7  and  C3_9
REMARK    4  A    between atoms: C3_9  and  C4_10
REMARK    5  A    between atoms: C5_14  and  O1_15
REMARK    6  A    between atoms: C6_17  and  C7_18
REMARK    7  A    between atoms: C7_18  and  N4_19
REMARK    8  A    between atoms: N4_19  and  C8_21
REMARK    9  A    between atoms: C8_21  and  C9_22
REMARK   10  A    between atoms: C9_22  and  N5_23
REMARK   11  A    between atoms: N6_27  and  N7_29
REMARK   12  A    between atoms: N7_29  and  N8_31
ROOT
HETATM    1  C4  UNL     1      20.487  20.697  12.487  1.00  0.00     0.342 C
HETATM    2  N3  UNL     1      19.146  20.467  11.979  1.00  0.00    -0.019 N
ATOM      3  H31 UNL     1      18.742  21.234  11.442  1.00  0.00     0.283 HD
ATOM      4  H32 UNL     1      18.406  20.452  12.680  1.00  0.00     0.283 HD
HETATM    5  C5  UNL     1      19.345  19.215  11.243  1.00  0.00     0.352 C
HETATM    6  C6  UNL     1      20.307  18.492  12.160  1.00  0.00     0.198 C
HETATM    7  O2  UNL     1      20.976  19.465  12.867  1.00  0.00    -0.346 OA
ENDROOT
BRANCH   6   8
HETATM    8  C7  UNL     1      21.249  17.593  11.385  1.00  0.00     0.157 C
BRANCH   8   9
HETATM    9  N4  UNL     1      20.545  16.443  10.861  1.00  0.00    -0.375 N
ATOM     10  H4  UNL     1      20.217  15.746  11.529  1.00  0.00     0.160 HD
BRANCH   9  11
HETATM   11  C8  UNL     1      20.277  16.213   9.493  1.00  0.00     0.118 C
HETATM   12  N6  UNL     1      19.260  15.522   9.153  1.00  0.00    -0.274 N
ATOM     13  H6  UNL     1      19.065  15.353   8.167  1.00  0.00     0.190 HD
BRANCH  11  14
HETATM   14  C9  UNL     1      21.158  16.759   8.440  1.00  0.00     0.306 C
BRANCH  14  15
HETATM   15  N5  UNL     1      22.442  16.128   8.411  1.00  0.00    -0.073 N
ATOM     16  H53 UNL     1      22.819  16.023   9.353  1.00  0.00     0.274 HD
ATOM     17  H52 UNL     1      22.361  15.144   8.154  1.00  0.00     0.274 HD
ATOM     18  H51 UNL     1      23.105  16.611   7.804  1.00  0.00     0.274 HD
ENDBRANCH  14  15
ENDBRANCH  11  14
BRANCH  12  19
HETATM   19  N7  UNL     1      18.420  15.001  10.127  1.00  0.00    -0.248 N
ATOM     20  H7  UNL     1      18.740  14.869  11.086  1.00  0.00     0.207 HD
BRANCH  19  21
HETATM   21  N8  UNL     1      17.106  14.659   9.742  1.00  0.00    -0.331 N
ATOM     22  H82 UNL     1      16.446  14.299  10.431  1.00  0.00     0.178 HD
ATOM     23  H81 UNL     1      16.852  14.785   8.763  1.00  0.00     0.178 HD
ENDBRANCH  19  21
ENDBRANCH  12  19
ENDBRANCH   9  11
ENDBRANCH   8   9
ENDBRANCH   6   8
BRANCH   5  24
HETATM   24  O1  UNL     1      19.918  19.511  10.007  1.00  0.00    -0.368 OA
ATOM     25  H1  UNL     1      20.421  18.759   9.719  1.00  0.00     0.212 HD
ENDBRANCH   5  24
BRANCH   1  26
HETATM   26  C3  UNL     1      20.372  21.664  13.646  1.00  0.00     0.180 C
BRANCH  26  27
HETATM   27  N2  UNL     1      19.029  22.074  13.852  1.00  0.00    -0.396 N
HETATM   28  C2  UNL     1      18.748  22.739  14.920  1.00  0.00     0.082 C
ATOM     29  H2  UNL     1      18.303  21.848  13.171  1.00  0.00     0.158 HD
BRANCH  28  30
HETATM   30  C1  UNL     1      19.763  23.088  15.931  1.00  0.00     0.273 C
BRANCH  30  31
HETATM   31  N1  UNL     1      19.199  23.103  17.280  1.00  0.00    -0.075 N
ATOM     32  H13 UNL     1      19.632  23.825  17.856  1.00  0.00     0.274 HD
ATOM     33  H12 UNL     1      18.241  23.454  17.279  1.00  0.00     0.274 HD
ATOM     34  H11 UNL     1      19.258  22.187  17.724  1.00  0.00     0.274 HD
ENDBRANCH  30  31
ENDBRANCH  28  30
ENDBRANCH  26  27
ENDBRANCH   1  26
TORSDOF 12
ENDMDL