MODEL 4
REMARK VINA RESULT: -4.935842537      2.150      4.997
REMARK  12 active torsions:
REMARK  status: ('A' for Active; 'I' for Inactive)
REMARK    1  A    between atoms: N2_3  and  C2_5
REMARK    2  A    between atoms: C3_6  and  O1_7
REMARK    3  A    between atoms: C4_9  and  C5_10
REMARK    4  A    between atoms: C5_10  and  O2_11
REMARK    5  A    between atoms: C6_14  and  C7_15
REMARK    6  A    between atoms: C7_15  and  N3_16
REMARK    7  A    between atoms: C7_15  and  C8_20
REMARK    8  A    between atoms: C8_20  and  O4_21
REMARK    9  A    between atoms: C8_20  and  C9_23
REMARK   10  A    between atoms: C8_20  and  C10_28
REMARK   11  A    between atoms: C9_23  and  N4_24
REMARK   12  A    between atoms: C10_28  and  N5_29
ROOT
HETATM    1  C7  UNL     1      22.097  16.199   9.542  1.00  0.00     0.251 C
ENDROOT
BRANCH   1   2
HETATM    2  C6  UNL     1      20.620  16.114   9.453  1.00  0.00     0.180 C
HETATM    3  C2  UNL     1      20.034  16.067  10.849  1.00  0.00     0.144 C
HETATM    4  C3  UNL     1      18.943  14.998  10.687  1.00  0.00     0.174 C
HETATM    5  C4  UNL     1      18.784  15.028   9.179  1.00  0.00     0.176 C
HETATM    6  O3  UNL     1      20.116  15.038   8.774  1.00  0.00    -0.371 OA
BRANCH   3   7
HETATM    7  N2  UNL     1      19.370  17.306  11.194  1.00  0.00    -0.378 N
HETATM    8  C1  UNL     1      19.833  18.161  12.012  1.00  0.00     0.185 C
HETATM    9  N1  UNL     1      21.079  17.946  12.661  1.00  0.00    -0.097 NA
ATOM     10  H2  UNL     1      18.472  17.505  10.752  1.00  0.00     0.160 HD
ENDBRANCH   3   7
BRANCH   4  11
HETATM   11  O1  UNL     1      19.481  13.786  11.085  1.00  0.00    -0.391 OA
ATOM     12  H1  UNL     1      18.854  13.106  10.867  1.00  0.00     0.210 HD
ENDBRANCH   4  11
BRANCH   5  13
HETATM   13  C5  UNL     1      18.012  13.860   8.652  1.00  0.00     0.198 C
BRANCH  13  14
HETATM   14  O2  UNL     1      18.785  12.819   8.218  1.00  0.00    -0.398 OA
ATOM     15  H2  UNL     1      19.035  12.869   7.304  1.00  0.00     0.209 HD
ENDBRANCH  13  14
ENDBRANCH   5  13
ENDBRANCH   1   2
BRANCH   1  16
HETATM   16  N3  UNL     1      22.488  15.737  10.873  1.00  0.00    -0.070 N
ATOM     17  H33 UNL     1      22.277  16.415  11.606  1.00  0.00     0.275 HD
ATOM     18  H32 UNL     1      21.899  14.979  11.218  1.00  0.00     0.275 HD
ATOM     19  H31 UNL     1      23.475  15.487  10.836  1.00  0.00     0.275 HD
ENDBRANCH   1  16
BRANCH   1  20
HETATM   20  C8  UNL     1      22.718  17.526   9.334  1.00  0.00     0.135 C
BRANCH  20  21
HETATM   21  O4  UNL     1      23.375  17.462   8.076  1.00  0.00    -0.384 OA
ATOM     22  H4  UNL     1      24.282  17.690   8.240  1.00  0.00     0.210 HD
ENDBRANCH  20  21
BRANCH  20  23
HETATM   23  C9  UNL     1      23.752  17.914  10.341  1.00  0.00     0.271 C
BRANCH  23  24
HETATM   24  N4  UNL     1      25.089  17.947   9.786  1.00  0.00    -0.076 N
ATOM     25  H43 UNL     1      25.585  18.790  10.076  1.00  0.00     0.274 HD
ATOM     26  H42 UNL     1      25.685  17.246  10.227  1.00  0.00     0.274 HD
ATOM     27  H41 UNL     1      25.099  17.849   8.772  1.00  0.00     0.274 HD
ENDBRANCH  23  24
ENDBRANCH  20  23
BRANCH  20  28
HETATM   28  C10 UNL     1      21.718  18.659   9.150  1.00  0.00     0.271 C
BRANCH  28  29
HETATM   29  N5  UNL     1      21.800  19.616  10.237  1.00  0.00    -0.076 N
ATOM     30  H53 UNL     1      22.727  19.619  10.663  1.00  0.00     0.274 HD
ATOM     31  H52 UNL     1      21.781  20.575   9.893  1.00  0.00     0.274 HD
ATOM     32  H51 UNL     1      21.069  19.451  10.930  1.00  0.00     0.274 HD
ENDBRANCH  28  29
ENDBRANCH  20  28
ENDBRANCH   1  20
TORSDOF 12
ENDMDL