MODEL 1
REMARK VINA RESULT: -5.169744903      0.000      0.000
REMARK  12 active torsions:
REMARK  status: ('A' for Active; 'I' for Inactive)
REMARK    1  A    between atoms: N1_1  and  C1_5
REMARK    2  A    between atoms: C1_5  and  C2_6
REMARK    3  A    between atoms: C2_6  and  C3_7
REMARK    4  A    between atoms: C3_7  and  O1_8
REMARK    5  A    between atoms: O1_8  and  C4_9
REMARK    6  A    between atoms: C5_11  and  C6_12
REMARK    7  A    between atoms: C6_12  and  O3_13
REMARK    8  A    between atoms: C7_15  and  O4_16
REMARK    9  A    between atoms: C8_18  and  N2_19
REMARK   10  A    between atoms: C9_23  and  N3_24
REMARK   11  A    between atoms: C10_28  and  N4_29
REMARK   12  A    between atoms: N4_29  and  N5_30
ROOT
HETATM    1  C2  UNL     1      19.777  15.217   9.670  1.00  0.00     0.056 A
HETATM    2  C9  UNL     1      21.084  14.530   9.619  1.00  0.00     0.219 A
HETATM    3  C10 UNL     1      20.696  15.309   8.436  1.00  0.00     0.144 A
ENDROOT
BRANCH   1   4
HETATM    4  C1  UNL     1      18.552  14.340   9.499  1.00  0.00     0.245 C
BRANCH   4   5
HETATM    5  N1  UNL     1      17.344  14.996   9.894  1.00  0.00    -0.078 N
ATOM      6  H13 UNL     1      16.702  14.342  10.343  1.00  0.00     0.274 HD
ATOM      7  H12 UNL     1      17.510  15.627  10.678  1.00  0.00     0.274 HD
ATOM      8  H11 UNL     1      16.889  15.482   9.122  1.00  0.00     0.274 HD
ENDBRANCH   4   5
ENDBRANCH   1   4
BRANCH   1   9
HETATM    9  C3  UNL     1      19.577  16.505  10.388  1.00  0.00     0.186 C
BRANCH   9  10
HETATM   10  O1  UNL     1      20.178  16.536  11.641  1.00  0.00    -0.358 OA
BRANCH  10  11
HETATM   11  C4  UNL     1      20.669  17.772  11.959  1.00  0.00     0.293 C
HETATM   12  O2  UNL     1      19.655  18.671  12.360  1.00  0.00    -0.349 OA
HETATM   13  C5  UNL     1      20.395  19.853  12.430  1.00  0.00     0.179 C
HETATM   14  C7  UNL     1      20.982  19.918  11.037  1.00  0.00     0.184 C
HETATM   15  C8  UNL     1      21.197  18.445  10.729  1.00  0.00     0.269 C
BRANCH  13  16
HETATM   16  C6  UNL     1      19.522  21.047  12.730  1.00  0.00     0.198 C
BRANCH  16  17
HETATM   17  O3  UNL     1      20.268  22.193  12.427  1.00  0.00    -0.398 OA
ATOM     18  H3  UNL     1      19.759  22.943  12.710  1.00  0.00     0.209 HD
ENDBRANCH  16  17
ENDBRANCH  13  16
BRANCH  14  19
HETATM   19  O4  UNL     1      20.068  20.439  10.148  1.00  0.00    -0.391 OA
ATOM     20  H4  UNL     1      20.294  20.200   9.257  1.00  0.00     0.210 HD
ENDBRANCH  14  19
BRANCH  15  21
HETATM   21  N2  UNL     1      22.585  18.115  10.565  1.00  0.00    -0.068 N
ATOM     22  H23 UNL     1      22.813  17.198  10.949  1.00  0.00     0.275 HD
ATOM     23  H22 UNL     1      22.825  17.928   9.591  1.00  0.00     0.275 HD
ATOM     24  H21 UNL     1      23.159  18.856  10.968  1.00  0.00     0.275 HD
ENDBRANCH  15  21
ENDBRANCH  10  11
ENDBRANCH   9  10
ENDBRANCH   1   9
BRANCH   2  25
HETATM   25  N3  UNL     1      22.217  15.015  10.372  1.00  0.00    -0.072 N
ATOM     26  H33 UNL     1      22.948  15.272   9.709  1.00  0.00     0.274 HD
ATOM     27  H32 UNL     1      21.966  15.920  10.770  1.00  0.00     0.274 HD
ATOM     28  H31 UNL     1      22.643  14.454  11.108  1.00  0.00     0.274 HD
ENDBRANCH   2  25
BRANCH   3  29
HETATM   29  N4  UNL     1      21.352  16.584   8.210  1.00  0.00    -0.140 NA
BRANCH  29  30
HETATM   30  N5  UNL     1      22.451  16.482   7.388  1.00  0.00    -0.348 N
ATOM     31  H52 UNL     1      23.085  15.684   7.413  1.00  0.00     0.172 HD
ATOM     32  H51 UNL     1      22.554  17.282   6.764  1.00  0.00     0.172 HD
ENDBRANCH  29  30
ENDBRANCH   3  29
TORSDOF 12
ENDMDL