MODEL 4
REMARK VINA RESULT: -5.654891402      1.971      2.847
REMARK  10 active torsions:
REMARK  status: ('A' for Active; 'I' for Inactive)
REMARK    1  A    between atoms: N1_1  and  C1_4
REMARK    2  A    between atoms: N3_9  and  C3_10
REMARK    3  A    between atoms: C3_10  and  C4_11
REMARK    4  A    between atoms: C4_11  and  N4_12
REMARK       I    between atoms: N4_12  and  C5_14
REMARK       I    between atoms: C5_14  and  N6_16
REMARK    5  A    between atoms: N6_16  and  C6_18
REMARK    6  A    between atoms: C6_18  and  C7_19
REMARK    7  A    between atoms: C7_19  and  C8_20
REMARK    8  A    between atoms: C8_20  and  N7_21
REMARK    9  A    between atoms: C9_25  and  N8_26
REMARK   10  A    between atoms: N8_26  and  N9_28
ROOT
HETATM    1  C1  UNL     1      19.615  14.885  10.399  1.00  0.00     0.694 A
HETATM    2  N2  UNL     1      19.415  15.802  11.362  1.00  0.00    -0.140 N
ATOM      3  H2  UNL     1      18.947  15.543  12.231  1.00  0.00     0.189 HD
HETATM    4  C2  UNL     1      19.834  17.057  11.168  1.00  0.00     0.355 A
HETATM    5  O1  UNL     1      19.641  17.889  12.069  1.00  0.00    -0.245 OA
HETATM    6  N3  UNL     1      20.467  17.454  10.017  1.00  0.00    -0.129 N
HETATM    7  C9  UNL     1      20.657  16.547   9.082  1.00  0.00     0.717 A
HETATM    8  N10 UNL     1      20.218  15.242   9.287  1.00  0.00    -0.021 N
ATOM      9  H10 UNL     1      20.369  14.547   8.557  1.00  0.00     0.203 HD
ENDROOT
BRANCH   6  10
HETATM   10  C3  UNL     1      20.874  18.815   9.914  1.00  0.00     0.172 C
BRANCH  10  11
HETATM   11  C4  UNL     1      22.129  19.153  10.680  1.00  0.00     0.143 C
BRANCH  11  12
HETATM   12  N4  UNL     1      23.305  18.893   9.872  1.00  0.00    -0.363 N
HETATM   13  C5  UNL     1      24.159  17.788  10.096  1.00  0.00     0.184 C
HETATM   14  N5  UNL     1      23.601  16.495  10.400  1.00  0.00    -0.064 NA
HETATM   15  N6  UNL     1      25.434  17.921  10.035  1.00  0.00    -0.365 N
ATOM     16  H6  UNL     1      26.039  17.116  10.200  1.00  0.00     0.162 HD
ATOM     17  H4  UNL     1      23.525  19.534   9.109  1.00  0.00     0.162 HD
BRANCH  15  18
HETATM   18  C6  UNL     1      26.009  19.201   9.734  1.00  0.00     0.124 C
BRANCH  18  19
HETATM   19  C7  UNL     1      27.485  19.123   9.420  1.00  0.00     0.047 C
BRANCH  19  20
HETATM   20  C8  UNL     1      27.700  19.895   8.126  1.00  0.00     0.231 C
BRANCH  20  21
HETATM   21  N7  UNL     1      27.572  18.949   7.035  1.00  0.00    -0.079 N
ATOM     22  H73 UNL     1      28.390  18.348   6.930  1.00  0.00     0.274 HD
ATOM     23  H72 UNL     1      26.891  18.212   7.223  1.00  0.00     0.274 HD
ATOM     24  H71 UNL     1      27.359  19.484   6.194  1.00  0.00     0.274 HD
ENDBRANCH  20  21
ENDBRANCH  19  20
ENDBRANCH  18  19
ENDBRANCH  15  18
ENDBRANCH  11  12
ENDBRANCH  10  11
ENDBRANCH   6  10
BRANCH   7  25
HETATM   25  N8  UNL     1      21.216  16.732   7.984  1.00  0.00    -0.138 N
ATOM     26  H8  UNL     1      20.669  17.318   7.353  1.00  0.00     0.205 HD
BRANCH  25  27
HETATM   27  N9  UNL     1      22.374  16.334   7.449  1.00  0.00    -0.331 N
ATOM     28  H92 UNL     1      22.490  15.323   7.516  1.00  0.00     0.177 HD
ATOM     29  H91 UNL     1      23.151  16.815   6.997  1.00  0.00     0.177 HD
ENDBRANCH  25  27
ENDBRANCH   7  25
BRANCH   1  30
HETATM   30  N1  UNL     1      19.193  13.685  10.628  1.00  0.00    -0.234 N
ATOM     31  H12 UNL     1      18.208  13.422  10.608  1.00  0.00     0.174 HD
ATOM     32  H11 UNL     1      19.895  12.975  10.839  1.00  0.00     0.174 HD
ENDBRANCH   1  30
TORSDOF 10
ENDMDL