MODEL 1
REMARK VINA RESULT: -6.978218602      0.000      0.000
REMARK  11 active torsions:
REMARK  status: ('A' for Active; 'I' for Inactive)
REMARK       I    between atoms: C1_4  and  N3_6
REMARK    1  A    between atoms: N3_6  and  C2_8
REMARK    2  A    between atoms: C2_8  and  C3_9
REMARK    3  A    between atoms: C3_9  and  C4_10
REMARK    4  A    between atoms: C3_9  and  C8_21
REMARK    5  A    between atoms: C4_10  and  N4_11
REMARK    6  A    between atoms: C6_13  and  C7_14
REMARK    7  A    between atoms: C7_14  and  O1_15
REMARK    8  A    between atoms: C8_21  and  N9_27
REMARK    9  A    between atoms: N7_22  and  N8_24
REMARK   10  A    between atoms: N9_27  and  N10_29
REMARK   11  A    between atoms: N10_29  and  N11_30
ROOT
HETATM    1  C3  UNL     1      21.143  17.014   9.524  1.00  0.00     0.093 C
ENDROOT
BRANCH   1   2
HETATM    2  C2  UNL     1      20.617  15.788   8.761  1.00  0.00     0.136 C
BRANCH   2   3
HETATM    3  N3  UNL     1      19.198  15.608   8.918  1.00  0.00    -0.364 N
HETATM    4  C1  UNL     1      18.569  14.426   9.364  1.00  0.00     0.181 C
HETATM    5  N1  UNL     1      18.483  13.443   8.538  1.00  0.00    -0.374 N
HETATM    6  N2  UNL     1      18.074  14.391  10.683  1.00  0.00    -0.064 NA
ATOM      7  H12 UNL     1      18.029  12.588   8.860  1.00  0.00     0.158 HD
ATOM      8  H11 UNL     1      18.841  13.469   7.583  1.00  0.00     0.158 HD
ATOM      9  H3  UNL     1      18.598  16.400   8.689  1.00  0.00     0.162 HD
ENDBRANCH   2   3
ENDBRANCH   1   2
BRANCH   1  10
HETATM   10  C4  UNL     1      20.360  17.294  10.744  1.00  0.00     0.163 C
BRANCH  10  11
HETATM   11  N4  UNL     1      20.307  18.648  11.206  1.00  0.00    -0.286 N
HETATM   12  C5  UNL     1      20.230  19.208  12.405  1.00  0.00     0.140 A
HETATM   13  C6  UNL     1      20.231  20.605  12.268  1.00  0.00     0.067 A
HETATM   14  N5  UNL     1      20.310  20.803  10.959  1.00  0.00    -0.287 N
HETATM   15  N6  UNL     1      20.356  19.671  10.331  1.00  0.00    -0.241 N
ATOM     16  H5  UNL     1      20.332  21.719  10.509  1.00  0.00     0.188 HD
ATOM     17  H6  UNL     1      20.419  19.569   9.318  1.00  0.00     0.208 HD
BRANCH  13  18
HETATM   18  C7  UNL     1      20.166  21.629  13.321  1.00  0.00     0.224 C
BRANCH  18  19
HETATM   19  O1  UNL     1      18.861  21.845  13.769  1.00  0.00    -0.395 OA
ATOM     20  H1  UNL     1      18.764  21.666  14.696  1.00  0.00     0.209 HD
ENDBRANCH  18  19
ENDBRANCH  13  18
ENDBRANCH  10  11
ENDBRANCH   1  10
BRANCH   1  21
HETATM   21  C8  UNL     1      22.549  16.704   9.796  1.00  0.00     0.116 C
HETATM   22  N7  UNL     1      22.896  15.613  10.332  1.00  0.00    -0.294 N
ATOM     23  H7  UNL     1      22.138  14.969  10.557  1.00  0.00     0.187 HD
BRANCH  22  24
HETATM   24  N8  UNL     1      24.165  15.180  10.649  1.00  0.00    -0.344 N
ATOM     25  H82 UNL     1      24.656  15.765  11.325  1.00  0.00     0.176 HD
ATOM     26  H81 UNL     1      24.663  14.362  10.297  1.00  0.00     0.176 HD
ENDBRANCH  22  24
BRANCH  21  27
HETATM   27  N9  UNL     1      23.535  17.632   9.413  1.00  0.00    -0.272 N
ATOM     28  H9  UNL     1      23.698  17.824   8.424  1.00  0.00     0.185 HD
BRANCH  27  29
HETATM   29  N10 UNL     1      24.285  18.286  10.378  1.00  0.00    -0.029 NA
BRANCH  29  30
HETATM   30  N11 UNL     1      25.646  18.365  10.037  1.00  0.00    -0.329 N
ATOM     31 2H11 UNL     1      26.112  17.671   9.453  1.00  0.00     0.174 HD
ATOM     32 1H11 UNL     1      26.100  19.185  10.437  1.00  0.00     0.174 HD
ENDBRANCH  29  30
ENDBRANCH  27  29
ENDBRANCH  21  27
ENDBRANCH   1  21
TORSDOF 11
ENDMDL