MODEL 1
REMARK VINA RESULT: -6.489218453      0.000      0.000
REMARK  10 active torsions:
REMARK  status: ('A' for Active; 'I' for Inactive)
REMARK    1  A    between atoms: C2_2  and  N1_3
REMARK    2  A    between atoms: C2_2  and  C3_7
REMARK    3  A    between atoms: N1_3  and  N2_4
REMARK    4  A    between atoms: C3_7  and  N3_8
REMARK    5  A    between atoms: N6_13  and  N7_15
REMARK    6  A    between atoms: N8_17  and  N9_19
REMARK    7  A    between atoms: N9_19  and  N10_20
REMARK    8  A    between atoms: N9_19  and  N11_23
REMARK    9  A    between atoms: C6_25  and  N12_26
REMARK   10  A    between atoms: N12_26  and  N13_27
ROOT
HETATM    1  N7  UNL     1      24.151  17.668  10.061  1.00  0.00    -0.224 N
ATOM      2  H7  UNL     1      24.215  17.914  11.049  1.00  0.00     0.210 HD
HETATM    3  N8  UNL     1      25.073  18.084   9.314  1.00  0.00    -0.196 N
ATOM      4  H8  UNL     1      25.067  17.871   8.316  1.00  0.00     0.213 HD
ENDROOT
BRANCH   1   5
HETATM    5  N6  UNL     1      23.067  16.916   9.681  1.00  0.00    -0.272 N
HETATM    6  C3  UNL     1      21.898  16.958  10.164  1.00  0.00     0.120 C
ATOM      7  H6  UNL     1      23.220  16.250   8.923  1.00  0.00     0.190 HD
BRANCH   6   8
HETATM    8  C2  UNL     1      20.847  16.070   9.627  1.00  0.00     0.163 C
HETATM    9  C1  UNL     1      19.601  16.231  10.431  1.00  0.00     0.038 C
BRANCH   8  10
HETATM   10  N1  UNL     1      21.270  14.691   9.545  1.00  0.00    -0.136 NA
BRANCH  10  11
HETATM   11  N2  UNL     1      20.352  13.792  10.048  1.00  0.00    -0.348 N
ATOM     12  H22 UNL     1      19.996  13.857  11.002  1.00  0.00     0.172 HD
ATOM     13  H21 UNL     1      20.070  13.071   9.384  1.00  0.00     0.172 HD
ENDBRANCH  10  11
ENDBRANCH   8  10
ENDBRANCH   6   8
BRANCH   6  14
HETATM   14  N3  UNL     1      21.583  17.842  11.215  1.00  0.00    -0.320 N
HETATM   15  C4  UNL     1      21.068  19.012  11.059  1.00  0.00     0.202 C
HETATM   16  N4  UNL     1      20.814  19.770  12.230  1.00  0.00    -0.066 NA
HETATM   17  N5  UNL     1      20.762  19.531   9.760  1.00  0.00    -0.066 NA
ATOM     18  H3  UNL     1      21.776  17.533  12.168  1.00  0.00     0.169 HD
ENDBRANCH   6  14
ENDBRANCH   1   5
BRANCH   3  19
HETATM   19  N9  UNL     1      26.100  18.838   9.873  1.00  0.00    -0.141 N
BRANCH  19  20
HETATM   20  N10 UNL     1      25.940  19.358  11.133  1.00  0.00    -0.312 N
ATOM     21 2H10 UNL     1      26.399  18.944  11.944  1.00  0.00     0.180 HD
ATOM     22 1H10 UNL     1      25.347  20.178  11.262  1.00  0.00     0.180 HD
ENDBRANCH  19  20
BRANCH  19  23
HETATM   23  N11 UNL     1      27.248  19.043   9.149  1.00  0.00    -0.168 NA
HETATM   24  C5  UNL     1      27.774  20.379   8.973  1.00  0.00     0.160 A
HETATM   25  C6  UNL     1      27.254  19.601   7.841  1.00  0.00     0.210 A
BRANCH  25  26
HETATM   26  N12 UNL     1      26.027  20.055   7.224  1.00  0.00    -0.125 NA
BRANCH  26  27
HETATM   27  N13 UNL     1      26.093  20.056   5.848  1.00  0.00    -0.347 N
ATOM     28 2H13 UNL     1      26.976  20.061   5.337  1.00  0.00     0.172 HD
ATOM     29 1H13 UNL     1      25.171  20.050   5.409  1.00  0.00     0.172 HD
ENDBRANCH  26  27
ENDBRANCH  25  26
ENDBRANCH  19  23
ENDBRANCH   3  19
TORSDOF 10
ENDMDL