MODEL 5
REMARK VINA RESULT: -4.156367472      2.332      3.660
REMARK  11 active torsions:
REMARK  status: ('A' for Active; 'I' for Inactive)
REMARK    1  A    between atoms: N1_1  and  C1_5
REMARK    2  A    between atoms: C1_5  and  C2_6
REMARK    3  A    between atoms: C2_6  and  N2_7
REMARK    4  A    between atoms: N2_7  and  C3_10
REMARK    5  A    between atoms: C3_10  and  C4_11
REMARK    6  A    between atoms: C5_12  and  N3_13
REMARK    7  A    between atoms: C6_17  and  O1_18
REMARK    8  A    between atoms: O1_18  and  C7_19
REMARK    9  A    between atoms: C9_24  and  N5_25
REMARK   10  A    between atoms: C10_29  and  N6_30
REMARK   11  A    between atoms: C11_34  and  O2_35
ROOT
HETATM    1  C4  UNL     1      22.391  17.481   9.469  1.00  0.00     0.075 A
HETATM    2  C5  UNL     1      22.209  16.492  10.598  1.00  0.00     0.223 A
HETATM    3  C6  UNL     1      21.007  15.898   9.878  1.00  0.00     0.184 A
HETATM    4  C11 UNL     1      21.198  16.914   8.793  1.00  0.00     0.157 A
ENDROOT
BRANCH   3   5
HETATM    5  O1  UNL     1      21.307  14.582   9.579  1.00  0.00    -0.347 OA
BRANCH   5   6
HETATM    6  C7  UNL     1      20.245  13.746   9.424  1.00  0.00     0.354 C
HETATM    7  N4  UNL     1      19.754  13.491  10.797  1.00  0.00    -0.045 N
HETATM    8  C8  UNL     1      19.307  14.859  11.110  1.00  0.00     0.270 C
ATOM      9  H42 UNL     1      19.064  12.747  10.906  1.00  0.00     0.280 HD
ATOM     10  H41 UNL     1      20.414  13.064  11.448  1.00  0.00     0.280 HD
HETATM   11  C9  UNL     1      18.281  15.045   9.979  1.00  0.00     0.243 C
HETATM   12  C10 UNL     1      19.008  14.375   8.832  1.00  0.00     0.271 C
BRANCH  11  13
HETATM   13  N5  UNL     1      17.108  14.335  10.416  1.00  0.00    -0.071 N
ATOM     14  H53 UNL     1      17.234  13.324  10.469  1.00  0.00     0.274 HD
ATOM     15  H52 UNL     1      16.882  14.479  11.400  1.00  0.00     0.274 HD
ATOM     16  H51 UNL     1      16.367  14.624   9.776  1.00  0.00     0.274 HD
ENDBRANCH  11  13
BRANCH  12  17
HETATM   17  N6  UNL     1      18.120  13.340   8.310  1.00  0.00    -0.069 N
ATOM     18  H63 UNL     1      18.536  12.838   7.527  1.00  0.00     0.275 HD
ATOM     19  H62 UNL     1      18.026  12.555   8.956  1.00  0.00     0.275 HD
ATOM     20  H61 UNL     1      17.215  13.744   8.068  1.00  0.00     0.275 HD
ENDBRANCH  12  17
ENDBRANCH   5   6
ENDBRANCH   3   5
BRANCH   2  21
HETATM   21  N3  UNL     1      23.349  15.624  10.719  1.00  0.00    -0.072 N
ATOM     22  H33 UNL     1      23.919  15.634   9.874  1.00  0.00     0.274 HD
ATOM     23  H32 UNL     1      24.036  15.996  11.375  1.00  0.00     0.274 HD
ATOM     24  H31 UNL     1      23.067  14.676  10.970  1.00  0.00     0.274 HD
ENDBRANCH   2  21
BRANCH   4  25
HETATM   25  O2  UNL     1      20.152  17.834   8.789  1.00  0.00    -0.392 OA
ATOM     26  H2  UNL     1      19.851  17.995   7.903  1.00  0.00     0.210 HD
ENDBRANCH   4  25
BRANCH   1  27
HETATM   27  C3  UNL     1      22.340  18.869  10.013  1.00  0.00     0.241 C
BRANCH  27  28
HETATM   28  N2  UNL     1      21.551  19.008  11.225  1.00  0.00    -0.073 N
ATOM     29  H22 UNL     1      22.117  18.999  12.073  1.00  0.00     0.277 HD
ATOM     30  H21 UNL     1      20.990  18.181  11.434  1.00  0.00     0.277 HD
BRANCH  28  31
HETATM   31  C2  UNL     1      20.745  20.230  11.083  1.00  0.00     0.259 C
BRANCH  31  32
HETATM   32  C1  UNL     1      19.855  20.410  12.293  1.00  0.00     0.257 C
BRANCH  32  33
HETATM   33  N1  UNL     1      20.027  21.696  12.892  1.00  0.00    -0.078 N
ATOM     34  H13 UNL     1      20.552  21.631  13.764  1.00  0.00     0.274 HD
ATOM     35  H12 UNL     1      20.677  22.271  12.357  1.00  0.00     0.274 HD
ATOM     36  H11 UNL     1      19.136  22.172  13.030  1.00  0.00     0.274 HD
ENDBRANCH  32  33
ENDBRANCH  31  32
ENDBRANCH  28  31
ENDBRANCH  27  28
ENDBRANCH   1  27
TORSDOF 11
ENDMDL