MODEL 1
REMARK VINA RESULT: -6.311665177      0.000      0.000
REMARK  13 active torsions:
REMARK  status: ('A' for Active; 'I' for Inactive)
REMARK    1  A    between atoms: N1_1  and  N2_4
REMARK    2  A    between atoms: C1_6  and  C2_7
REMARK    3  A    between atoms: C1_6  and  N5_12
REMARK    4  A    between atoms: C2_7  and  N3_8
REMARK    5  A    between atoms: N3_8  and  N4_9
REMARK    6  A    between atoms: N5_12  and  C3_14
REMARK    7  A    between atoms: C3_14  and  C4_15
REMARK    8  A    between atoms: C6_18  and  C7_19
REMARK    9  A    between atoms: C7_19  and  N6_20
REMARK   10  A    between atoms: C7_19  and  C8_24
REMARK   11  A    between atoms: C7_19  and  C9_27
REMARK   12  A    between atoms: C8_24  and  O2_25
REMARK   13  A    between atoms: C9_27  and  O3_28
ROOT
HETATM    1  C4  UNL     1      20.479  19.930  10.738  1.00  0.00     0.277 C
HETATM    2  O1  UNL     1      21.856  19.723  10.734  1.00  0.00    -0.357 OA
HETATM    3  C5  UNL     1      21.973  18.390  11.097  1.00  0.00     0.205 C
HETATM    4  C6  UNL     1      20.684  17.719  10.787  1.00  0.00     0.188 C
HETATM    5  O4  UNL     1      19.936  18.761  10.242  1.00  0.00    -0.350 OA
ENDROOT
BRANCH   1   6
HETATM    6  C3  UNL     1      20.055  20.202  12.165  1.00  0.00     0.181 C
BRANCH   6   7
HETATM    7  N5  UNL     1      20.050  21.612  12.440  1.00  0.00    -0.373 N
ATOM      8  H5  UNL     1      20.184  22.290  11.690  1.00  0.00     0.161 HD
BRANCH   7   9
HETATM    9  C1  UNL     1      19.848  22.051  13.813  1.00  0.00     0.107 C
HETATM   10  N2  UNL     1      18.723  22.517  14.110  1.00  0.00    -0.295 N
ATOM     11  H2  UNL     1      18.066  22.561  13.331  1.00  0.00     0.187 HD
BRANCH  10  12
HETATM   12  N1  UNL     1      18.220  22.980  15.300  1.00  0.00    -0.344 N
ATOM     13  H12 UNL     1      17.953  22.232  15.939  1.00  0.00     0.176 HD
ATOM     14  H11 UNL     1      18.073  23.929  15.646  1.00  0.00     0.176 HD
ENDBRANCH  10  12
BRANCH   9  15
HETATM   15  C2  UNL     1      20.938  21.905  14.793  1.00  0.00     0.211 C
BRANCH  15  16
HETATM   16  N3  UNL     1      21.120  23.119  15.530  1.00  0.00    -0.141 NA
BRANCH  16  17
HETATM   17  N4  UNL     1      22.282  23.042  16.350  1.00  0.00    -0.348 N
ATOM     18  H42 UNL     1      23.140  22.562  16.075  1.00  0.00     0.172 HD
ATOM     19  H41 UNL     1      22.134  23.526  17.235  1.00  0.00     0.172 HD
ENDBRANCH  16  17
ENDBRANCH  15  16
ENDBRANCH   9  15
ENDBRANCH   7   9
ENDBRANCH   6   7
ENDBRANCH   1   6
BRANCH   4  20
HETATM   20  C7  UNL     1      20.755  16.580   9.829  1.00  0.00     0.193 C
BRANCH  20  21
HETATM   21  N6  UNL     1      20.594  17.160   8.482  1.00  0.00    -0.064 N
ATOM     22  H63 UNL     1      20.332  16.474   7.775  1.00  0.00     0.275 HD
ATOM     23  H62 UNL     1      19.769  17.754   8.393  1.00  0.00     0.275 HD
ATOM     24  H61 UNL     1      21.466  17.645   8.272  1.00  0.00     0.275 HD
ENDBRANCH  20  21
BRANCH  20  25
HETATM   25  C8  UNL     1      22.120  15.921   9.841  1.00  0.00     0.207 C
BRANCH  25  26
HETATM   26  O2  UNL     1      22.210  14.912   8.885  1.00  0.00    -0.398 OA
ATOM     27  H2  UNL     1      22.119  14.051   9.277  1.00  0.00     0.209 HD
ENDBRANCH  25  26
ENDBRANCH  20  25
BRANCH  20  28
HETATM   28  C9  UNL     1      19.655  15.587   9.983  1.00  0.00     0.207 C
BRANCH  28  29
HETATM   29  O3  UNL     1      19.190  15.012   8.833  1.00  0.00    -0.398 OA
ATOM     30  H3  UNL     1      19.465  14.117   8.669  1.00  0.00     0.209 HD
ENDBRANCH  28  29
ENDBRANCH  20  28
ENDBRANCH   4  20
TORSDOF 13
ENDMDL