MODEL 5
REMARK VINA RESULT: -6.463084109      2.982      4.543
REMARK  7 active torsions:
REMARK  status: ('A' for Active; 'I' for Inactive)
REMARK       I    between atoms: C1_2  and  N2_3
REMARK       I    between atoms: C1_2  and  N4_16
REMARK    1  A    between atoms: N2_3  and  C2_4
REMARK    2  A    between atoms: C2_4  and  C3_5
REMARK    3  A    between atoms: C3_5  and  N3_6
REMARK    4  A    between atoms: N3_6  and  C4_8
REMARK    5  A    between atoms: C4_8  and  C5_9
REMARK    6  A    between atoms: C5_9  and  C6_10
REMARK    7  A    between atoms: N4_16  and  C12_18
ROOT
HETATM    1  N1  UNL     1       8.884   2.289  44.698  1.00  0.00    -0.048 NA
HETATM    2  C1  UNL     1       9.450   1.958  45.995  1.00  0.00     0.281 C
HETATM    3  N2  UNL     1      10.608   1.815  46.122  1.00  0.00    -0.389 NA
HETATM    4  N4  UNL     1       8.429   1.868  47.029  1.00  0.00    -0.151 N
ATOM      5  H4  UNL     1       8.394   2.565  47.773  1.00  0.00     0.188 HD
ENDROOT
BRANCH   3   6
HETATM    6  C2  UNL     1      11.931   1.687  46.092  1.00  0.00     0.178 C
BRANCH   6   7
HETATM    7  C3  UNL     1      12.745   2.985  45.891  1.00  0.00     0.178 C
BRANCH   7   8
HETATM    8  N3  UNL     1      14.070   2.665  45.517  1.00  0.00    -0.396 N
ATOM      9  H3  UNL     1      14.476   3.056  44.666  1.00  0.00     0.159 HD
BRANCH   8  10
HETATM   10  C4  UNL     1      14.821   1.797  46.334  1.00  0.00     0.060 C
BRANCH  10  11
HETATM   11  C5  UNL     1      15.446   0.702  45.486  1.00  0.00     0.082 C
BRANCH  11  12
HETATM   12  C6  UNL     1      14.753  -0.592  45.710  1.00  0.00    -0.053 A
HETATM   13  C7  UNL     1      14.986  -1.224  46.916  1.00  0.00     0.007 A
HETATM   14  C8  UNL     1      14.358  -2.437  47.185  1.00  0.00     0.001 A
HETATM   15  C9  UNL     1      13.520  -3.018  46.290  1.00  0.00     0.000 A
HETATM   16  C10 UNL     1      13.270  -2.409  45.079  1.00  0.00     0.001 A
HETATM   17  C11 UNL     1      13.906  -1.202  44.830  1.00  0.00     0.007 A
ENDBRANCH  11  12
ENDBRANCH  10  11
ENDBRANCH   8  10
ENDBRANCH   7   8
ENDBRANCH   6   7
ENDBRANCH   3   6
BRANCH   4  18
HETATM   18  C12 UNL     1       7.563   0.906  47.007  1.00  0.00     0.685 A
HETATM   19  N5  UNL     1       7.777  -0.259  47.658  1.00  0.00    -0.202 N
HETATM   20  C13 UNL     1       6.886  -1.270  47.650  1.00  0.00     0.107 A
ATOM     21  H5  UNL     1       8.647  -0.377  48.175  1.00  0.00     0.183 HD
HETATM   22  C14 UNL     1       5.690  -1.113  46.942  1.00  0.00     0.035 A
HETATM   23  C15 UNL     1       5.457   0.070  46.273  1.00  0.00     0.107 A
HETATM   24  N6  UNL     1       6.403   1.018  46.339  1.00  0.00    -0.202 N
ATOM     25  H6  UNL     1       6.228   1.892  45.844  1.00  0.00     0.183 HD
ENDBRANCH   4  18
TORSDOF 7
ENDMDL