MODEL 2
REMARK VINA RESULT: -6.285224492      0.121      1.025
REMARK  8 active torsions:
REMARK  status: ('A' for Active; 'I' for Inactive)
REMARK    1  A    between atoms: N1_2  and  C2_4
REMARK    2  A    between atoms: C3_7  and  O1_8
REMARK    3  A    between atoms: O1_8  and  C4_9
REMARK    4  A    between atoms: C4_9  and  C5_10
REMARK    5  A    between atoms: C5_10  and  C6_11
REMARK    6  A    between atoms: C6_11  and  N3_12
REMARK    7  A    between atoms: C14_20  and  C15_21
REMARK    8  A    between atoms: N4_22  and  N5_24
ROOT
HETATM    1  C2  UNL     1      14.798  -0.048  45.478  1.00  0.00     0.114 A
HETATM    2  N2  UNL     1      15.403   0.517  46.520  1.00  0.00    -0.323 N
ATOM      3  H2  UNL     1      16.270   1.031  46.362  1.00  0.00     0.169 HD
HETATM    4  C3  UNL     1      14.909   0.438  47.799  1.00  0.00     0.143 A
HETATM    5  C12 UNL     1      13.744  -0.262  47.943  1.00  0.00     0.057 A
HETATM    6  C13 UNL     1      13.091  -0.866  46.857  1.00  0.00     0.021 A
HETATM    7  C14 UNL     1      13.602  -0.772  45.610  1.00  0.00     0.025 A
ENDROOT
BRANCH   4   8
HETATM    8  O1  UNL     1      15.550   1.018  48.812  1.00  0.00    -0.336 OA
BRANCH   8   9
HETATM    9  C4  UNL     1      15.388   2.058  49.665  1.00  0.00     0.179 C
BRANCH   9  10
HETATM   10  C5  UNL     1      15.091   3.354  48.992  1.00  0.00     0.047 C
BRANCH  10  11
HETATM   11  C6  UNL     1      13.650   3.809  49.154  1.00  0.00     0.130 C
BRANCH  11  12
HETATM   12  N3  UNL     1      12.773   3.242  48.165  1.00  0.00    -0.366 N
HETATM   13  C7  UNL     1      11.623   2.679  48.602  1.00  0.00     0.090 A
HETATM   14  C8  UNL     1      10.699   2.114  47.754  1.00  0.00     0.017 A
HETATM   15  C9  UNL     1      10.974   2.133  46.406  1.00  0.00     0.003 A
HETATM   16  C10 UNL     1      12.136   2.700  45.953  1.00  0.00     0.017 A
HETATM   17  C11 UNL     1      13.008   3.242  46.849  1.00  0.00     0.090 A
ENDBRANCH  11  12
ENDBRANCH  10  11
ENDBRANCH   9  10
ENDBRANCH   8   9
ENDBRANCH   4   8
BRANCH   1  18
HETATM   18  N1  UNL     1      15.289   0.043  44.278  1.00  0.00    -0.380 N
HETATM   19  C1  UNL     1      16.505   0.810  44.095  1.00  0.00     0.147 C
ATOM     20  H1  UNL     1      14.832  -0.413  43.487  1.00  0.00     0.160 HD
ENDBRANCH   1  18
BRANCH   7  21
HETATM   21  C15 UNL     1      12.982  -1.370  44.436  1.00  0.00     0.121 C
HETATM   22  N4  UNL     1      11.773  -1.400  44.127  1.00  0.00    -0.318 N
ATOM     23  H4  UNL     1      11.627  -1.888  43.243  1.00  0.00     0.185 HD
BRANCH  22  24
HETATM   24  N5  UNL     1      10.603  -0.962  44.647  1.00  0.00    -0.345 N
ATOM     25  H52 UNL     1      10.368  -0.051  44.253  1.00  0.00     0.176 HD
ATOM     26  H51 UNL     1       9.908  -1.294  45.316  1.00  0.00     0.176 HD
ENDBRANCH  22  24
ENDBRANCH   7  21
TORSDOF 8
ENDMDL