MODEL 4
REMARK VINA RESULT: -6.321322203      2.366      5.772
REMARK  7 active torsions:
REMARK  status: ('A' for Active; 'I' for Inactive)
REMARK    1  A    between atoms: C4_8  and  C5_9
REMARK    2  A    between atoms: C5_9  and  C6_10
REMARK    3  A    between atoms: C6_10  and  C7_11
REMARK    4  A    between atoms: C7_11  and  C8_12
REMARK    5  A    between atoms: C13_19  and  C14_20
REMARK    6  A    between atoms: C14_20  and  C15_21
REMARK    7  A    between atoms: C15_21  and  N4_22
ROOT
HETATM    1  C8  UNL     1      14.275  -0.844  47.208  1.00  0.00     0.015 A
HETATM    2  N3  UNL     1      13.395  -0.421  48.168  1.00  0.00    -0.363 N
ATOM      3  H3  UNL     1      12.803  -1.116  48.622  1.00  0.00     0.165 HD
HETATM    4  C9  UNL     1      13.273   0.859  48.539  1.00  0.00     0.005 A
HETATM    5  C10 UNL     1      12.309   1.293  49.590  1.00  0.00     0.068 C
HETATM    6  C11 UNL     1      14.048   1.835  47.955  1.00  0.00     0.025 A
HETATM    7  C12 UNL     1      14.946   1.464  46.988  1.00  0.00     0.011 A
HETATM    8  C13 UNL     1      15.046   0.110  46.627  1.00  0.00    -0.034 A
ENDROOT
BRANCH   1   9
HETATM    9  C7  UNL     1      14.314  -2.250  46.802  1.00  0.00     0.058 C
BRANCH   9  10
HETATM   10  C6  UNL     1      13.092  -2.701  46.052  1.00  0.00     0.010 C
BRANCH  10  11
HETATM   11  C5  UNL     1      12.611  -1.595  45.155  1.00  0.00     0.030 C
BRANCH  11  12
HETATM   12  C4  UNL     1      11.217  -1.231  45.417  1.00  0.00     0.008 C
HETATM   13  C3  UNL     1      10.825   0.033  45.591  1.00  0.00     0.096 A
HETATM   14  N2  UNL     1      11.603   1.123  45.559  1.00  0.00    -0.297 N
HETATM   15  C16 UNL     1       9.554   0.450  45.838  1.00  0.00     0.226 A
HETATM   16  N1  UNL     1      10.862   2.211  45.778  1.00  0.00    -0.297 N
ATOM     17  H2  UNL     1      12.609   1.122  45.392  1.00  0.00     0.187 HD
HETATM   18  C2  UNL     1       9.590   1.822  45.954  1.00  0.00     0.091 A
ATOM     19  H1  UNL     1      11.203   3.172  45.807  1.00  0.00     0.187 HD
HETATM   20  C1  UNL     1       8.555   2.599  46.192  1.00  0.00     0.049 C
HETATM   21  O1  UNL     1       8.527  -0.276  45.943  1.00  0.00    -0.283 OA
ENDBRANCH  11  12
ENDBRANCH  10  11
ENDBRANCH   9  10
ENDBRANCH   1   9
BRANCH   8  22
HETATM   22  C14 UNL     1      16.088  -0.226  45.638  1.00  0.00     0.068 C
BRANCH  22  23
HETATM   23  C15 UNL     1      16.097   0.709  44.443  1.00  0.00     0.234 C
BRANCH  23  24
HETATM   24  N4  UNL     1      17.084   0.287  43.482  1.00  0.00    -0.079 N
ATOM     25  H43 UNL     1      16.871  -0.633  43.099  1.00  0.00     0.274 HD
ATOM     26  H42 UNL     1      17.029   0.828  42.618  1.00  0.00     0.274 HD
ATOM     27  H41 UNL     1      18.018   0.322  43.893  1.00  0.00     0.274 HD
ENDBRANCH  23  24
ENDBRANCH  22  23
ENDBRANCH   8  22
TORSDOF 7
ENDMDL