MODEL 4
REMARK VINA RESULT: -6.599852575      2.359      4.653
REMARK  6 active torsions:
REMARK  status: ('A' for Active; 'I' for Inactive)
REMARK    1  A    between atoms: C2_2  and  C3_3
REMARK    2  A    between atoms: C3_3  and  N1_4
REMARK    3  A    between atoms: C8_10  and  C9_11
REMARK    4  A    between atoms: C9_11  and  C10_12
REMARK    5  A    between atoms: C10_12  and  C11_13
REMARK    6  A    between atoms: C11_13  and  C12_14
ROOT
HETATM    1  C9  UNL     1      14.741  -2.705  47.116  1.00  0.00     0.057 C
ENDROOT
BRANCH   1   2
HETATM    2  C8  UNL     1      13.812  -2.086  46.150  1.00  0.00     0.011 A
HETATM    3  C7  UNL     1      13.876  -2.141  44.805  1.00  0.00     0.025 A
HETATM    4  C6  UNL     1      12.948  -1.525  43.964  1.00  0.00     0.006 A
HETATM    5  C5  UNL     1      11.916  -0.824  44.541  1.00  0.00     0.048 A
HETATM    6  C4  UNL     1      11.838  -0.760  45.913  1.00  0.00     0.101 A
HETATM    7  N1  UNL     1      10.873  -0.099  46.436  1.00  0.00    -0.373 N
HETATM    8  N4  UNL     1      12.758  -1.372  46.679  1.00  0.00    -0.346 N
ATOM      9  H1  UNL     1      10.838  -0.065  47.455  1.00  0.00     0.161 HD
ATOM     10  H4  UNL     1      12.673  -1.305  47.693  1.00  0.00     0.167 HD
BRANCH   7  11
HETATM   11  C3  UNL     1       9.846   0.592  45.737  1.00  0.00     0.147 C
BRANCH  11  12
HETATM   12  C2  UNL     1       9.874   2.032  46.115  1.00  0.00    -0.018 C
HETATM   13  C1  UNL     1       9.903   2.447  47.355  1.00  0.00     0.008 C
ENDBRANCH  11  12
ENDBRANCH   7  11
ENDBRANCH   1   2
BRANCH   1  14
HETATM   14  C10 UNL     1      15.684  -1.836  47.810  1.00  0.00     0.011 C
BRANCH  14  15
HETATM   15  C11 UNL     1      16.325  -0.646  47.256  1.00  0.00     0.046 C
BRANCH  15  16
HETATM   16  C12 UNL     1      15.521   0.503  46.891  1.00  0.00     0.025 A
HETATM   17  C13 UNL     1      14.758   1.068  47.938  1.00  0.00     0.105 A
HETATM   18  N2  UNL     1      13.958   2.115  47.710  1.00  0.00    -0.318 N
HETATM   19  C14 UNL     1      13.851   2.663  46.480  1.00  0.00     0.326 A
ATOM     20  H2  UNL     1      13.417   2.507  48.480  1.00  0.00     0.170 HD
HETATM   21  O1  UNL     1      13.084   3.646  46.318  1.00  0.00    -0.247 OA
HETATM   22  N3  UNL     1      14.558   2.152  45.467  1.00  0.00    -0.275 N
HETATM   23  C15 UNL     1      15.387   1.076  45.686  1.00  0.00     0.257 A
ATOM     24  H3  UNL     1      14.484   2.560  44.535  1.00  0.00     0.173 HD
HETATM   25  O2  UNL     1      15.990   0.704  44.649  1.00  0.00    -0.267 OA
ENDBRANCH  15  16
ENDBRANCH  14  15
ENDBRANCH   1  14
TORSDOF 6
ENDMDL