MODEL 2
REMARK VINA RESULT: -6.727017032      2.075      4.081
REMARK  9 active torsions:
REMARK  status: ('A' for Active; 'I' for Inactive)
REMARK    1  A    between atoms: C3_5  and  N2_6
REMARK    2  A    between atoms: N2_6  and  C4_8
REMARK    3  A    between atoms: C4_8  and  C5_9
REMARK    4  A    between atoms: C5_9  and  O1_10
REMARK    5  A    between atoms: C6_14  and  N4_15
REMARK    6  A    between atoms: C7_18  and  C8_19
REMARK    7  A    between atoms: C8_19  and  C9_20
REMARK    8  A    between atoms: C9_20  and  C10_21
REMARK    9  A    between atoms: C10_21  and  N5_22
ROOT
HETATM    1  C1  UNL     1      12.542   1.263  49.567  1.00  0.00     0.069 C
HETATM    2  C2  UNL     1      12.454   1.617  48.131  1.00  0.00     0.032 A
HETATM    3  N1  UNL     1      11.235   1.716  47.532  1.00  0.00    -0.195 N
ATOM      4  H1  UNL     1      10.384   1.547  48.069  1.00  0.00     0.184 HD
HETATM    5  C3  UNL     1      11.162   2.039  46.221  1.00  0.00     0.679 A
HETATM    6  N3  UNL     1      12.282   2.254  45.542  1.00  0.00    -0.177 N
ATOM      7  H3  UNL     1      12.217   2.497  44.554  1.00  0.00     0.186 HD
HETATM    8  C6  UNL     1      13.495   2.163  46.108  1.00  0.00     0.122 A
HETATM    9  C7  UNL     1      13.618   1.837  47.440  1.00  0.00     0.009 A
ENDROOT
BRANCH   9  10
HETATM   10  C8  UNL     1      14.918   1.733  48.081  1.00  0.00     0.046 C
BRANCH  10  11
HETATM   11  C9  UNL     1      15.426   0.336  48.302  1.00  0.00     0.025 C
BRANCH  11  12
HETATM   12  C10 UNL     1      15.987  -0.294  47.067  1.00  0.00     0.128 C
BRANCH  12  13
HETATM   13  N5  UNL     1      15.036  -1.299  46.611  1.00  0.00    -0.366 N
HETATM   14  C11 UNL     1      14.541  -1.286  45.360  1.00  0.00     0.090 A
HETATM   15  C12 UNL     1      13.634  -2.226  44.891  1.00  0.00     0.017 A
HETATM   16  C13 UNL     1      13.202  -3.234  45.728  1.00  0.00     0.003 A
HETATM   17  C14 UNL     1      13.707  -3.252  47.012  1.00  0.00     0.017 A
HETATM   18  C15 UNL     1      14.606  -2.289  47.420  1.00  0.00     0.090 A
ENDBRANCH  12  13
ENDBRANCH  11  12
ENDBRANCH  10  11
ENDBRANCH   9  10
BRANCH   8  19
HETATM   19  N4  UNL     1      14.569   2.375  45.437  1.00  0.00    -0.385 N
ATOM     20  H42 UNL     1      15.378   2.747  45.934  1.00  0.00     0.157 HD
ATOM     21  H41 UNL     1      14.622   2.183  44.437  1.00  0.00     0.157 HD
ENDBRANCH   8  19
BRANCH   5  22
HETATM   22  N2  UNL     1      10.013   2.137  45.644  1.00  0.00    -0.224 N
ATOM     23  H2  UNL     1       9.960   2.332  44.645  1.00  0.00     0.177 HD
BRANCH  22  24
HETATM   24  C4  UNL     1       8.807   1.972  46.409  1.00  0.00     0.164 C
BRANCH  24  25
HETATM   25  C5  UNL     1       7.886   0.976  45.736  1.00  0.00     0.184 C
BRANCH  25  26
HETATM   26  O1  UNL     1       8.223   0.847  44.400  1.00  0.00    -0.399 OA
ATOM     27  H1  UNL     1       9.106   1.167  44.254  1.00  0.00     0.209 HD
ENDBRANCH  25  26
ENDBRANCH  24  25
ENDBRANCH  22  24
ENDBRANCH   5  22
TORSDOF 9
ENDMDL