MODEL 2
REMARK VINA RESULT: -6.388220100      2.236      3.539
REMARK  9 active torsions:
REMARK  status: ('A' for Active; 'I' for Inactive)
REMARK    1  A    between atoms: N1_1  and  C1_4
REMARK    2  A    between atoms: C4_9  and  N3_10
REMARK    3  A    between atoms: N3_10  and  C5_12
REMARK    4  A    between atoms: C5_12  and  C6_13
REMARK    5  A    between atoms: C6_13  and  C7_14
REMARK    6  A    between atoms: C7_14  and  C8_15
REMARK    7  A    between atoms: C8_15  and  C9_16
REMARK    8  A    between atoms: C9_16  and  N4_17
REMARK    9  A    between atoms: N5_20  and  O1_21
ROOT
HETATM    1  C5  UNL     1       9.894  -0.043  45.860  1.00  0.00     0.138 C
ENDROOT
BRANCH   1   2
HETATM    2  N3  UNL     1      10.586  -0.789  44.834  1.00  0.00    -0.226 N
ATOM      3  H3  UNL     1      10.132  -0.989  43.943  1.00  0.00     0.177 HD
BRANCH   2   4
HETATM    4  C4  UNL     1      11.773  -1.194  45.061  1.00  0.00     0.679 A
HETATM    5  N2  UNL     1      11.978  -2.360  45.676  1.00  0.00    -0.202 N
HETATM    6  C3  UNL     1      13.241  -2.792  45.918  1.00  0.00     0.110 A
ATOM      7  H2  UNL     1      11.182  -2.928  45.966  1.00  0.00     0.183 HD
HETATM    8  C2  UNL     1      14.293  -1.994  45.512  1.00  0.00     0.066 A
HETATM    9  C1  UNL     1      14.086  -0.790  44.877  1.00  0.00     0.116 A
HETATM   10  N6  UNL     1      12.802  -0.429  44.672  1.00  0.00    -0.177 N
ATOM     11  H6  UNL     1      12.608   0.457  44.204  1.00  0.00     0.185 HD
BRANCH   9  12
HETATM   12  N1  UNL     1      15.084  -0.066  44.509  1.00  0.00    -0.385 N
ATOM     13  H12 UNL     1      15.833   0.211  45.144  1.00  0.00     0.157 HD
ATOM     14  H11 UNL     1      15.158   0.262  43.546  1.00  0.00     0.157 HD
ENDBRANCH   9  12
ENDBRANCH   2   4
ENDBRANCH   1   2
BRANCH   1  15
HETATM   15  C6  UNL     1       8.917   0.955  45.251  1.00  0.00     0.020 C
BRANCH  15  16
HETATM   16  C7  UNL     1       8.975   2.188  46.098  1.00  0.00     0.003 C
BRANCH  16  17
HETATM   17  C8  UNL     1       9.236   1.859  47.533  1.00  0.00     0.020 C
BRANCH  17  18
HETATM   18  C9  UNL     1       9.857   3.038  48.247  1.00  0.00     0.126 C
BRANCH  18  19
HETATM   19  N4  UNL     1      11.282   2.949  48.007  1.00  0.00    -0.346 N
HETATM   20  C10 UNL     1      11.971   1.727  48.255  1.00  0.00     0.172 C
HETATM   21  C11 UNL     1      13.271   1.676  47.535  1.00  0.00     0.110 C
HETATM   22  N5  UNL     1      13.901   2.703  47.103  1.00  0.00    -0.266 N
HETATM   23  C12 UNL     1      13.442   4.070  47.253  1.00  0.00     0.257 C
HETATM   24  C13 UNL     1      11.968   4.076  47.530  1.00  0.00     0.240 C
HETATM   25  O2  UNL     1      11.379   5.171  47.304  1.00  0.00    -0.271 OA
BRANCH  22  26
HETATM   26  O1  UNL     1      15.103   2.522  46.447  1.00  0.00    -0.288 OA
ATOM     27  H1  UNL     1      15.608   1.736  46.621  1.00  0.00     0.244 HD
ENDBRANCH  22  26
ENDBRANCH  18  19
ENDBRANCH  17  18
ENDBRANCH  16  17
ENDBRANCH  15  16
ENDBRANCH   1  15
TORSDOF 9
ENDMDL