MODEL 4
REMARK VINA RESULT: -6.764850189      2.076      2.901
REMARK  6 active torsions:
REMARK  status: ('A' for Active; 'I' for Inactive)
REMARK    1  A    between atoms: N3_8  and  C4_10
REMARK    2  A    between atoms: C4_10  and  C5_11
REMARK    3  A    between atoms: C5_11  and  C6_12
REMARK    4  A    between atoms: N5_21  and  C13_23
REMARK    5  A    between atoms: C13_23  and  C14_24
REMARK    6  A    between atoms: C14_24  and  O1_25
ROOT
HETATM    1  C1  UNL     1      12.943   4.888  47.009  1.00  0.00     0.048 C
HETATM    2  C2  UNL     1      12.542   3.671  46.675  1.00  0.00     0.083 A
HETATM    3  N1  UNL     1      13.380   2.836  45.897  1.00  0.00    -0.284 N
ATOM      4  H1  UNL     1      14.294   3.174  45.595  1.00  0.00     0.187 HD
HETATM    5  N2  UNL     1      12.958   1.538  45.538  1.00  0.00    -0.132 N
ATOM      6  H2  UNL     1      13.582   0.958  44.976  1.00  0.00     0.205 HD
HETATM    7  C3  UNL     1      11.715   1.014  45.922  1.00  0.00     0.694 A
HETATM    8  N3  UNL     1      11.351  -0.151  45.592  1.00  0.00    -0.224 N
ATOM      9  H3  UNL     1      10.430  -0.448  45.915  1.00  0.00     0.177 HD
HETATM   10  N4  UNL     1      10.850   1.830  46.704  1.00  0.00    -0.173 N
ATOM     11  H4  UNL     1       9.942   1.468  46.993  1.00  0.00     0.186 HD
HETATM   12  C12 UNL     1      11.240   3.163  47.095  1.00  0.00     0.144 A
HETATM   13  N5  UNL     1      10.494   3.924  47.796  1.00  0.00    -0.372 N
ATOM     14  H5  UNL     1      10.849   4.852  48.027  1.00  0.00     0.161 HD
ENDROOT
BRANCH   8  15
HETATM   15  C4  UNL     1      12.087  -1.095  44.817  1.00  0.00     0.142 C
BRANCH  15  16
HETATM   16  C5  UNL     1      12.717  -2.172  45.672  1.00  0.00     0.058 C
BRANCH  16  17
HETATM   17  C6  UNL     1      14.067  -1.838  46.133  1.00  0.00    -0.057 A
HETATM   18  C7  UNL     1      14.993  -1.177  45.338  1.00  0.00     0.007 A
HETATM   19  C8  UNL     1      16.250  -0.886  45.820  1.00  0.00     0.001 A
HETATM   20  C9  UNL     1      16.642  -1.237  47.110  1.00  0.00     0.000 A
HETATM   21  C10 UNL     1      15.720  -1.897  47.907  1.00  0.00     0.001 A
HETATM   22  C11 UNL     1      14.459  -2.186  47.413  1.00  0.00     0.007 A
ENDBRANCH  16  17
ENDBRANCH  15  16
ENDBRANCH   8  15
BRANCH  13  23
HETATM   23  C13 UNL     1       9.189   3.570  48.284  1.00  0.00     0.147 C
BRANCH  23  24
HETATM   24  C14 UNL     1       8.098   4.113  47.380  1.00  0.00     0.186 C
BRANCH  24  25
HETATM   25  O1  UNL     1       8.003   3.423  46.194  1.00  0.00    -0.394 OA
HETATM   26  C15 UNL     1       7.335   2.225  46.283  1.00  0.00     0.201 C
ENDBRANCH  24  25
ENDBRANCH  23  24
ENDBRANCH  13  23
TORSDOF 6
ENDMDL