MODEL 1
REMARK VINA RESULT: -6.276061241      0.000      0.000
REMARK  7 active torsions:
REMARK  status: ('A' for Active; 'I' for Inactive)
REMARK    1  A    between atoms: C1_2  and  C2_7
REMARK    2  A    between atoms: N2_3  and  O1_5
REMARK    3  A    between atoms: N3_10  and  C5_11
REMARK    4  A    between atoms: C5_11  and  C6_12
REMARK    5  A    between atoms: C6_12  and  C7_13
REMARK    6  A    between atoms: C7_13  and  C8_14
REMARK    7  A    between atoms: C8_14  and  N4_15
ROOT
HETATM    1  C2  UNL     1      13.696  -0.564  46.013  1.00  0.00     0.009 A
HETATM    2  C3  UNL     1      13.202  -0.633  47.291  1.00  0.00     0.032 A
HETATM    3  C4  UNL     1      13.727   0.198  48.289  1.00  0.00     0.091 A
HETATM    4  N3  UNL     1      14.708   1.077  48.064  1.00  0.00    -0.366 N
HETATM    5  C14 UNL     1      15.181   1.133  46.811  1.00  0.00     0.091 A
HETATM    6  C15 UNL     1      14.725   0.362  45.786  1.00  0.00     0.032 A
ENDROOT
BRANCH   4   7
HETATM    7  C5  UNL     1      15.238   1.932  49.127  1.00  0.00     0.128 C
BRANCH   7   8
HETATM    8  C6  UNL     1      14.908   3.355  48.729  1.00  0.00     0.022 C
BRANCH   8   9
HETATM    9  C7  UNL     1      13.632   3.839  49.353  1.00  0.00     0.022 C
BRANCH   9  10
HETATM   10  C8  UNL     1      12.781   4.425  48.235  1.00  0.00     0.129 C
BRANCH  10  11
HETATM   11  N4  UNL     1      11.852   3.396  47.782  1.00  0.00    -0.345 N
HETATM   12  C9  UNL     1      10.991   2.876  48.659  1.00  0.00     0.092 A
HETATM   13  C10 UNL     1      10.079   1.889  48.287  1.00  0.00     0.017 A
HETATM   14  C11 UNL     1      10.102   1.471  46.975  1.00  0.00     0.005 A
HETATM   15  C12 UNL     1      10.996   2.008  46.059  1.00  0.00     0.045 A
HETATM   16  C13 UNL     1      11.872   2.991  46.521  1.00  0.00     0.118 A
HETATM   17  N5  UNL     1      12.802   3.567  45.619  1.00  0.00    -0.083 NA
ENDBRANCH  10  11
ENDBRANCH   9  10
ENDBRANCH   8   9
ENDBRANCH   7   8
ENDBRANCH   4   7
BRANCH   1  18
HETATM   18  C1  UNL     1      13.225  -1.374  44.908  1.00  0.00     0.146 C
HETATM   19  N1  UNL     1      12.002  -0.940  44.261  1.00  0.00    -0.080 NA
HETATM   20  N2  UNL     1      13.779  -2.399  44.476  1.00  0.00    -0.255 N
ATOM     21  H2  UNL     1      13.288  -2.825  43.690  1.00  0.00     0.195 HD
BRANCH  20  22
HETATM   22  O1  UNL     1      14.870  -3.045  44.826  1.00  0.00    -0.288 OA
ATOM     23  H1  UNL     1      15.283  -3.840  44.509  1.00  0.00     0.244 HD
ENDBRANCH  20  22
ENDBRANCH   1  18
TORSDOF 7
ENDMDL