MODEL 4
REMARK VINA RESULT: -6.363109182      1.989      2.622
REMARK  7 active torsions:
REMARK  status: ('A' for Active; 'I' for Inactive)
REMARK    1  A    between atoms: N1_4  and  C4_5
REMARK    2  A    between atoms: C4_5  and  C5_6
REMARK    3  A    between atoms: C5_6  and  S1_7
REMARK    4  A    between atoms: S1_7  and  C6_8
REMARK    5  A    between atoms: C6_8  and  C7_9
REMARK    6  A    between atoms: C7_9  and  N2_10
REMARK    7  A    between atoms: C11_17  and  O1_18
ROOT
HETATM    1  C1  UNL     1      16.527  -1.059  47.215  1.00  0.00     0.026 C
HETATM    2  C2  UNL     1      15.273  -0.643  47.321  1.00  0.00    -0.017 A
HETATM    3  C3  UNL     1      14.690   0.171  48.379  1.00  0.00     0.102 A
HETATM    4  N1  UNL     1      13.426   0.380  48.146  1.00  0.00    -0.354 N
HETATM    5  C9  UNL     1      13.059  -0.259  46.940  1.00  0.00     0.048 A
HETATM    6  C10 UNL     1      11.871  -0.365  46.239  1.00  0.00     0.067 A
HETATM    7  C11 UNL     1      11.758  -1.076  45.038  1.00  0.00     0.067 A
HETATM    8  C12 UNL     1      12.878  -1.685  44.554  1.00  0.00     0.037 A
HETATM    9  C13 UNL     1      14.097  -1.611  45.220  1.00  0.00     0.017 A
HETATM   10  C14 UNL     1      14.178  -0.905  46.397  1.00  0.00     0.002 A
ENDROOT
BRANCH   4  11
HETATM   11  C4  UNL     1      12.574   1.154  49.015  1.00  0.00     0.139 C
BRANCH  11  12
HETATM   12  C5  UNL     1      13.283   1.593  50.275  1.00  0.00     0.094 C
BRANCH  12  13
HETATM   13  S1  UNL     1      13.651   3.363  50.254  1.00  0.00    -0.166 SA
BRANCH  13  14
HETATM   14  C6  UNL     1      15.110   3.641  49.240  1.00  0.00     0.093 C
BRANCH  14  15
HETATM   15  C7  UNL     1      14.781   4.399  47.974  1.00  0.00     0.132 C
BRANCH  15  16
HETATM   16  N2  UNL     1      14.113   3.563  47.009  1.00  0.00    -0.366 N
HETATM   17  C8  UNL     1      12.951   3.873  46.546  1.00  0.00     0.196 C
HETATM   18  N3  UNL     1      12.268   3.078  45.598  1.00  0.00    -0.067 NA
HETATM   19  N4  UNL     1      12.329   5.066  47.006  1.00  0.00    -0.067 NA
ATOM     20  H2  UNL     1      14.569   2.710  46.685  1.00  0.00     0.161 HD
ENDBRANCH  15  16
ENDBRANCH  14  15
ENDBRANCH  13  14
ENDBRANCH  12  13
ENDBRANCH  11  12
ENDBRANCH   4  11
BRANCH   7  21
HETATM   21  O1  UNL     1      10.531  -1.133  44.397  1.00  0.00    -0.361 OA
ATOM     22  H1  UNL     1      10.202  -1.972  44.095  1.00  0.00     0.217 HD
ENDBRANCH   7  21
TORSDOF 7
ENDMDL