MODEL 1
REMARK VINA RESULT: -7.015961531      0.000      0.000
REMARK  9 active torsions:
REMARK  status: ('A' for Active; 'I' for Inactive)
REMARK    1  A    between atoms: C3_4  and  N2_5
REMARK    2  A    between atoms: N2_5  and  C4_7
REMARK    3  A    between atoms: C4_7  and  C5_8
REMARK    4  A    between atoms: C5_8  and  C6_9
REMARK    5  A    between atoms: C6_9  and  C7_10
REMARK    6  A    between atoms: C13_18  and  N4_19
REMARK    7  A    between atoms: N4_19  and  C14_21
REMARK    8  A    between atoms: C14_21  and  C15_22
REMARK    9  A    between atoms: C15_22  and  O1_23
ROOT
HETATM    1  C1  UNL     1       8.099   1.084  46.632  1.00  0.00     0.177 C
HETATM    2  N1  UNL     1       9.485   0.834  46.220  1.00  0.00    -0.290 N
HETATM    3  C2  UNL     1      10.330   1.898  46.192  1.00  0.00     0.158 A
HETATM    4  C3  UNL     1      11.642   1.719  45.813  1.00  0.00     0.134 A
HETATM    5  N3  UNL     1      12.035   0.452  45.477  1.00  0.00    -0.174 N
ATOM      6  H3  UNL     1      13.002   0.298  45.194  1.00  0.00     0.186 HD
HETATM    7  C13 UNL     1      11.196  -0.596  45.506  1.00  0.00     0.694 A
HETATM    8  N5  UNL     1       9.931  -0.344  45.886  1.00  0.00    -0.131 N
ATOM      9  H5  UNL     1       9.278  -1.126  45.916  1.00  0.00     0.205 HD
ENDROOT
BRANCH   4  10
HETATM   10  N2  UNL     1      12.496   2.677  45.763  1.00  0.00    -0.375 N
ATOM     11  H2  UNL     1      12.868   2.966  44.859  1.00  0.00     0.161 HD
BRANCH  10  12
HETATM   12  C4  UNL     1      12.939   3.352  46.956  1.00  0.00     0.121 C
BRANCH  12  13
HETATM   13  C5  UNL     1      14.369   2.962  47.263  1.00  0.00     0.024 C
BRANCH  13  14
HETATM   14  C6  UNL     1      14.447   1.715  48.087  1.00  0.00     0.040 C
BRANCH  14  15
HETATM   15  C7  UNL     1      15.143   0.614  47.421  1.00  0.00    -0.058 A
HETATM   16  C8  UNL     1      15.513  -0.490  48.181  1.00  0.00     0.007 A
HETATM   17  C9  UNL     1      16.168  -1.547  47.583  1.00  0.00     0.001 A
HETATM   18  C10 UNL     1      16.461  -1.525  46.235  1.00  0.00     0.000 A
HETATM   19  C11 UNL     1      16.094  -0.431  45.477  1.00  0.00     0.001 A
HETATM   20  C12 UNL     1      15.444   0.620  46.076  1.00  0.00     0.007 A
ENDBRANCH  14  15
ENDBRANCH  13  14
ENDBRANCH  12  13
ENDBRANCH  10  12
ENDBRANCH   4  10
BRANCH   7  21
HETATM   21  N4  UNL     1      11.608  -1.787  45.179  1.00  0.00    -0.223 N
ATOM     22  H4  UNL     1      10.927  -2.452  44.811  1.00  0.00     0.177 HD
BRANCH  21  23
HETATM   23  C14 UNL     1      12.965  -2.204  45.312  1.00  0.00     0.164 C
BRANCH  23  24
HETATM   24  C15 UNL     1      13.140  -3.338  46.299  1.00  0.00     0.184 C
BRANCH  24  25
HETATM   25  O1  UNL     1      12.059  -4.214  46.271  1.00  0.00    -0.399 OA
ATOM     26  H1  UNL     1      12.230  -4.998  46.780  1.00  0.00     0.209 HD
ENDBRANCH  24  25
ENDBRANCH  23  24
ENDBRANCH  21  23
ENDBRANCH   7  21
TORSDOF 9
ENDMDL