MODEL 3
REMARK VINA RESULT: -7.093242919      2.750      7.267
REMARK  4 active torsions:
REMARK  status: ('A' for Active; 'I' for Inactive)
REMARK    1  A    between atoms: C2_2  and  O1_3
REMARK    2  A    between atoms: C2_2  and  C3_5
REMARK    3  A    between atoms: C5_7  and  C6_8
REMARK    4  A    between atoms: C6_8  and  C7_9
ROOT
HETATM    1  C7  UNL     1      -3.107   5.890  13.356  1.00  0.00    -0.052 A
HETATM    2  C8  UNL     1      -3.171   7.062  14.093  1.00  0.00     0.029 A
HETATM    3  C9  UNL     1      -2.207   8.037  13.905  1.00  0.00     0.047 A
HETATM    4 BR1  UNL     1      -2.253   9.683  14.903  1.00  0.00    -0.048 Br
HETATM    5  C10 UNL     1      -1.168   7.903  13.009  1.00  0.00     0.119 A
HETATM    6  C11 UNL     1      -1.104   6.736  12.276  1.00  0.00     0.104 A
HETATM    7  C12 UNL     1      -2.069   5.747  12.457  1.00  0.00     0.047 A
HETATM    8  O2  UNL     1      -0.074   6.563  11.364  1.00  0.00    -0.346 OA
HETATM    9  C13 UNL     1       1.039   7.435  11.467  1.00  0.00     0.202 C
HETATM   10  C14 UNL     1       0.492   8.845  11.573  1.00  0.00     0.202 C
HETATM   11  O3  UNL     1      -0.204   8.895  12.831  1.00  0.00    -0.345 OA
ENDROOT
BRANCH   1  12
HETATM   12  C6  UNL     1      -4.120   4.804  13.518  1.00  0.00     0.062 C
BRANCH  12  13
HETATM   13  C5  UNL     1      -4.208   4.496  14.993  1.00  0.00     0.113 C
HETATM   14  C4  UNL     1      -5.472   3.690  15.208  1.00  0.00     0.060 C
HETATM   15  C3  UNL     1      -4.966   2.573  16.104  1.00  0.00     0.177 C
HETATM   16  O4  UNL     1      -3.725   3.033  16.539  1.00  0.00    -0.278 OA
HETATM   17  N1  UNL     1      -3.188   3.529  15.381  1.00  0.00    -0.095 NA
BRANCH  15  18
HETATM   18  C2  UNL     1      -5.896   2.351  17.282  1.00  0.00     0.145 C
HETATM   19  C1  UNL     1      -7.306   2.747  16.964  1.00  0.00     0.042 C
BRANCH  18  20
HETATM   20  O1  UNL     1      -5.408   3.166  18.322  1.00  0.00    -0.393 OA
ATOM     21  H1  UNL     1      -4.496   2.955  18.483  1.00  0.00     0.210 HD
ENDBRANCH  18  20
ENDBRANCH  15  18
ENDBRANCH  12  13
ENDBRANCH   1  12
TORSDOF 4
ENDMDL