MODEL 3
REMARK VINA RESULT: -6.566171239      1.218      1.590
REMARK  7 active torsions:
REMARK  status: ('A' for Active; 'I' for Inactive)
REMARK    1  A    between atoms: C2_2  and  C3_3
REMARK    2  A    between atoms: C3_3  and  N1_4
REMARK    3  A    between atoms: C7_14  and  C8_15
REMARK    4  A    between atoms: C8_15  and  N4_16
REMARK    5  A    between atoms: C12_20  and  C13_21
REMARK    6  A    between atoms: C13_21  and  C14_22
REMARK    7  A    between atoms: C14_22  and  C15_23
ROOT
HETATM    1  N1  UNL     1      -4.295   4.314  13.696  1.00  0.00    -0.308 N
HETATM    2  C4  UNL     1      -4.242   2.975  13.798  1.00  0.00     0.182 A
HETATM    3  S1  UNL     1      -4.340   2.284  15.293  1.00  0.00    -0.040 SA
HETATM    4  N2  UNL     1      -4.115   2.164  12.742  1.00  0.00    -0.298 N
ATOM      5  H2  UNL     1      -4.078   1.152  12.864  1.00  0.00     0.171 HD
HETATM    6  C5  UNL     1      -4.035   2.710  11.522  1.00  0.00     0.278 A
HETATM    7  O1  UNL     1      -3.914   1.983  10.507  1.00  0.00    -0.265 OA
HETATM    8  C6  UNL     1      -4.087   4.099  11.391  1.00  0.00     0.147 A
HETATM    9  N3  UNL     1      -4.032   4.915  10.324  1.00  0.00    -0.334 N
ATOM     10  H3  UNL     1      -3.935   4.600   9.358  1.00  0.00     0.168 HD
HETATM   11  C7  UNL     1      -4.123   6.193  10.700  1.00  0.00     0.118 A
HETATM   12  N5  UNL     1      -4.239   6.179  12.059  1.00  0.00    -0.326 N
ATOM     13  H5  UNL     1      -4.328   7.005  12.651  1.00  0.00     0.169 HD
HETATM   14  C16 UNL     1      -4.219   4.912  12.495  1.00  0.00     0.144 A
ENDROOT
BRANCH  11  15
HETATM   15  C8  UNL     1      -4.102   7.434   9.849  1.00  0.00     0.109 C
BRANCH  15  16
HETATM   16  N4  UNL     1      -5.011   7.271   8.793  1.00  0.00    -0.274 NA
HETATM   17  C9  UNL     1      -4.554   7.697   7.488  1.00  0.00     0.096 C
HETATM   18  C10 UNL     1      -5.756   7.882   6.620  1.00  0.00     0.017 C
HETATM   19  C11 UNL     1      -6.933   7.761   7.543  1.00  0.00     0.034 C
HETATM   20  C12 UNL     1      -6.340   7.775   8.950  1.00  0.00     0.142 C
BRANCH  20  21
HETATM   21  C13 UNL     1      -6.319   9.167   9.368  1.00  0.00    -0.084 C
BRANCH  21  22
HETATM   22  C14 UNL     1      -6.295  10.325   9.709  1.00  0.00    -0.074 C
BRANCH  22  23
HETATM   23  C15 UNL     1      -6.241  11.746  10.114  1.00  0.00     0.315 C
HETATM   24  F1  UNL     1      -4.921  12.157  10.290  1.00  0.00    -0.242 F
ENDBRANCH  22  23
ENDBRANCH  21  22
ENDBRANCH  20  21
ENDBRANCH  15  16
ENDBRANCH  11  15
BRANCH   1  25
HETATM   25  C3  UNL     1      -4.435   5.086  14.905  1.00  0.00     0.133 C
BRANCH  25  26
HETATM   26  C2  UNL     1      -5.889   5.493  15.014  1.00  0.00     0.016 C
HETATM   27  C1  UNL     1      -6.019   7.016  15.078  1.00  0.00     0.006 C
ENDBRANCH  25  26
ENDBRANCH   1  25
TORSDOF 7
ENDMDL