MODEL 2
REMARK VINA RESULT: -7.968033941      3.230      7.289
REMARK  5 active torsions:
REMARK  status: ('A' for Active; 'I' for Inactive)
REMARK    1  A    between atoms: N1_1  and  C1_4
REMARK    2  A    between atoms: C2_7  and  N3_8
REMARK    3  A    between atoms: N4_12  and  C6_13
REMARK    4  A    between atoms: C12_20  and  O1_21
REMARK    5  A    between atoms: O1_21  and  C13_22
ROOT
HETATM    1  C1  UNL     1      -2.318   9.536  13.047  1.00  0.00     0.679 A
HETATM    2  N2  UNL     1      -2.734   8.631  13.935  1.00  0.00    -0.174 N
ATOM      3  H2  UNL     1      -2.426   8.699  14.905  1.00  0.00     0.186 HD
HETATM    4  C2  UNL     1      -3.551   7.628  13.568  1.00  0.00     0.162 A
HETATM    5  C11 UNL     1      -3.953   7.551  12.269  1.00  0.00     0.211 A
HETATM    6  F1  UNL     1      -4.781   6.563  11.846  1.00  0.00    -0.197 F
HETATM    7  C12 UNL     1      -3.537   8.488  11.302  1.00  0.00     0.201 A
HETATM    8  N5  UNL     1      -2.722   9.454  11.753  1.00  0.00    -0.167 N
ATOM      9  H5  UNL     1      -2.390  10.158  11.095  1.00  0.00     0.186 HD
ENDROOT
BRANCH   4  10
HETATM   10  N3  UNL     1      -3.980   6.664  14.554  1.00  0.00    -0.362 N
HETATM   11  C3  UNL     1      -5.111   7.109  15.328  1.00  0.00     0.126 C
HETATM   12  C4  UNL     1      -6.367   6.329  14.991  1.00  0.00     0.050 C
HETATM   13  C5  UNL     1      -5.898   4.919  14.611  1.00  0.00     0.274 C
HETATM   14  N4  UNL     1      -5.094   4.467  15.734  1.00  0.00     0.094 N
HETATM   15  C9  UNL     1      -3.699   4.374  15.438  1.00  0.00     0.292 C
HETATM   16  C10 UNL     1      -3.198   5.471  14.563  1.00  0.00     0.154 C
BRANCH  14  17
HETATM   17  C6  UNL     1      -5.659   3.265  16.265  1.00  0.00     0.223 A
HETATM   18  C7  UNL     1      -5.975   3.317  17.740  1.00  0.00     0.038 A
HETATM   19  C8  UNL     1      -7.047   3.143  16.730  1.00  0.00     0.038 A
ENDBRANCH  14  17
ENDBRANCH   4  10
BRANCH   1  20
HETATM   20  N1  UNL     1      -1.530  10.507  13.387  1.00  0.00    -0.234 N
ATOM     21  H12 UNL     1      -1.259  10.593  14.366  1.00  0.00     0.174 HD
ATOM     22  H11 UNL     1      -1.181  11.176  12.700  1.00  0.00     0.174 HD
ENDBRANCH   1  20
BRANCH   7  23
HETATM   23  O1  UNL     1      -3.968   8.367  10.011  1.00  0.00    -0.327 OA
BRANCH  23  24
HETATM   24  C13 UNL     1      -4.992   9.110   9.467  1.00  0.00     0.135 C
HETATM   25  C14 UNL     1      -5.100  10.498  10.133  1.00  0.00     0.037 C
HETATM   26  C15 UNL     1      -6.565  10.591  10.404  1.00  0.00    -0.012 C
HETATM   27  C16 UNL     1      -7.295  10.536   9.088  1.00  0.00     0.005 C
HETATM   28  C19 UNL     1      -6.821   9.165  10.927  1.00  0.00     0.012 C
HETATM   29  C17 UNL     1      -7.294   9.071   8.649  1.00  0.00     0.007 C
HETATM   30  C18 UNL     1      -6.355   8.463   9.647  1.00  0.00     0.015 C
ENDBRANCH  23  24
ENDBRANCH   7  23
TORSDOF 5
ENDMDL