MODEL 5
REMARK VINA RESULT: -6.364241115      3.429      5.991
REMARK  7 active torsions:
REMARK  status: ('A' for Active; 'I' for Inactive)
REMARK    1  A    between atoms: N1_5  and  C3_6
REMARK    2  A    between atoms: C3_6  and  C4_7
REMARK    3  A    between atoms: C4_7  and  O2_8
REMARK    4  A    between atoms: C5_10  and  N2_11
REMARK    5  A    between atoms: N2_11  and  C6_13
REMARK    6  A    between atoms: C6_13  and  S3_15
REMARK    7  A    between atoms: S3_15  and  C7_16
ROOT
HETATM    1  O1  UNL     1      -2.878   3.710  15.811  1.00  0.00    -0.258 OA
HETATM    2  S1  UNL     1      -3.746   4.875  14.990  1.00  0.00     0.020 S
HETATM    3  C1  UNL     1      -5.115   4.208  14.096  1.00  0.00     0.128 C
HETATM    4  C2  UNL     1      -4.753   3.643  12.744  1.00  0.00     0.136 C
HETATM    5  N1  UNL     1      -3.498   4.158  12.342  1.00  0.00    -0.369 N
HETATM    6  C5  UNL     1      -3.338   5.559  12.505  1.00  0.00     0.196 C
HETATM    7  C13 UNL     1      -2.655   5.736  13.841  1.00  0.00     0.155 C
ENDROOT
BRANCH   6   8
HETATM    8  N2  UNL     1      -2.818   6.287  11.419  1.00  0.00    -0.353 N
ATOM      9  H2  UNL     1      -2.267   5.806  10.707  1.00  0.00     0.163 HD
BRANCH   8  10
HETATM   10  C6  UNL     1      -3.052   7.694  11.302  1.00  0.00     0.136 C
HETATM   11  S2  UNL     1      -1.772   8.648  10.896  1.00  0.00    -0.053 SA
BRANCH  10  12
HETATM   12  S3  UNL     1      -4.615   8.434  11.570  1.00  0.00    -0.096 SA
BRANCH  12  13
HETATM   13  C7  UNL     1      -5.541   8.871  10.105  1.00  0.00     0.054 C
HETATM   14  C8  UNL     1      -6.907   9.389  10.513  1.00  0.00     0.015 C
HETATM   15  C9  UNL     1      -7.702   9.842   9.303  1.00  0.00     0.001 C
HETATM   16  C10 UNL     1      -7.553   8.921   8.138  1.00  0.00     0.000 C
HETATM   17  C11 UNL     1      -6.954   7.580   8.493  1.00  0.00     0.001 C
HETATM   18  C12 UNL     1      -5.612   7.708   9.178  1.00  0.00     0.015 C
ENDBRANCH  12  13
ENDBRANCH  10  12
ENDBRANCH   8  10
ENDBRANCH   6   8
BRANCH   5  19
HETATM   19  C3  UNL     1      -2.699   3.433  11.485  1.00  0.00     0.086 C
BRANCH  19  20
HETATM   20  C4  UNL     1      -3.298   2.134  10.940  1.00  0.00     0.208 C
BRANCH  20  21
HETATM   21  O2  UNL     1      -3.826   2.264   9.684  1.00  0.00    -0.396 OA
ATOM     22  H2  UNL     1      -3.292   1.864   9.007  1.00  0.00     0.209 HD
ENDBRANCH  20  21
ENDBRANCH  19  20
ENDBRANCH   5  19
TORSDOF 7
ENDMDL