MODEL 3
REMARK VINA RESULT: -7.138086017      1.391      1.577
REMARK  6 active torsions:
REMARK  status: ('A' for Active; 'I' for Inactive)
REMARK    1  A    between atoms: C2_2  and  N1_3
REMARK    2  A    between atoms: C3_4  and  O1_5
REMARK    3  A    between atoms: O1_5  and  C4_6
REMARK    4  A    between atoms: C4_6  and  C5_7
REMARK       I    between atoms: C5_7  and  N2_9
REMARK    5  A    between atoms: N2_9  and  C6_11
REMARK    6  A    between atoms: C6_11  and  C7_12
REMARK       I    between atoms: N4_22  and  C14_24
ROOT
HETATM    1  N1  UNL     1      -4.354   4.254  12.237  1.00  0.00    -0.294 N
HETATM    2  C3  UNL     1      -3.807   5.479  11.711  1.00  0.00     0.225 C
HETATM    3  N3  UNL     1      -3.385   6.446  12.375  1.00  0.00    -0.338 N
ATOM      4  H3  UNL     1      -3.037   7.217  11.805  1.00  0.00     0.164 HD
HETATM    5  C10 UNL     1      -3.296   6.679  13.774  1.00  0.00     0.082 C
HETATM    6  C11 UNL     1      -3.532   8.126  14.107  1.00  0.00     0.051 C
HETATM    7  C12 UNL     1      -1.912   6.213  14.230  1.00  0.00     0.051 C
HETATM    8  S1  UNL     1      -4.569   5.627  14.576  1.00  0.00    -0.063 SA
HETATM    9  C13 UNL     1      -4.434   4.102  13.649  1.00  0.00     0.154 C
HETATM   10  N4  UNL     1      -4.405   2.996  14.234  1.00  0.00    -0.307 N
ATOM     11  H4  UNL     1      -4.319   2.159  13.658  1.00  0.00     0.171 HD
HETATM   12  C14 UNL     1      -4.483   2.821  15.637  1.00  0.00     0.219 C
HETATM   13  C15 UNL     1      -5.317   3.621  16.549  1.00  0.00     0.117 C
HETATM   14  O3  UNL     1      -3.767   1.892  16.138  1.00  0.00    -0.274 OA
ENDROOT
BRANCH   2  15
HETATM   15  O1  UNL     1      -3.776   5.517  10.290  1.00  0.00    -0.313 OA
BRANCH  15  16
HETATM   16  C4  UNL     1      -3.522   6.773   9.687  1.00  0.00     0.282 C
BRANCH  16  17
HETATM   17  C5  UNL     1      -4.760   7.308   9.006  1.00  0.00     0.245 C
HETATM   18  O2  UNL     1      -5.814   6.739   9.314  1.00  0.00    -0.271 OA
HETATM   19  N2  UNL     1      -4.692   8.360   8.105  1.00  0.00    -0.339 N
ATOM     20  H2  UNL     1      -3.752   8.732   7.967  1.00  0.00     0.167 HD
BRANCH  19  21
HETATM   21  C6  UNL     1      -5.676   9.000   7.353  1.00  0.00     0.068 C
BRANCH  21  22
HETATM   22  C7  UNL     1      -6.208   8.363   6.125  1.00  0.00     0.024 A
HETATM   23  C8  UNL     1      -7.581   7.822   5.922  1.00  0.00     0.010 A
HETATM   24  C9  UNL     1      -7.224   9.135   5.284  1.00  0.00     0.010 A
ENDBRANCH  21  22
ENDBRANCH  19  21
ENDBRANCH  16  17
ENDBRANCH  15  16
ENDBRANCH   2  15
BRANCH   1  25
HETATM   25  C2  UNL     1      -4.806   3.212  11.339  1.00  0.00     0.130 C
HETATM   26  C1  UNL     1      -3.797   2.214  10.932  1.00  0.00     0.027 C
ENDBRANCH   1  25
TORSDOF 6
ENDMDL