MODEL 5
REMARK VINA RESULT: -6.257885047      2.771      4.954
REMARK  5 active torsions:
REMARK  status: ('A' for Active; 'I' for Inactive)
REMARK    1  A    between atoms: C2_2  and  C3_3
REMARK    2  A    between atoms: C3_3  and  C4_4
REMARK    3  A    between atoms: C4_4  and  C5_5
REMARK    4  A    between atoms: C5_5  and  N1_6
REMARK    5  A    between atoms: C14_23  and  O1_24
ROOT
HETATM    1  N1  UNL     1      -3.948   2.560  12.136  1.00  0.00    -0.379 N
HETATM    2  C6  UNL     1      -4.839   3.398  11.408  1.00  0.00     0.162 C
HETATM    3  C7  UNL     1      -4.385   4.808  11.596  1.00  0.00     0.005 A
HETATM    4  C8  UNL     1      -3.896   5.759  10.807  1.00  0.00     0.118 A
HETATM    5  N2  UNL     1      -3.538   6.814  11.600  1.00  0.00    -0.309 N
ATOM      6  H2  UNL     1      -3.133   7.684  11.256  1.00  0.00     0.186 HD
HETATM    7  N3  UNL     1      -3.790   6.553  12.887  1.00  0.00    -0.295 N
HETATM    8  C9  UNL     1      -3.377   7.376  13.985  1.00  0.00     0.178 C
HETATM    9  C10 UNL     1      -4.310   5.350  12.908  1.00  0.00     0.074 A
HETATM   10  C11 UNL     1      -4.802   4.689  14.103  1.00  0.00     0.057 A
HETATM   11  C12 UNL     1      -5.480   5.319  15.091  1.00  0.00     0.109 A
HETATM   12 BR1  UNL     1      -6.208   7.056  15.173  1.00  0.00    -0.029 Br
HETATM   13  N4  UNL     1      -5.714   4.357  16.002  1.00  0.00    -0.292 N
ATOM     14  H4  UNL     1      -6.206   4.495  16.885  1.00  0.00     0.187 HD
HETATM   15  N5  UNL     1      -5.203   3.181  15.577  1.00  0.00    -0.299 N
ATOM     16  H5  UNL     1      -5.256   2.304  16.094  1.00  0.00     0.186 HD
HETATM   17  C13 UNL     1      -4.618   3.328  14.380  1.00  0.00     0.089 A
HETATM   18  C14 UNL     1      -4.000   2.312  13.499  1.00  0.00     0.269 C
ENDROOT
BRANCH   1  19
HETATM   19  C5  UNL     1      -2.614   2.515  11.597  1.00  0.00     0.120 C
BRANCH  19  20
HETATM   20  C4  UNL     1      -2.517   1.652  10.362  1.00  0.00     0.019 C
BRANCH  20  21
HETATM   21  C3  UNL     1      -3.283   0.366  10.526  1.00  0.00     0.001 C
BRANCH  21  22
HETATM   22  C2  UNL     1      -2.475  -0.680  11.223  1.00  0.00    -0.004 C
HETATM   23  C1  UNL     1      -3.287  -1.975  11.189  1.00  0.00     0.005 C
ENDBRANCH  21  22
ENDBRANCH  20  21
ENDBRANCH  19  20
ENDBRANCH   1  19
BRANCH  18  24
HETATM   24  O1  UNL     1      -4.636   1.093  13.832  1.00  0.00    -0.371 OA
ATOM     25  H1  UNL     1      -4.344   0.723  14.656  1.00  0.00     0.212 HD
ENDBRANCH  18  24
TORSDOF 5
ENDMDL