MODEL 3
REMARK VINA RESULT: -6.637366297      2.406      3.214
REMARK  5 active torsions:
REMARK  status: ('A' for Active; 'I' for Inactive)
REMARK    1  A    between atoms: C2_2  and  C3_3
REMARK    2  A    between atoms: C3_3  and  O1_5
REMARK    3  A    between atoms: O1_5  and  C5_6
REMARK    4  A    between atoms: N1_8  and  C7_9
REMARK    5  A    between atoms: C11_14  and  N2_15
ROOT
HETATM    1  C5  UNL     1      -1.284   6.371  12.233  1.00  0.00     0.157 C
HETATM    2  C6  UNL     1      -2.758   6.383  12.560  1.00  0.00     0.157 C
HETATM    3  N1  UNL     1      -3.313   5.048  12.590  1.00  0.00    -0.365 N
HETATM    4  C12 UNL     1      -3.044   4.193  11.443  1.00  0.00     0.126 C
HETATM    5  C13 UNL     1      -1.554   4.049  11.321  1.00  0.00     0.041 C
HETATM    6  C14 UNL     1      -0.921   5.390  11.164  1.00  0.00     0.125 C
HETATM    7  C15 UNL     1      -1.179   5.898   9.815  1.00  0.00     0.066 C
HETATM    8  N4  UNL     1      -1.367   6.290   8.741  1.00  0.00    -0.197 NA
ENDROOT
BRANCH   1   9
HETATM    9  O1  UNL     1      -0.857   7.622  11.814  1.00  0.00    -0.378 OA
BRANCH   9  10
HETATM   10  C3  UNL     1      -1.666   8.653  12.199  1.00  0.00     0.117 C
HETATM   11  C4  UNL     1      -1.860   9.568  10.992  1.00  0.00     0.039 C
BRANCH  10  12
HETATM   12  C2  UNL     1      -1.107   9.491  13.310  1.00  0.00     0.027 C
HETATM   13  C1  UNL     1      -2.006   9.604  14.499  1.00  0.00     0.007 C
ENDBRANCH  10  12
ENDBRANCH   9  10
ENDBRANCH   1   9
BRANCH   3  14
HETATM   14  C7  UNL     1      -4.090   4.537  13.654  1.00  0.00     0.104 A
HETATM   15  C8  UNL     1      -5.137   5.234  14.210  1.00  0.00     0.050 A
HETATM   16  C9  UNL     1      -5.894   4.729  15.251  1.00  0.00     0.027 A
HETATM   17  C10 UNL     1      -5.578   3.481  15.741  1.00  0.00     0.054 A
HETATM   18 BR1  UNL     1      -6.594   2.723  17.190  1.00  0.00    -0.047 Br
HETATM   19  C11 UNL     1      -4.530   2.796  15.178  1.00  0.00     0.118 A
HETATM   20  N3  UNL     1      -3.826   3.328  14.171  1.00  0.00    -0.328 N
ATOM     21  H3  UNL     1      -3.053   2.789  13.779  1.00  0.00     0.169 HD
BRANCH  19  22
HETATM   22  N2  UNL     1      -4.234   1.632  15.635  1.00  0.00    -0.384 N
ATOM     23  H22 UNL     1      -4.726   0.804  15.298  1.00  0.00     0.157 HD
ATOM     24  H21 UNL     1      -3.500   1.552  16.339  1.00  0.00     0.157 HD
ENDBRANCH  19  22
ENDBRANCH   3  14
TORSDOF 5
ENDMDL