MODEL 3
REMARK VINA RESULT: -6.625387065      1.161      1.224
REMARK  6 active torsions:
REMARK  status: ('A' for Active; 'I' for Inactive)
REMARK    1  A    between atoms: C3_3  and  C4_4
REMARK    2  A    between atoms: C4_4  and  C5_6
REMARK    3  A    between atoms: N1_12  and  C10_13
REMARK    4  A    between atoms: C12_15  and  O2_16
REMARK    5  A    between atoms: C13_18  and  C14_19
REMARK    6  A    between atoms: C14_19  and  O3_20
ROOT
HETATM    1  C1  UNL     1      -3.549   3.386  12.231  1.00  0.00     0.069 C
HETATM    2  C2  UNL     1      -3.876   4.800  12.496  1.00  0.00     0.025 A
HETATM    3  C3  UNL     1      -3.462   5.852  11.672  1.00  0.00     0.051 A
HETATM    4  C8  UNL     1      -3.958   6.981  12.249  1.00  0.00     0.042 A
HETATM    5 BR1  UNL     1      -3.745   8.772  11.619  1.00  0.00    -0.049 Br
HETATM    6  C9  UNL     1      -4.643   6.593  13.380  1.00  0.00     0.114 A
HETATM    7  N1  UNL     1      -4.584   5.254  13.518  1.00  0.00    -0.331 N
ENDROOT
BRANCH   7   8
HETATM    8  C10 UNL     1      -5.187   4.519  14.582  1.00  0.00     0.230 C
HETATM    9  C11 UNL     1      -6.179   5.323  15.385  1.00  0.00     0.088 C
HETATM   10  C12 UNL     1      -6.379   4.391  16.585  1.00  0.00     0.153 C
HETATM   11  C13 UNL     1      -5.094   3.614  16.574  1.00  0.00     0.176 C
HETATM   12  O4  UNL     1      -4.314   4.082  15.547  1.00  0.00    -0.356 OA
BRANCH  10  13
HETATM   13  O2  UNL     1      -7.496   3.581  16.396  1.00  0.00    -0.393 OA
ATOM     14  H2  UNL     1      -8.211   3.862  16.955  1.00  0.00     0.210 HD
ENDBRANCH  10  13
BRANCH  11  15
HETATM   15  C14 UNL     1      -5.326   2.127  16.536  1.00  0.00     0.198 C
BRANCH  15  16
HETATM   16  O3  UNL     1      -5.557   1.690  17.838  1.00  0.00    -0.398 OA
ATOM     17  H3  UNL     1      -6.492   1.551  17.943  1.00  0.00     0.209 HD
ENDBRANCH  15  16
ENDBRANCH  11  15
ENDBRANCH   7   8
BRANCH   3  18
HETATM   18  C4  UNL     1      -2.664   5.706  10.466  1.00  0.00     0.166 C
HETATM   19  O1  UNL     1      -3.290   5.572   9.364  1.00  0.00    -0.292 OA
BRANCH  18  20
HETATM   20  C5  UNL     1      -1.190   5.705  10.422  1.00  0.00     0.052 C
HETATM   21  C6  UNL     1      -0.591   6.450  11.590  1.00  0.00     0.018 C
HETATM   22  C7  UNL     1      -0.609   4.326  10.409  1.00  0.00     0.018 C
ENDBRANCH  18  20
ENDBRANCH   3  18
TORSDOF 6
ENDMDL