MODEL 3
REMARK VINA RESULT: -7.421361679      2.248      4.850
REMARK  5 active torsions:
REMARK  status: ('A' for Active; 'I' for Inactive)
REMARK    1  A    between atoms: C2_2  and  N1_3
REMARK    2  A    between atoms: C2_2  and  C16_29
REMARK    3  A    between atoms: N1_3  and  C3_5
REMARK    4  A    between atoms: N3_9  and  C5_11
REMARK    5  A    between atoms: N6_23  and  C12_24
ROOT
HETATM    1  C3  UNL     1      -3.877   5.467  14.211  1.00  0.00     0.148 A
HETATM    2  N2  UNL     1      -3.429   4.526  13.339  1.00  0.00    -0.175 N
ATOM      3  H2  UNL     1      -3.803   3.579  13.400  1.00  0.00     0.186 HD
HETATM    4  C4  UNL     1      -2.509   4.800  12.397  1.00  0.00     0.681 A
HETATM    5  N3  UNL     1      -2.115   3.856  11.586  1.00  0.00    -0.217 N
ATOM      6  H3  UNL     1      -1.416   4.075  10.875  1.00  0.00     0.178 HD
HETATM    7  N4  UNL     1      -1.983   6.033  12.273  1.00  0.00    -0.174 N
ATOM      8  H4  UNL     1      -1.286   6.234  11.556  1.00  0.00     0.186 HD
HETATM    9  C9  UNL     1      -2.400   6.996  13.119  1.00  0.00     0.155 A
HETATM   10  C10 UNL     1      -3.352   6.732  14.101  1.00  0.00     0.123 A
HETATM   11  N5  UNL     1      -3.570   7.866  14.786  1.00  0.00    -0.346 N
ATOM     12  H5  UNL     1      -4.218   7.975  15.565  1.00  0.00     0.167 HD
HETATM   13  C11 UNL     1      -2.783   8.843  14.268  1.00  0.00     0.185 A
HETATM   14  N6  UNL     1      -2.081   8.305  13.260  1.00  0.00    -0.322 N
ENDROOT
BRANCH   1  15
HETATM   15  N1  UNL     1      -4.740   5.121  15.062  1.00  0.00    -0.369 N
ATOM     16  H1  UNL     1      -5.174   5.890  15.574  1.00  0.00     0.161 HD
BRANCH  15  17
HETATM   17  C2  UNL     1      -5.200   3.824  15.419  1.00  0.00     0.083 C
HETATM   18  C1  UNL     1      -4.082   3.117  16.196  1.00  0.00     0.032 C
BRANCH  17  19
HETATM   19  C16 UNL     1      -6.383   4.030  16.376  1.00  0.00     0.008 A
HETATM   20  C17 UNL     1      -7.113   2.820  16.842  1.00  0.00     0.007 A
HETATM   21  C18 UNL     1      -6.210   3.571  17.810  1.00  0.00     0.007 A
ENDBRANCH  17  19
ENDBRANCH  15  17
ENDBRANCH   1  15
BRANCH   5  22
HETATM   22  C5  UNL     1      -2.631   2.527  11.660  1.00  0.00     0.151 C
HETATM   23  C6  UNL     1      -1.894   1.475  10.888  1.00  0.00     0.196 C
HETATM   24  O1  UNL     1      -2.713   1.723   9.793  1.00  0.00    -0.382 OA
HETATM   25  C7  UNL     1      -3.684   2.309  10.591  1.00  0.00     0.142 C
HETATM   26  C8  UNL     1      -4.780   1.342  11.005  1.00  0.00     0.042 C
ENDBRANCH   5  22
BRANCH  14  27
HETATM   27  C12 UNL     1      -1.100   8.943  12.388  1.00  0.00     0.097 C
HETATM   28  C13 UNL     1      -1.802   9.952  11.505  1.00  0.00     0.063 C
HETATM   29  C14 UNL     1      -0.819  10.995  11.962  1.00  0.00     0.174 C
HETATM   30  F1  UNL     1       0.081  11.285  10.973  1.00  0.00    -0.249 F
HETATM   31  C15 UNL     1      -0.290  10.027  13.019  1.00  0.00     0.063 C
ENDBRANCH  14  27
TORSDOF 5
ENDMDL