MODEL 5
REMARK VINA RESULT: -7.183630446      3.808      6.804
REMARK  5 active torsions:
REMARK  status: ('A' for Active; 'I' for Inactive)
REMARK    1  A    between atoms: C2_2  and  N1_3
REMARK    2  A    between atoms: N1_3  and  C3_5
REMARK    3  A    between atoms: N3_9  and  C5_11
REMARK    4  A    between atoms: C5_11  and  C6_12
REMARK    5  A    between atoms: N5_24  and  C14_25
ROOT
HETATM    1  C3  UNL     1      -3.648   2.901  12.326  1.00  0.00     0.681 A
HETATM    2  N2  UNL     1      -3.631   4.105  11.755  1.00  0.00    -0.175 N
ATOM      3  H2  UNL     1      -3.173   4.217  10.850  1.00  0.00     0.186 HD
HETATM    4  C4  UNL     1      -4.200   5.181  12.336  1.00  0.00     0.147 A
HETATM    5  N3  UNL     1      -4.176   6.344  11.771  1.00  0.00    -0.373 N
ATOM      6  H3  UNL     1      -3.710   6.416  10.867  1.00  0.00     0.161 HD
HETATM    7  C12 UNL     1      -4.805   5.007  13.550  1.00  0.00     0.124 A
HETATM    8  N4  UNL     1      -5.451   5.851  14.379  1.00  0.00    -0.326 N
ATOM      9  H4  UNL     1      -5.603   6.846  14.218  1.00  0.00     0.168 HD
HETATM   10  C13 UNL     1      -5.862   5.149  15.464  1.00  0.00     0.183 A
HETATM   11 CL1  UNL     1      -6.753   5.875  16.806  1.00  0.00    -0.044 Cl
HETATM   12  N5  UNL     1      -5.474   3.878  15.308  1.00  0.00    -0.307 N
HETATM   13  C16 UNL     1      -4.830   3.767  14.151  1.00  0.00     0.156 A
HETATM   14  N6  UNL     1      -4.243   2.728  13.518  1.00  0.00    -0.174 N
ATOM     15  H6  UNL     1      -4.253   1.804  13.949  1.00  0.00     0.186 HD
ENDROOT
BRANCH   5  16
HETATM   16  C5  UNL     1      -4.752   7.541  12.312  1.00  0.00     0.126 C
BRANCH  16  17
HETATM   17  C6  UNL     1      -5.196   8.384  11.106  1.00  0.00     0.005 C
HETATM   18  C7  UNL     1      -6.523   8.983  11.472  1.00  0.00     0.008 C
HETATM   19  C8  UNL     1      -7.247   9.616  10.339  1.00  0.00     0.027 C
HETATM   20  C9  UNL     1      -6.542   9.528   9.024  1.00  0.00     0.167 C
HETATM   21  O1  UNL     1      -5.413  10.293   8.925  1.00  0.00    -0.391 OA
HETATM   22  C10 UNL     1      -4.852  10.659  10.125  1.00  0.00     0.168 C
HETATM   23  C11 UNL     1      -4.225   9.513  10.867  1.00  0.00     0.032 C
ENDBRANCH  16  17
ENDBRANCH   5  16
BRANCH   1  24
HETATM   24  N1  UNL     1      -3.106   1.854  11.780  1.00  0.00    -0.226 N
ATOM     25  H1  UNL     1      -2.096   1.856  11.635  1.00  0.00     0.177 HD
BRANCH  24  26
HETATM   26  C2  UNL     1      -3.846   0.696  11.369  1.00  0.00     0.133 C
HETATM   27  C1  UNL     1      -2.884  -0.472  11.259  1.00  0.00     0.027 C
ENDBRANCH  24  26
ENDBRANCH   1  24
BRANCH  12  28
HETATM   28  C14 UNL     1      -5.714   2.801  16.239  1.00  0.00     0.129 C
HETATM   29  C15 UNL     1      -7.164   2.802  16.704  1.00  0.00     0.027 C
ENDBRANCH  12  28
TORSDOF 5
ENDMDL