MODEL 1
REMARK VINA RESULT: -7.489981533      0.000      0.000
REMARK  5 active torsions:
REMARK  status: ('A' for Active; 'I' for Inactive)
REMARK    1  A    between atoms: C1_2  and  O2_3
REMARK    2  A    between atoms: C1_2  and  C13_21
REMARK    3  A    between atoms: O2_3  and  C2_4
REMARK    4  A    between atoms: C2_4  and  N1_5
REMARK    5  A    between atoms: N1_5  and  C3_8
REMARK       I    between atoms: C13_21  and  N3_23
ROOT
HETATM    1  N1  UNL     1      -3.175   3.145  12.833  1.00  0.00    -0.048 N
ATOM      2  H11 UNL     1      -2.484   2.517  12.421  1.00  0.00     0.280 HD
ATOM      3  H12 UNL     1      -2.756   3.225  13.760  1.00  0.00     0.280 HD
ENDROOT
BRANCH   1   4
HETATM    4  C2  UNL     1      -4.531   2.550  12.870  1.00  0.00     0.411 C
BRANCH   4   5
HETATM    5  O2  UNL     1      -4.709   1.938  14.057  1.00  0.00    -0.286 OA
BRANCH   5   6
HETATM    6  C1  UNL     1      -4.567   2.093  15.365  1.00  0.00     0.353 C
HETATM    7  O1  UNL     1      -3.474   1.722  15.875  1.00  0.00    -0.254 OA
BRANCH   6   8
HETATM    8  C13 UNL     1      -5.651   2.676  16.144  1.00  0.00     0.319 C
HETATM    9  O3  UNL     1      -6.350   1.872  16.873  1.00  0.00    -0.262 OA
HETATM   10  N3  UNL     1      -6.035   4.016  16.211  1.00  0.00    -0.344 N
HETATM   11  C14 UNL     1      -5.553   5.139  15.461  1.00  0.00     0.126 C
HETATM   12  C17 UNL     1      -7.093   4.461  17.146  1.00  0.00     0.126 C
HETATM   13  C15 UNL     1      -6.552   6.271  15.684  1.00  0.00     0.021 C
HETATM   14  C16 UNL     1      -7.200   5.931  17.010  1.00  0.00     0.021 C
ENDBRANCH   6   8
ENDBRANCH   5   6
ENDBRANCH   4   5
ENDBRANCH   1   4
BRANCH   1  15
HETATM   15  C3  UNL     1      -3.247   4.381  12.165  1.00  0.00     0.211 C
HETATM   16  C4  UNL     1      -3.667   5.571  12.911  1.00  0.00     0.020 C
HETATM   17  C5  UNL     1      -2.553   6.318  13.573  1.00  0.00     0.013 C
HETATM   18  C9  UNL     1      -4.244   6.544  11.858  1.00  0.00     0.031 C
HETATM   19  C6  UNL     1      -1.371   6.583  12.684  1.00  0.00     0.005 C
HETATM   20  C7  UNL     1      -1.433   7.813  11.858  1.00  0.00     0.118 C
HETATM   21  C12 UNL     1      -0.959   5.333  11.932  1.00  0.00     0.029 C
HETATM   22  N2  UNL     1      -2.474   7.955  10.917  1.00  0.00    -0.417 N
HETATM   23  C8  UNL     1      -3.305   6.795  10.716  1.00  0.00     0.078 C
ATOM     24  H2  UNL     1      -2.630   8.826  10.410  1.00  0.00     0.153 HD
HETATM   25  C10 UNL     1      -2.575   5.627  10.162  1.00  0.00     0.048 C
HETATM   26  C11 UNL     1      -2.095   4.665  11.257  1.00  0.00     0.049 C
HETATM   27 BR1  UNL     1      -1.523   3.020  10.463  1.00  0.00    -0.083 Br
ENDBRANCH   1  15
TORSDOF 5
ENDMDL