MODEL 2
REMARK VINA RESULT: -8.050682299      0.789      1.019
REMARK  4 active torsions:
REMARK  status: ('A' for Active; 'I' for Inactive)
REMARK    1  A    between atoms: N1_3  and  C3_4
REMARK    2  A    between atoms: C3_4  and  C4_5
REMARK    3  A    between atoms: C4_5  and  N2_6
REMARK       I    between atoms: N4_19  and  C14_20
REMARK       I    between atoms: C14_20  and  N5_22
REMARK    4  A    between atoms: N5_22  and  C15_24
ROOT
HETATM    1  C1  UNL     1      -3.199   6.835   9.210  1.00  0.00     0.041 C
HETATM    2  C2  UNL     1      -2.312   6.047   9.773  1.00  0.00     0.035 C
HETATM    3  N1  UNL     1      -0.917   6.119   9.594  1.00  0.00    -0.381 N
HETATM    4  C10 UNL     1      -0.336   4.850   9.969  1.00  0.00     0.126 C
HETATM    5  C11 UNL     1      -1.467   3.977  10.430  1.00  0.00     0.067 C
HETATM    6  C12 UNL     1      -2.580   4.926  10.719  1.00  0.00     0.131 C
HETATM    7  C13 UNL     1      -2.637   5.397  12.127  1.00  0.00     0.184 C
HETATM    8  N4  UNL     1      -3.676   4.568  12.752  1.00  0.00    -0.242 N
HETATM    9  C14 UNL     1      -3.962   4.595  14.153  1.00  0.00     0.327 C
HETATM   10  O1  UNL     1      -3.314   5.333  14.942  1.00  0.00    -0.247 OA
HETATM   11  N5  UNL     1      -4.987   3.794  14.696  1.00  0.00    -0.338 N
ATOM     12  H5  UNL     1      -5.527   3.185  14.082  1.00  0.00     0.164 HD
HETATM   13  C20 UNL     1      -4.248   3.818  11.706  1.00  0.00     0.372 C
HETATM   14  O2  UNL     1      -4.994   2.816  11.859  1.00  0.00    -0.238 OA
HETATM   15  O3  UNL     1      -3.855   4.367  10.478  1.00  0.00    -0.284 OA
ENDROOT
BRANCH   3  16
HETATM   16  C3  UNL     1      -0.112   7.235   9.111  1.00  0.00     0.142 C
BRANCH  16  17
HETATM   17  C4  UNL     1       0.586   7.787  10.330  1.00  0.00     0.140 C
BRANCH  17  18
HETATM   18  N2  UNL     1      -0.302   8.190  11.370  1.00  0.00    -0.378 N
HETATM   19  C5  UNL     1      -0.123   9.116  12.221  1.00  0.00     0.072 C
HETATM   20  C6  UNL     1       0.068  10.108  13.131  1.00  0.00     0.076 C
HETATM   21  N3  UNL     1      -1.651   8.657  12.917  1.00  0.00    -0.380 N
HETATM   22  C7  UNL     1      -1.098  11.109  13.232  1.00  0.00     0.009 C
HETATM   23  C8  UNL     1      -1.914  10.534  14.415  1.00  0.00     0.020 C
HETATM   24  C9  UNL     1      -1.812   8.998  14.233  1.00  0.00     0.121 C
ATOM     25  H3  UNL     1      -2.372   8.170  12.384  1.00  0.00     0.160 HD
ATOM     26  H2  UNL     1      -1.181   7.676  11.439  1.00  0.00     0.160 HD
ENDBRANCH  17  18
ENDBRANCH  16  17
ENDBRANCH   3  16
BRANCH  11  27
HETATM   27  C15 UNL     1      -5.291   3.823  16.136  1.00  0.00     0.086 C
HETATM   28  C16 UNL     1      -6.738   4.238  16.259  1.00  0.00     0.025 C
HETATM   29  C17 UNL     1      -7.463   3.099  16.922  1.00  0.00     0.002 C
HETATM   30  C18 UNL     1      -6.384   2.327  17.612  1.00  0.00     0.002 C
HETATM   31  C19 UNL     1      -5.197   2.424  16.660  1.00  0.00     0.025 C
ENDBRANCH  11  27
TORSDOF 4
ENDMDL