MODEL 2
REMARK VINA RESULT: -7.641633825      1.519      1.668
REMARK  5 active torsions:
REMARK  status: ('A' for Active; 'I' for Inactive)
REMARK    1  A    between atoms: C2_3  and  C3_4
REMARK    2  A    between atoms: C3_4  and  N1_5
REMARK    3  A    between atoms: C6_8  and  N2_9
REMARK    4  A    between atoms: N2_9  and  C7_11
REMARK    5  A    between atoms: N4_17  and  C11_19
ROOT
HETATM    1  C7  UNL     1      -1.733   6.703  13.405  1.00  0.00     0.679 A
HETATM    2  N3  UNL     1      -2.537   7.780  13.297  1.00  0.00    -0.202 N
ATOM      3  H3  UNL     1      -2.248   8.602  12.766  1.00  0.00     0.183 HD
HETATM    4  C8  UNL     1      -3.721   7.736  13.906  1.00  0.00     0.110 A
HETATM    5  C9  UNL     1      -4.164   6.632  14.646  1.00  0.00     0.066 A
HETATM    6  C10 UNL     1      -3.322   5.544  14.740  1.00  0.00     0.118 A
HETATM    7  N4  UNL     1      -3.601   4.510  15.366  1.00  0.00    -0.369 N
ATOM      8  H4  UNL     1      -2.817   3.863  15.281  1.00  0.00     0.161 HD
HETATM    9  N5  UNL     1      -2.113   5.630  14.098  1.00  0.00    -0.177 N
ATOM     10  H5  UNL     1      -1.475   4.836  14.154  1.00  0.00     0.185 HD
ENDROOT
BRANCH   1  11
HETATM   11  N2  UNL     1      -0.583   6.736  12.817  1.00  0.00    -0.221 N
ATOM     12  H2  UNL     1       0.239   6.927  13.391  1.00  0.00     0.178 HD
BRANCH  11  13
HETATM   13  C6  UNL     1      -0.384   6.525  11.429  1.00  0.00     0.102 C
HETATM   14  C5  UNL     1       1.099   6.603  11.047  1.00  0.00     0.056 C
HETATM   15  C4  UNL     1       1.201   6.591   9.564  1.00  0.00     0.275 C
HETATM   16  N1  UNL     1       0.526   5.492   8.962  1.00  0.00     0.091 N
HETATM   17  C17 UNL     1      -0.799   5.225   9.438  1.00  0.00     0.275 C
HETATM   18  C16 UNL     1      -0.812   5.135  10.946  1.00  0.00     0.056 C
BRANCH  16  19
HETATM   19  C3  UNL     1       0.612   5.486   7.519  1.00  0.00     0.300 C
BRANCH  19  20
HETATM   20  C2  UNL     1       1.952   5.872   7.029  1.00  0.00     0.010 C
HETATM   21  C1  UNL     1       2.717   5.025   6.348  1.00  0.00     0.053 C
HETATM   22 BR1  UNL     1       4.452   5.517   5.711  1.00  0.00    -0.064 Br
ENDBRANCH  19  20
ENDBRANCH  16  19
ENDBRANCH  11  13
ENDBRANCH   1  11
BRANCH   7  23
HETATM   23  C11 UNL     1      -4.574   3.910  16.132  1.00  0.00     0.107 C
HETATM   24  C12 UNL     1      -6.010   4.267  15.907  1.00  0.00     0.029 C
HETATM   25  C13 UNL     1      -6.777   3.760  17.136  1.00  0.00     0.028 C
HETATM   26  C14 UNL     1      -6.141   2.424  17.493  1.00  0.00     0.167 C
HETATM   27  O1  UNL     1      -5.675   1.819  16.333  1.00  0.00    -0.389 OA
HETATM   28  C15 UNL     1      -4.488   2.380  15.907  1.00  0.00     0.192 C
ENDBRANCH   7  23
TORSDOF 5
ENDMDL