MODEL 5
REMARK VINA RESULT: -6.479063105      3.219      5.017
REMARK  7 active torsions:
REMARK  status: ('A' for Active; 'I' for Inactive)
REMARK    1  A    between atoms: C2_2  and  N1_3
REMARK    2  A    between atoms: C2_2  and  C3_7
REMARK    3  A    between atoms: C3_7  and  O1_8
REMARK    4  A    between atoms: C3_7  and  N2_10
REMARK    5  A    between atoms: C8_15  and  C9_16
REMARK    6  A    between atoms: C9_16  and  C10_17
REMARK    7  A    between atoms: C10_17  and  C11_18
ROOT
HETATM    1  C10 UNL     1      -1.622   5.177  11.104  1.00  0.00     0.019 C
HETATM    2  C12 UNL     1      -1.298   4.234  10.060  1.00  0.00     0.018 C
HETATM    3  C13 UNL     1      -0.595   5.120   9.009  1.00  0.00     0.011 C
HETATM    4  C14 UNL     1       0.184   6.084   9.842  1.00  0.00    -0.030 C
HETATM    5  C15 UNL     1       1.666   5.691   9.905  1.00  0.00     0.054 C
HETATM    6  C16 UNL     1       2.315   5.725   8.573  1.00  0.00     0.063 C
HETATM    7  N5  UNL     1       1.985   6.793   7.726  1.00  0.00    -0.378 N
HETATM    8  C17 UNL     1       3.049   7.598   7.244  1.00  0.00     0.154 C
HETATM    9  C18 UNL     1       0.726   7.397   7.861  1.00  0.00     0.063 C
HETATM   10  C19 UNL     1       0.176   7.489   9.248  1.00  0.00     0.054 C
HETATM   11  C20 UNL     1      -0.371   6.065  11.224  1.00  0.00     0.027 C
ENDROOT
BRANCH   1  12
HETATM   12  C9  UNL     1      -2.067   4.750  12.464  1.00  0.00     0.042 C
BRANCH  12  13
HETATM   13  C8  UNL     1      -3.266   5.313  13.058  1.00  0.00     0.087 C
HETATM   14  N2  UNL     1      -4.391   4.372  13.207  1.00  0.00    -0.359 N
HETATM   15  C4  UNL     1      -5.623   5.090  13.582  1.00  0.00     0.125 C
HETATM   16  C5  UNL     1      -5.437   5.497  14.998  1.00  0.00     0.020 C
HETATM   17  C6  UNL     1      -4.030   5.214  15.486  1.00  0.00     0.004 C
HETATM   18  C7  UNL     1      -2.968   5.693  14.525  1.00  0.00     0.025 C
BRANCH  14  19
HETATM   19  C3  UNL     1      -4.394   3.008  13.064  1.00  0.00     0.144 C
BRANCH  19  20
HETATM   20  C2  UNL     1      -4.639   2.202  11.868  1.00  0.00     0.253 C
HETATM   21  C1  UNL     1      -3.359   1.414  11.509  1.00  0.00     0.049 C
BRANCH  20  22
HETATM   22  N1  UNL     1      -5.087   2.949  10.763  1.00  0.00    -0.068 N
ATOM     23  H13 UNL     1      -5.216   3.933  10.999  1.00  0.00     0.275 HD
ATOM     24  H12 UNL     1      -4.357   3.057  10.058  1.00  0.00     0.275 HD
ATOM     25  H11 UNL     1      -5.935   2.539  10.372  1.00  0.00     0.275 HD
ENDBRANCH  20  22
ENDBRANCH  19  20
BRANCH  19  26
HETATM   26  O1  UNL     1      -4.146   2.283  14.123  1.00  0.00    -0.348 OA
ATOM     27  H1  UNL     1      -3.252   1.965  14.151  1.00  0.00     0.219 HD
ENDBRANCH  19  26
ENDBRANCH  14  19
ENDBRANCH  12  13
ENDBRANCH   1  12
BRANCH   1  28
HETATM   28  C11 UNL     1      -2.716   6.085  10.602  1.00  0.00     0.112 C
HETATM   29  N3  UNL     1      -3.713   5.526   9.779  1.00  0.00    -0.086 NA
HETATM   30  N4  UNL     1      -2.745   7.319  10.894  1.00  0.00    -0.289 N
HETATM   31 CL1  UNL     1      -4.024   8.316  10.290  1.00  0.00     0.011 Cl
ATOM     32  H4  UNL     1      -2.017   7.723  11.484  1.00  0.00     0.181 HD
ENDBRANCH   1  28
TORSDOF 7
ENDMDL