MODEL 1
REMARK VINA RESULT: -7.595974928      0.000      0.000
REMARK  6 active torsions:
REMARK  status: ('A' for Active; 'I' for Inactive)
REMARK    1  A    between atoms: C2_2  and  C3_3
REMARK    2  A    between atoms: C3_3  and  C4_4
REMARK    3  A    between atoms: C4_4  and  N1_5
REMARK    4  A    between atoms: C4_4  and  C5_9
REMARK    5  A    between atoms: C5_9  and  C6_10
REMARK       I    between atoms: C6_10  and  N2_12
REMARK       I    between atoms: N3_23  and  C15_24
REMARK       I    between atoms: C15_24  and  N4_26
REMARK    6  A    between atoms: N4_26  and  C16_28
ROOT
HETATM    1  C6  UNL     1      -4.784   4.363  12.880  1.00  0.00     0.221 C
HETATM    2  O1  UNL     1      -5.638   4.412  13.787  1.00  0.00    -0.273 OA
HETATM    3  N2  UNL     1      -3.862   5.405  12.738  1.00  0.00    -0.347 N
HETATM    4  C7  UNL     1      -2.866   5.368  11.699  1.00  0.00     0.126 C
HETATM    5  C8  UNL     1      -1.571   5.759  12.393  1.00  0.00     0.025 C
HETATM    6  C9  UNL     1      -1.670   7.214  12.753  1.00  0.00     0.065 C
HETATM    7  C10 UNL     1      -3.002   7.677  13.275  1.00  0.00     0.158 C
HETATM    8  C11 UNL     1      -3.861   6.523  13.635  1.00  0.00     0.187 C
HETATM    9  O2  UNL     1      -2.740   8.332  14.499  1.00  0.00    -0.359 OA
HETATM   10  C12 UNL     1      -1.810   9.302  14.474  1.00  0.00     0.175 C
HETATM   11  C13 UNL     1      -1.623  10.043  13.206  1.00  0.00     0.085 C
HETATM   12  C14 UNL     1      -2.741   9.884  12.219  1.00  0.00     0.280 C
HETATM   13  F1  UNL     1      -2.274   9.943  10.918  1.00  0.00    -0.227 F
HETATM   14  N3  UNL     1      -3.572   8.706  12.451  1.00  0.00    -0.268 N
HETATM   15  C15 UNL     1      -4.842   8.664  11.860  1.00  0.00     0.323 C
HETATM   16  O3  UNL     1      -5.667   7.691  11.999  1.00  0.00    -0.247 OA
HETATM   17  N4  UNL     1      -5.298   9.741  11.045  1.00  0.00    -0.335 N
ATOM     18  H4  UNL     1      -4.675  10.537  10.905  1.00  0.00     0.165 HD
ENDROOT
BRANCH   1  19
HETATM   19  C5  UNL     1      -4.761   3.206  11.970  1.00  0.00     0.135 C
BRANCH  19  20
HETATM   20  C4  UNL     1      -3.968   2.046  12.452  1.00  0.00     0.192 C
BRANCH  20  21
HETATM   21  C3  UNL     1      -4.277   0.729  11.821  1.00  0.00     0.033 C
BRANCH  21  22
HETATM   22  C2  UNL     1      -2.978   0.087  11.320  1.00  0.00    -0.002 C
HETATM   23  C1  UNL     1      -3.073  -1.409  11.371  1.00  0.00     0.005 C
ENDBRANCH  21  22
ENDBRANCH  20  21
BRANCH  20  24
HETATM   24  N1  UNL     1      -4.198   1.867  13.896  1.00  0.00    -0.075 N
ATOM     25  H13 UNL     1      -3.679   2.527  14.476  1.00  0.00     0.274 HD
ATOM     26  H12 UNL     1      -5.132   2.147  14.196  1.00  0.00     0.274 HD
ATOM     27  H11 UNL     1      -3.981   0.891  14.096  1.00  0.00     0.274 HD
ENDBRANCH  20  24
ENDBRANCH  19  20
ENDBRANCH   1  19
BRANCH  17  28
HETATM   28  C16 UNL     1      -6.593   9.767  10.407  1.00  0.00     0.023 C
HETATM   29  C17 UNL     1      -6.822  11.071   9.670  1.00  0.00     0.037 C
HETATM   30  C18 UNL     1      -7.670   9.726  11.491  1.00  0.00     0.037 C
HETATM   31  C19 UNL     1      -6.797   8.656   9.432  1.00  0.00     0.037 C
ENDBRANCH  17  28
TORSDOF 6
ENDMDL