MODEL 1
REMARK VINA RESULT: -8.599703529      0.000      0.000
REMARK  5 active torsions:
REMARK  status: ('A' for Active; 'I' for Inactive)
REMARK       I    between atoms: N1_2  and  C2_4
REMARK    1  A    between atoms: C2_4  and  C3_6
REMARK    2  A    between atoms: C9_12  and  O2_13
REMARK    3  A    between atoms: O2_13  and  C10_14
REMARK    4  A    between atoms: C10_14  and  C11_16
REMARK    5  A    between atoms: C14_19  and  C15_20
ROOT
HETATM    1  C3  UNL     1      -0.247   6.243  10.846  1.00  0.00     0.059 C
HETATM    2  C4  UNL     1      -0.965   6.707   9.608  1.00  0.00     0.025 C
HETATM    3  C5  UNL     1      -2.359   7.133   9.927  1.00  0.00    -0.012 C
HETATM    4  C6  UNL     1      -2.318   8.299  10.891  1.00  0.00     0.012 C
HETATM    5  C7  UNL     1      -1.626   7.837  12.154  1.00  0.00     0.017 C
HETATM    6  C8  UNL     1      -0.224   7.445  11.807  1.00  0.00     0.028 C
HETATM    7  C9  UNL     1      -2.384   6.688  12.790  1.00  0.00     0.141 C
HETATM    8  C18 UNL     1      -2.404   5.561  11.809  1.00  0.00     0.036 C
HETATM    9  C19 UNL     1      -3.088   5.946  10.520  1.00  0.00     0.013 C
HETATM   10  C20 UNL     1      -0.949   5.145  11.569  1.00  0.00     0.106 C
HETATM   11 CL1  UNL     1      -0.880   3.583  10.744  1.00  0.00    -0.123 Cl
ENDROOT
BRANCH   7  12
HETATM   12  O2  UNL     1      -3.663   7.132  13.158  1.00  0.00    -0.315 OA
BRANCH  12  13
HETATM   13  C10 UNL     1      -4.268   6.740  14.348  1.00  0.00     0.263 C
HETATM   14  O3  UNL     1      -4.383   7.618  15.239  1.00  0.00    -0.265 OA
BRANCH  13  15
HETATM   15  C11 UNL     1      -4.764   5.364  14.589  1.00  0.00     0.085 C
HETATM   16  C12 UNL     1      -3.887   4.715  15.608  1.00  0.00     0.015 C
HETATM   17  C13 UNL     1      -4.558   3.416  16.007  1.00  0.00     0.014 C
HETATM   18  C14 UNL     1      -5.735   3.794  16.878  1.00  0.00     0.075 C
HETATM   19  C16 UNL     1      -6.543   4.921  16.323  1.00  0.00     0.014 C
HETATM   20  C17 UNL     1      -6.222   5.331  14.933  1.00  0.00     0.015 C
BRANCH  18  21
HETATM   21  C15 UNL     1      -6.544   2.565  17.065  1.00  0.00     0.235 C
HETATM   22  N2  UNL     1      -5.932   1.303  17.383  1.00  0.00    -0.062 NA
HETATM   23  O4  UNL     1      -7.787   2.621  16.943  1.00  0.00    -0.277 OA
ENDBRANCH  18  21
ENDBRANCH  13  15
ENDBRANCH  12  13
ENDBRANCH   7  12
BRANCH   1  24
HETATM   24  C2  UNL     1       1.133   5.909  10.483  1.00  0.00     0.227 C
HETATM   25  N1  UNL     1       1.503   5.699   9.133  1.00  0.00    -0.365 N
HETATM   26  C1  UNL     1       2.887   5.360   8.769  1.00  0.00     0.149 C
ATOM     27  H1  UNL     1       0.799   5.784   8.400  1.00  0.00     0.161 HD
HETATM   28  O1  UNL     1       2.038   5.795  11.361  1.00  0.00    -0.273 OA
ENDBRANCH   1  24
TORSDOF 5
ENDMDL