MODEL 2
REMARK VINA RESULT: -8.219346346      0.915      1.667
REMARK  4 active torsions:
REMARK  status: ('A' for Active; 'I' for Inactive)
REMARK    1  A    between atoms: C10_11  and  C11_12
REMARK    2  A    between atoms: C11_12  and  N1_13
REMARK       I    between atoms: N1_13  and  C12_15
REMARK    3  A    between atoms: C12_15  and  C13_17
REMARK    4  A    between atoms: C15_21  and  C16_22
ROOT
HETATM    1  N1  UNL     1      -4.137   7.590  11.222  1.00  0.00    -0.359 N
ATOM      2  H1  UNL     1      -3.418   7.367  10.534  1.00  0.00     0.162 HD
HETATM    3  C12 UNL     1      -4.599   6.601  12.127  1.00  0.00     0.233 C
HETATM    4  O1  UNL     1      -5.499   6.872  12.990  1.00  0.00    -0.273 OA
ENDROOT
BRANCH   1   5
HETATM    5  C11 UNL     1      -4.689   8.895  11.290  1.00  0.00     0.135 C
BRANCH   5   6
HETATM    6  C10 UNL     1      -5.588   9.320  10.187  1.00  0.00     0.013 C
HETATM    7  C2  UNL     1      -6.159  10.690  10.305  1.00  0.00     0.112 C
HETATM    8  C1  UNL     1      -5.068  11.721  10.522  1.00  0.00     0.053 C
HETATM    9  F1  UNL     1      -7.057  10.823  11.318  1.00  0.00    -0.242 F
HETATM   10  C3  UNL     1      -6.884  11.070   9.032  1.00  0.00     0.026 C
HETATM   11  C4  UNL     1      -8.066  10.108   8.920  1.00  0.00     0.012 C
HETATM   12  C8  UNL     1      -6.023  11.030   7.812  1.00  0.00     0.012 C
HETATM   13  C5  UNL     1      -7.507   8.719   8.749  1.00  0.00    -0.013 C
HETATM   14  C6  UNL     1      -6.665   8.685   7.499  1.00  0.00     0.009 C
HETATM   15  C19 UNL     1      -6.744   8.345   9.981  1.00  0.00     0.019 C
HETATM   16  C7  UNL     1      -5.505   9.611   7.682  1.00  0.00    -0.013 C
HETATM   17  C9  UNL     1      -4.752   9.216   8.904  1.00  0.00     0.019 C
ENDBRANCH   5   6
ENDBRANCH   1   5
BRANCH   3  18
HETATM   18  C13 UNL     1      -4.041   5.251  12.071  1.00  0.00     0.203 C
HETATM   19  C14 UNL     1      -5.119   4.216  12.066  1.00  0.00     0.237 C
HETATM   20  O2  UNL     1      -5.868   3.725  11.214  1.00  0.00    -0.272 OA
HETATM   21  N2  UNL     1      -4.972   3.976  13.482  1.00  0.00    -0.321 N
HETATM   22  C15 UNL     1      -5.226   3.581  14.828  1.00  0.00     0.198 C
HETATM   23  C18 UNL     1      -3.650   4.576  13.332  1.00  0.00     0.172 C
HETATM   24  C17 UNL     1      -4.985   4.767  15.739  1.00  0.00     0.112 C
HETATM   25  S1  UNL     1      -3.614   5.599  14.839  1.00  0.00    -0.140 SA
BRANCH  22  26
HETATM   26  C16 UNL     1      -4.475   2.381  15.216  1.00  0.00     0.197 C
HETATM   27  O3  UNL     1      -4.609   1.282  14.633  1.00  0.00    -0.646 OA
HETATM   28  O4  UNL     1      -3.584   2.459  16.268  1.00  0.00    -0.646 OA
ENDBRANCH  22  26
ENDBRANCH   3  18
TORSDOF 4
ENDMDL