MODEL 5
REMARK VINA RESULT: -6.780991403      2.369      4.009
REMARK  6 active torsions:
REMARK  status: ('A' for Active; 'I' for Inactive)
REMARK    1  A    between atoms: C5_5  and  O1_6
REMARK       I    between atoms: N1_18  and  C15_19
REMARK    2  A    between atoms: C15_19  and  C16_21
REMARK    3  A    between atoms: C16_21  and  C17_22
REMARK    4  A    between atoms: C17_22  and  N2_23
REMARK    5  A    between atoms: C21_27  and  C22_28
REMARK    6  A    between atoms: C22_28  and  O3_29
ROOT
HETATM    1  C1  UNL     1      -1.980   6.608   7.332  1.00  0.00     0.020 C
HETATM    2  C2  UNL     1      -1.890   6.545   8.634  1.00  0.00    -0.051 C
HETATM    3  C3  UNL     1      -1.750   5.563   9.712  1.00  0.00    -0.025 C
HETATM    4  C4  UNL     1      -1.168   4.413   9.793  1.00  0.00     0.022 C
HETATM    5  C5  UNL     1      -2.555   6.534  10.541  1.00  0.00     0.114 C
HETATM    6  C6  UNL     1      -1.891   7.567   9.719  1.00  0.00     0.060 C
HETATM    7  C7  UNL     1      -0.479   7.820  10.152  1.00  0.00     0.016 C
HETATM    8  C8  UNL     1      -0.559   8.990  11.120  1.00  0.00     0.045 C
HETATM    9  C9  UNL     1      -0.740   8.420  12.485  1.00  0.00     0.115 C
HETATM   10  F1  UNL     1       0.474   7.912  12.878  1.00  0.00    -0.242 F
HETATM   11  C10 UNL     1      -1.040   9.623  13.408  1.00  0.00     0.045 C
HETATM   12  C11 UNL     1      -2.539   9.587  13.637  1.00  0.00     0.011 C
HETATM   13  C12 UNL     1      -3.015   8.563  12.697  1.00  0.00     0.024 C
HETATM   14  C13 UNL     1      -4.119   7.667  13.073  1.00  0.00     0.088 C
HETATM   15  C14 UNL     1      -5.390   8.067  12.330  1.00  0.00     0.033 C
HETATM   16  N1  UNL     1      -3.669   6.332  12.628  1.00  0.00    -0.338 N
HETATM   17  C15 UNL     1      -4.442   5.178  12.851  1.00  0.00     0.222 C
HETATM   18  O2  UNL     1      -5.572   5.216  13.442  1.00  0.00    -0.273 OA
HETATM   19  C20 UNL     1      -2.362   6.487  11.974  1.00  0.00     0.141 C
HETATM   20  C21 UNL     1      -1.832   7.569  12.772  1.00  0.00     0.046 C
ENDROOT
BRANCH  17  21
HETATM   21  C16 UNL     1      -3.989   3.856  12.412  1.00  0.00     0.133 C
BRANCH  21  22
HETATM   22  C17 UNL     1      -4.884   3.244  11.358  1.00  0.00     0.280 C
BRANCH  22  23
HETATM   23  N2  UNL     1      -4.618   1.818  11.353  1.00  0.00     0.080 N
HETATM   24  C18 UNL     1      -4.196   1.312  12.622  1.00  0.00     0.309 C
HETATM   25  C19 UNL     1      -3.761   1.401  10.287  1.00  0.00     0.309 C
ENDBRANCH  22  23
ENDBRANCH  21  22
ENDBRANCH  17  21
BRANCH   5  26
HETATM   26  O1  UNL     1      -3.900   6.404  10.115  1.00  0.00    -0.382 OA
ATOM     27  H1  UNL     1      -4.428   6.357  10.904  1.00  0.00     0.211 HD
ENDBRANCH   5  26
BRANCH  20  28
HETATM   28  C22 UNL     1      -1.711   7.048  14.191  1.00  0.00     0.179 C
BRANCH  28  29
HETATM   29  O3  UNL     1      -1.139   5.782  14.121  1.00  0.00    -0.400 OA
ATOM     30  H3  UNL     1      -1.687   5.195  14.628  1.00  0.00     0.209 HD
ENDBRANCH  28  29
ENDBRANCH  20  28
TORSDOF 6
ENDMDL