MODEL 4
REMARK VINA RESULT: -7.685865392      1.902      2.516
REMARK  5 active torsions:
REMARK  status: ('A' for Active; 'I' for Inactive)
REMARK    1  A    between atoms: C1_2  and  C2_4
REMARK    2  A    between atoms: C10_12  and  N2_13
REMARK       I    between atoms: N2_13  and  C11_15
REMARK    3  A    between atoms: C11_15  and  C12_17
REMARK    4  A    between atoms: C12_17  and  O3_18
REMARK    5  A    between atoms: O3_18  and  C13_19
REMARK       I    between atoms: C13_19  and  N3_21
ROOT
HETATM    1  N2  UNL     1      -3.129   3.577  11.575  1.00  0.00    -0.353 N
ATOM      2  H2  UNL     1      -2.925   3.796  12.549  1.00  0.00     0.163 HD
HETATM    3  C11 UNL     1      -3.814   2.359  11.278  1.00  0.00     0.242 C
HETATM    4  O2  UNL     1      -4.091   2.035  10.109  1.00  0.00    -0.271 OA
ENDROOT
BRANCH   1   5
HETATM    5  C10 UNL     1      -2.714   4.511  10.557  1.00  0.00     0.106 C
HETATM    6  C2  UNL     1      -3.009   5.910  10.985  1.00  0.00     0.060 C
HETATM    7  C3  UNL     1      -2.256   6.218  12.249  1.00  0.00     0.025 C
HETATM    8  C18 UNL     1      -2.598   6.936   9.954  1.00  0.00     0.025 C
HETATM    9  C4  UNL     1      -0.788   5.994  12.007  1.00  0.00    -0.013 C
HETATM   10  C5  UNL     1      -0.301   6.979  10.939  1.00  0.00     0.009 C
HETATM   11  C9  UNL     1      -0.463   4.621  11.504  1.00  0.00     0.011 C
HETATM   12  C6  UNL     1      -1.124   6.778   9.705  1.00  0.00    -0.013 C
HETATM   13  C7  UNL     1      -0.893   5.371   9.188  1.00  0.00     0.011 C
HETATM   14  C8  UNL     1      -1.224   4.366  10.249  1.00  0.00     0.010 C
BRANCH   6  15
HETATM   15  C1  UNL     1      -4.474   6.056  11.183  1.00  0.00     0.241 C
HETATM   16  N1  UNL     1      -4.967   7.188  11.881  1.00  0.00    -0.061 NA
HETATM   17  O1  UNL     1      -5.284   5.192  10.740  1.00  0.00    -0.276 OA
ENDBRANCH   6  15
ENDBRANCH   1   5
BRANCH   3  18
HETATM   18  C12 UNL     1      -4.186   1.492  12.406  1.00  0.00     0.283 C
BRANCH  18  19
HETATM   19  O3  UNL     1      -3.778   1.910  13.659  1.00  0.00    -0.295 OA
BRANCH  19  20
HETATM   20  C13 UNL     1      -4.533   2.067  14.787  1.00  0.00     0.363 C
HETATM   21  O4  UNL     1      -4.807   1.034  15.450  1.00  0.00    -0.238 OA
HETATM   22  N3  UNL     1      -5.030   3.326  15.257  1.00  0.00    -0.327 N
HETATM   23  C14 UNL     1      -4.753   4.559  14.544  1.00  0.00     0.129 C
HETATM   24  C17 UNL     1      -5.828   3.582  16.426  1.00  0.00     0.148 C
HETATM   25  C15 UNL     1      -5.856   5.489  15.050  1.00  0.00     0.041 C
HETATM   26  C16 UNL     1      -5.927   5.068  16.508  1.00  0.00     0.102 C
HETATM   27 CL1  UNL     1      -7.450   5.647  17.180  1.00  0.00    -0.123 Cl
ENDBRANCH  19  20
ENDBRANCH  18  19
ENDBRANCH   3  18
TORSDOF 5
ENDMDL