MODEL 3
REMARK VINA RESULT: -7.848689902      3.080      3.577
REMARK  6 active torsions:
REMARK  status: ('A' for Active; 'I' for Inactive)
REMARK    1  A    between atoms: O1_1  and  C1_3
REMARK    2  A    between atoms: C1_3  and  N1_4
REMARK    3  A    between atoms: C1_3  and  C7_14
REMARK       I    between atoms: N1_4  and  C2_6
REMARK       I    between atoms: C2_6  and  N2_8
REMARK    4  A    between atoms: C7_14  and  C8_15
REMARK    5  A    between atoms: C7_14  and  C15_25
REMARK       I    between atoms: C8_15  and  N3_17
REMARK    6  A    between atoms: N3_17  and  C9_19
ROOT
HETATM    1  C7  UNL     1      -2.916   6.437  13.057  1.00  0.00     0.158 C
ENDROOT
BRANCH   1   2
HETATM    2  C1  UNL     1      -2.621   5.702  14.319  1.00  0.00     0.133 C
BRANCH   2   3
HETATM    3  O1  UNL     1      -1.402   5.788  14.770  1.00  0.00    -0.349 OA
ATOM      4  H1  UNL     1      -0.810   5.099  14.494  1.00  0.00     0.219 HD
ENDBRANCH   2   3
BRANCH   2   5
HETATM    5  N1  UNL     1      -3.493   4.935  15.077  1.00  0.00    -0.292 N
HETATM    6  C2  UNL     1      -4.853   5.096  15.351  1.00  0.00     0.324 C
HETATM    7  O2  UNL     1      -5.515   6.058  14.913  1.00  0.00    -0.247 OA
HETATM    8  N2  UNL     1      -5.589   4.163  16.160  1.00  0.00    -0.330 N
HETATM    9  C3  UNL     1      -4.873   3.030  16.684  1.00  0.00     0.153 C
HETATM   10  C6  UNL     1      -6.984   4.355  16.436  1.00  0.00     0.153 C
HETATM   11  C4  UNL     1      -5.753   2.018  17.365  1.00  0.00     0.187 C
HETATM   12  O3  UNL     1      -6.983   1.990  16.665  1.00  0.00    -0.388 OA
HETATM   13  C5  UNL     1      -7.635   3.150  17.024  1.00  0.00     0.187 C
ATOM     14  H1  UNL     1      -3.069   4.114  15.509  1.00  0.00     0.172 HD
ENDBRANCH   2   5
ENDBRANCH   1   2
BRANCH   1  15
HETATM   15  C8  UNL     1      -2.862   7.898  13.199  1.00  0.00     0.230 C
HETATM   16  O4  UNL     1      -3.824   8.590  12.721  1.00  0.00    -0.273 OA
HETATM   17  N3  UNL     1      -1.817   8.593  13.828  1.00  0.00    -0.356 N
ATOM     18  H3  UNL     1      -1.032   8.074  14.221  1.00  0.00     0.162 HD
BRANCH  17  19
HETATM   19  C9  UNL     1      -1.841  10.067  13.930  1.00  0.00     0.084 C
HETATM   20  C10 UNL     1      -0.919  10.582  12.881  1.00  0.00     0.025 C
HETATM   21  C11 UNL     1      -0.616  12.048  12.992  1.00  0.00     0.002 C
HETATM   22  C12 UNL     1      -0.873  12.601  14.369  1.00  0.00     0.000 C
HETATM   23  C13 UNL     1      -0.550  11.595  15.451  1.00  0.00     0.002 C
HETATM   24  C14 UNL     1      -1.487  10.446  15.325  1.00  0.00     0.025 C
ENDBRANCH  17  19
ENDBRANCH   1  15
BRANCH   1  25
HETATM   25  C15 UNL     1      -1.847   5.970  12.060  1.00  0.00     0.025 C
HETATM   26  C16 UNL     1      -1.718   6.827  10.863  1.00  0.00     0.007 C
HETATM   27  C17 UNL     1      -1.627   5.928   9.658  1.00  0.00     0.002 C
HETATM   28  C18 UNL     1      -1.434   4.513  10.219  1.00  0.00     0.020 C
HETATM   29  C19 UNL     1      -2.139   4.583  11.570  1.00  0.00     0.087 C
HETATM   30 CL1  UNL     1      -3.890   4.353  11.243  1.00  0.00    -0.125 Cl
ENDBRANCH   1  25
TORSDOF 6
ENDMDL