MODEL 3
REMARK VINA RESULT: -7.109974416      1.918      4.701
REMARK  7 active torsions:
REMARK  status: ('A' for Active; 'I' for Inactive)
REMARK    1  A    between atoms: C2_2  and  O1_3
REMARK    2  A    between atoms: C2_2  and  C3_5
REMARK    3  A    between atoms: C3_5  and  C5_7
REMARK    4  A    between atoms: C5_7  and  N1_8
REMARK    5  A    between atoms: C8_11  and  O2_12
REMARK    6  A    between atoms: O2_12  and  C9_13
REMARK    7  A    between atoms: C9_13  and  C10_15
ROOT
HETATM    1  N1  UNL     1      -4.963   3.613  14.043  1.00  0.00     0.101 N
HETATM    2  C6  UNL     1      -4.676   3.469  15.425  1.00  0.00     0.229 C
HETATM    3  C7  UNL     1      -3.857   4.725  15.780  1.00  0.00     0.071 C
HETATM    4  C8  UNL     1      -3.955   5.590  14.560  1.00  0.00     0.167 C
HETATM    5  C13 UNL     1      -5.211   5.007  13.902  1.00  0.00     0.253 C
HETATM    6  C14 UNL     1      -6.386   5.502  14.689  1.00  0.00     0.039 C
HETATM    7  C15 UNL     1      -6.562   4.899  16.043  1.00  0.00     0.008 C
HETATM    8  C16 UNL     1      -6.036   3.510  16.123  1.00  0.00     0.015 C
HETATM    9  C17 UNL     1      -5.906   2.928  17.479  1.00  0.00     0.012 C
ENDROOT
BRANCH   1  10
HETATM   10  C5  UNL     1      -4.134   3.008  13.115  1.00  0.00     0.280 C
BRANCH  10  11
HETATM   11  C3  UNL     1      -4.755   2.226  11.999  1.00  0.00     0.038 C
HETATM   12  C4  UNL     1      -4.189   0.876  11.713  1.00  0.00     0.014 C
BRANCH  11  13
HETATM   13  C2  UNL     1      -4.480   3.069  10.726  1.00  0.00     0.119 C
HETATM   14  C1  UNL     1      -3.217   3.832  10.962  1.00  0.00     0.040 C
BRANCH  13  15
HETATM   15  O1  UNL     1      -5.573   3.964  10.666  1.00  0.00    -0.396 OA
ATOM     16  H1  UNL     1      -5.410   4.705  11.237  1.00  0.00     0.210 HD
ENDBRANCH  13  15
ENDBRANCH  11  13
ENDBRANCH  10  11
ENDBRANCH   1  10
BRANCH   4  17
HETATM   17  O2  UNL     1      -4.147   6.957  14.845  1.00  0.00    -0.313 OA
BRANCH  17  18
HETATM   18  C9  UNL     1      -3.601   7.945  14.038  1.00  0.00     0.263 C
HETATM   19  O3  UNL     1      -4.213   8.271  12.997  1.00  0.00    -0.265 OA
BRANCH  18  20
HETATM   20  C10 UNL     1      -2.319   8.569  14.445  1.00  0.00     0.085 A
HETATM   21  C11 UNL     1      -1.855   9.851  13.902  1.00  0.00     0.015 A
HETATM   22  C12 UNL     1      -2.509   9.926  15.220  1.00  0.00     0.015 A
ENDBRANCH  18  20
ENDBRANCH  17  18
ENDBRANCH   4  17
TORSDOF 7
ENDMDL