MODEL 3
REMARK VINA RESULT: -7.360712591      2.230      5.617
REMARK  4 active torsions:
REMARK  status: ('A' for Active; 'I' for Inactive)
REMARK    1  A    between atoms: C2_2  and  C3_3
REMARK    2  A    between atoms: C3_3  and  N1_4
REMARK       I    between atoms: N1_4  and  C4_6
REMARK    3  A    between atoms: C4_6  and  C5_8
REMARK    4  A    between atoms: C5_8  and  N2_9
ROOT
HETATM    1  C5  UNL     1      -4.293   5.160  13.996  1.00  0.00     0.116 C
HETATM    2  C12 UNL     1      -5.641   5.750  13.713  1.00  0.00     0.041 C
HETATM    3  C13 UNL     1      -6.508   6.133  14.828  1.00  0.00     0.003 C
HETATM    4  C14 UNL     1      -6.530   5.222  16.008  1.00  0.00     0.000 C
HETATM    5  C15 UNL     1      -5.243   4.517  16.269  1.00  0.00     0.003 C
HETATM    6  C16 UNL     1      -4.463   4.130  15.070  1.00  0.00     0.041 C
ENDROOT
BRANCH   1   7
HETATM    7  C4  UNL     1      -3.266   6.128  14.406  1.00  0.00     0.246 C
HETATM    8  N1  UNL     1      -3.273   7.516  14.266  1.00  0.00    -0.359 N
ATOM      9  H1  UNL     1      -4.070   7.976  13.827  1.00  0.00     0.162 HD
HETATM   10  O1  UNL     1      -2.221   5.632  14.969  1.00  0.00    -0.271 OA
BRANCH   8  11
HETATM   11  C3  UNL     1      -2.136   8.319  14.749  1.00  0.00     0.122 C
BRANCH  11  12
HETATM   12  C2  UNL     1      -2.630   9.699  15.165  1.00  0.00     0.015 C
HETATM   13  C1  UNL     1      -1.461  10.566  15.566  1.00  0.00     0.006 C
ENDBRANCH  11  12
ENDBRANCH   8  11
ENDBRANCH   1   7
BRANCH   1  14
HETATM   14  N2  UNL     1      -3.873   4.470  12.785  1.00  0.00    -0.350 N
HETATM   15  C6  UNL     1      -4.577   3.287  12.507  1.00  0.00     0.093 C
HETATM   16  C7  UNL     1      -5.121   3.035  11.163  1.00  0.00     0.254 C
HETATM   17  O2  UNL     1      -4.576   3.861  10.206  1.00  0.00    -0.235 OA
HETATM   18  O3  UNL     1      -3.293   3.509  10.088  1.00  0.00    -0.225 OA
HETATM   19  C8  UNL     1      -2.595   4.546  10.704  1.00  0.00     0.121 C
HETATM   20  C9  UNL     1      -2.205   5.538   9.632  1.00  0.00     0.055 C
HETATM   21  C10 UNL     1      -1.341   4.050  11.362  1.00  0.00     0.055 C
HETATM   22  C11 UNL     1      -3.458   5.267  11.720  1.00  0.00     0.105 C
ENDBRANCH   1  14
TORSDOF 4
ENDMDL