MODEL 5
REMARK VINA RESULT: -6.433284591      2.104      3.372
REMARK  5 active torsions:
REMARK  status: ('A' for Active; 'I' for Inactive)
REMARK    1  A    between atoms: N1_5  and  C5_6
REMARK    2  A    between atoms: C5_6  and  C6_7
REMARK    3  A    between atoms: C6_7  and  O1_8
REMARK    4  A    between atoms: O1_8  and  C7_9
REMARK    5  A    between atoms: C14_17  and  O3_18
ROOT
HETATM    1  C7  UNL     1      -3.359   5.611  12.075  1.00  0.00     0.131 C
HETATM    2  C8  UNL     1      -2.774   5.962  13.445  1.00  0.00     0.035 C
HETATM    3  C9  UNL     1      -1.570   6.842  13.152  1.00  0.00     0.044 C
HETATM    4  C10 UNL     1      -0.997   6.154  11.961  1.00  0.00     0.095 C
HETATM    5  O2  UNL     1      -0.813   4.809  12.176  1.00  0.00    -0.371 OA
HETATM    6  C11 UNL     1      -1.389   4.586  10.908  1.00  0.00     0.132 C
HETATM    7  C12 UNL     1      -0.296   4.746   9.890  1.00  0.00     0.035 C
HETATM    8  C13 UNL     1       0.665   5.853  10.211  1.00  0.00     0.037 C
HETATM    9  C14 UNL     1       0.116   6.823  11.240  1.00  0.00     0.153 C
HETATM   10  C15 UNL     1      -2.214   5.819  11.134  1.00  0.00     0.081 C
ENDROOT
BRANCH   1  11
HETATM   11  O1  UNL     1      -3.689   4.283  12.088  1.00  0.00    -0.384 OA
BRANCH  11  12
HETATM   12  C6  UNL     1      -4.846   3.968  12.763  1.00  0.00     0.198 C
BRANCH  12  13
HETATM   13  C5  UNL     1      -4.664   2.980  13.875  1.00  0.00     0.298 C
BRANCH  13  14
HETATM   14  N1  UNL     1      -4.995   3.624  15.124  1.00  0.00     0.090 N
HETATM   15  C4  UNL     1      -4.941   2.765  16.257  1.00  0.00     0.273 C
HETATM   16  C3  UNL     1      -6.297   2.474  16.857  1.00  0.00     0.034 C
HETATM   17  C2  UNL     1      -6.939   3.767  17.299  1.00  0.00    -0.015 C
HETATM   18  C1  UNL     1      -6.520   4.056  18.741  1.00  0.00     0.010 C
HETATM   19  C17 UNL     1      -6.504   4.925  16.444  1.00  0.00     0.034 C
HETATM   20  C16 UNL     1      -6.135   4.481  15.055  1.00  0.00     0.273 C
ENDBRANCH  13  14
ENDBRANCH  12  13
ENDBRANCH  11  12
ENDBRANCH   1  11
BRANCH   9  21
HETATM   21  O3  UNL     1       1.142   7.073  12.150  1.00  0.00    -0.393 OA
ATOM     22  H3  UNL     1       1.925   6.628  11.847  1.00  0.00     0.210 HD
ENDBRANCH   9  21
TORSDOF 5
ENDMDL