MODEL 5
REMARK VINA RESULT: -6.356504343      2.476      6.348
REMARK  6 active torsions:
REMARK  status: ('A' for Active; 'I' for Inactive)
REMARK    1  A    between atoms: N1_2  and  O1_3
REMARK    2  A    between atoms: N1_2  and  C2_5
REMARK       I    between atoms: N2_6  and  C3_8
REMARK    3  A    between atoms: C3_8  and  C4_10
REMARK    4  A    between atoms: C4_10  and  C5_11
REMARK    5  A    between atoms: C5_11  and  C6_12
REMARK    6  A    between atoms: N3_15  and  C9_16
ROOT
HETATM    1  C6  UNL     1      -4.040   3.490  12.258  1.00  0.00     0.123 C
HETATM    2  C7  UNL     1      -4.512   4.902  12.497  1.00  0.00     0.062 C
HETATM    3  C8  UNL     1      -3.917   5.924  11.586  1.00  0.00     0.275 C
HETATM    4  N3  UNL     1      -2.503   6.121  11.751  1.00  0.00     0.095 N
HETATM    5  C14 UNL     1      -1.707   5.241  10.979  1.00  0.00     0.299 C
HETATM    6  C15 UNL     1      -2.354   3.859  10.844  1.00  0.00     0.198 C
HETATM    7  O3  UNL     1      -2.641   3.434  12.145  1.00  0.00    -0.384 OA
ENDROOT
BRANCH   1   8
HETATM    8  C5  UNL     1      -4.465   2.685  13.453  1.00  0.00     0.041 C
BRANCH   8   9
HETATM    9  C4  UNL     1      -4.905   3.429  14.648  1.00  0.00     0.105 C
BRANCH   9  10
HETATM   10  C3  UNL     1      -4.490   2.818  15.906  1.00  0.00     0.222 C
HETATM   11  N2  UNL     1      -5.346   1.858  16.496  1.00  0.00    -0.322 N
HETATM   12  C2  UNL     1      -6.273   2.192  17.299  1.00  0.00     0.209 C
ATOM     13  H2  UNL     1      -5.216   0.872  16.271  1.00  0.00     0.169 HD
HETATM   14  O2  UNL     1      -3.422   3.114  16.459  1.00  0.00    -0.273 OA
BRANCH  12  15
HETATM   15  N1  UNL     1      -6.509   3.536  17.653  1.00  0.00    -0.261 N
HETATM   16  C1  UNL     1      -7.210   4.440  16.737  1.00  0.00     0.186 C
BRANCH  15  17
HETATM   17  O1  UNL     1      -6.099   4.019  18.842  1.00  0.00    -0.287 OA
ATOM     18  H1  UNL     1      -6.230   3.485  19.617  1.00  0.00     0.244 HD
ENDBRANCH  15  17
ENDBRANCH  12  15
ENDBRANCH   9  10
ENDBRANCH   8   9
ENDBRANCH   1   8
BRANCH   4  19
HETATM   19  C9  UNL     1      -2.207   7.490  11.738  1.00  0.00     0.223 C
HETATM   20  C10 UNL     1      -3.385   8.342  12.160  1.00  0.00     0.036 C
HETATM   21  C11 UNL     1      -3.032   8.905  13.542  1.00  0.00     0.002 C
HETATM   22  C12 UNL     1      -1.759   8.168  13.943  1.00  0.00     0.002 C
HETATM   23  C13 UNL     1      -1.117   7.985  12.602  1.00  0.00     0.036 C
ENDBRANCH   4  19
TORSDOF 6
ENDMDL