MODEL 1
REMARK VINA RESULT: -5.335611257      0.000      0.000
REMARK  4 active torsions:
REMARK  status: ('A' for Active; 'I' for Inactive)
REMARK    1  A    between atoms: N1_2  and  C3_4
REMARK    2  A    between atoms: C3_4  and  C4_5
REMARK    3  A    between atoms: C4_5  and  N2_6
REMARK       I    between atoms: N2_6  and  C6_8
REMARK       I    between atoms: C6_8  and  N3_10
REMARK    4  A    between atoms: N3_10  and  C7_12
ROOT
HETATM    1  N2  UNL     1      -4.793   3.598  14.468  1.00  0.00    -0.337 N
HETATM    2  C5  UNL     1      -4.527   2.198  14.224  1.00  0.00     0.154 C
HETATM    3  C6  UNL     1      -4.258   4.616  13.629  1.00  0.00     0.318 C
HETATM    4  O1  UNL     1      -4.523   5.814  13.883  1.00  0.00    -0.247 OA
HETATM    5  N3  UNL     1      -3.446   4.251  12.537  1.00  0.00    -0.338 N
ATOM      6  H3  UNL     1      -3.257   3.262  12.373  1.00  0.00     0.164 HD
ENDROOT
BRANCH   5   7
HETATM    7  C7  UNL     1      -2.862   5.244  11.629  1.00  0.00     0.086 C
HETATM    8  C8  UNL     1      -1.456   4.887  11.338  1.00  0.00     0.026 C
HETATM    9  C9  UNL     1      -1.203   4.143  10.070  1.00  0.00     0.013 C
HETATM   10  C10 UNL     1      -0.840   5.024   8.903  1.00  0.00     0.086 C
HETATM   11  S1  UNL     1      -0.501   6.736   9.405  1.00  0.00    -0.098 SA
HETATM   12  S2  UNL     1      -2.306   7.653  10.103  1.00  0.00    -0.098 SA
HETATM   13  C11 UNL     1      -3.699   6.618   9.687  1.00  0.00     0.088 C
HETATM   14  C12 UNL     1      -3.795   5.352  10.469  1.00  0.00     0.036 C
ENDBRANCH   5   7
BRANCH   1  15
HETATM   15  C4  UNL     1      -5.641   3.941  15.609  1.00  0.00     0.157 C
BRANCH  15  16
HETATM   16  C3  UNL     1      -5.125   3.308  16.880  1.00  0.00     0.291 C
BRANCH  16  17
HETATM   17  N1  UNL     1      -6.263   2.961  17.702  1.00  0.00     0.081 N
HETATM   18  C1  UNL     1      -7.487   2.875  16.938  1.00  0.00     0.309 C
HETATM   19  C2  UNL     1      -6.431   3.994  18.705  1.00  0.00     0.309 C
ENDBRANCH  16  17
ENDBRANCH  15  16
ENDBRANCH   1  15
TORSDOF 4
ENDMDL