MODEL 2
REMARK VINA RESULT: -6.622383918      1.445      1.801
REMARK  5 active torsions:
REMARK  status: ('A' for Active; 'I' for Inactive)
REMARK       I    between atoms: C1_2  and  N1_3
REMARK    1  A    between atoms: C1_2  and  O2_14
REMARK    2  A    between atoms: N1_3  and  C2_5
REMARK    3  A    between atoms: O2_14  and  C11_15
REMARK    4  A    between atoms: C11_15  and  C12_16
REMARK    5  A    between atoms: C12_16  and  N2_17
ROOT
HETATM    1  O1  UNL     1      -4.764   3.886  10.406  1.00  0.00    -0.238 OA
HETATM    2  C1  UNL     1      -3.728   3.516  10.979  1.00  0.00     0.361 C
HETATM    3  N1  UNL     1      -3.531   3.652  12.377  1.00  0.00    -0.332 N
ATOM      4  H1  UNL     1      -2.661   3.334  12.803  1.00  0.00     0.165 HD
ENDROOT
BRANCH   2   5
HETATM    5  O2  UNL     1      -2.712   2.940  10.197  1.00  0.00    -0.299 OA
BRANCH   5   6
HETATM    6  C11 UNL     1      -1.383   3.266  10.486  1.00  0.00     0.225 C
BRANCH   6   7
HETATM    7  C12 UNL     1      -1.026   4.618   9.925  1.00  0.00     0.090 C
BRANCH   7   8
HETATM    8  N2  UNL     1      -0.261   5.349  10.848  1.00  0.00    -0.368 N
HETATM    9  C13 UNL     1      -0.893   6.004  11.922  1.00  0.00     0.089 C
HETATM   10  C14 UNL     1      -0.443   7.453  12.068  1.00  0.00     0.212 C
HETATM   11  O3  UNL     1       0.922   7.528  11.965  1.00  0.00    -0.385 OA
HETATM   12  C15 UNL     1       1.299   7.224  10.647  1.00  0.00     0.188 C
HETATM   13  C16 UNL     1       1.051   5.736  10.494  1.00  0.00     0.153 C
ENDBRANCH   7   8
ENDBRANCH   6   7
ENDBRANCH   5   6
ENDBRANCH   2   5
BRANCH   3  14
HETATM   14  C2  UNL     1      -4.557   4.238  13.190  1.00  0.00     0.087 C
HETATM   15  C3  UNL     1      -4.082   5.542  13.833  1.00  0.00     0.030 C
HETATM   16  C4  UNL     1      -4.634   5.448  15.264  1.00  0.00    -0.008 C
HETATM   17  C5  UNL     1      -6.096   5.781  15.158  1.00  0.00     0.005 C
HETATM   18  C9  UNL     1      -4.389   3.979  15.526  1.00  0.00    -0.008 C
HETATM   19  C6  UNL     1      -6.917   5.217  16.269  1.00  0.00     0.000 C
HETATM   20  C7  UNL     1      -6.544   3.851  16.721  1.00  0.00     0.000 C
HETATM   21  C8  UNL     1      -5.089   3.550  16.792  1.00  0.00     0.005 C
HETATM   22  C10 UNL     1      -4.955   3.319  14.318  1.00  0.00     0.030 C
ENDBRANCH   3  14
TORSDOF 5
ENDMDL