MODEL 5
REMARK VINA RESULT: -6.630337137      1.097      1.178
REMARK  4 active torsions:
REMARK  status: ('A' for Active; 'I' for Inactive)
REMARK    1  A    between atoms: C2_2  and  C4_4
REMARK    2  A    between atoms: C4_4  and  N1_5
REMARK    3  A    between atoms: N2_12  and  C10_13
REMARK    4  A    between atoms: C10_13  and  C11_14
ROOT
HETATM    1  N1  UNL     1      -3.762   3.489  12.362  1.00  0.00     0.113 N
HETATM    2  C5  UNL     1      -4.552   2.681  13.309  1.00  0.00     0.440 C
HETATM    3  O1  UNL     1      -4.536   3.235  14.586  1.00  0.00    -0.355 OA
HETATM    4  C6  UNL     1      -5.265   4.430  14.455  1.00  0.00     0.159 C
HETATM    5  C7  UNL     1      -5.648   4.912  15.807  1.00  0.00     0.036 C
HETATM    6  C8  UNL     1      -6.387   6.224  15.618  1.00  0.00     0.033 C
HETATM    7  C9  UNL     1      -6.251   6.725  14.196  1.00  0.00     0.273 C
HETATM    8  N2  UNL     1      -4.868   6.745  13.764  1.00  0.00     0.097 N
HETATM    9  C16 UNL     1      -4.336   5.393  13.722  1.00  0.00     0.279 C
HETATM   10  C17 UNL     1      -4.216   4.871  12.323  1.00  0.00     0.313 C
ENDROOT
BRANCH   8  11
HETATM   11  C10 UNL     1      -4.074   7.524  14.644  1.00  0.00     0.279 C
BRANCH  11  12
HETATM   12  C11 UNL     1      -2.892   8.195  13.962  1.00  0.00     0.039 C
HETATM   13  C12 UNL     1      -2.468   9.336  14.804  1.00  0.00     0.010 C
HETATM   14  C13 UNL     1      -1.972  10.544  14.086  1.00  0.00     0.028 C
HETATM   15  C14 UNL     1      -1.871  10.356  12.597  1.00  0.00     0.232 C
HETATM   16  N3  UNL     1      -3.159   9.862  12.146  1.00  0.00    -0.075 N
HETATM   17  C15 UNL     1      -3.297   8.502  12.557  1.00  0.00     0.238 C
ATOM     18  H32 UNL     1      -3.932  10.446  12.463  1.00  0.00     0.277 HD
ATOM     19  H31 UNL     1      -3.293   9.983  11.143  1.00  0.00     0.277 HD
ENDBRANCH  11  12
ENDBRANCH   8  11
BRANCH   1  20
HETATM   20  C4  UNL     1      -4.101   2.870  11.062  1.00  0.00     0.279 C
BRANCH  20  21
HETATM   21  C2  UNL     1      -2.963   2.084  10.487  1.00  0.00     0.006 C
HETATM   22  C1  UNL     1      -1.619   2.605  10.986  1.00  0.00     0.011 C
HETATM   23  C3  UNL     1      -3.132   0.644  10.923  1.00  0.00     0.011 C
ENDBRANCH  20  21
ENDBRANCH   1  20
TORSDOF 4
ENDMDL