MODEL 3
REMARK VINA RESULT: -6.722150386      2.866      3.908
REMARK  3 active torsions:
REMARK  status: ('A' for Active; 'I' for Inactive)
REMARK    1  A    between atoms: C4_6  and  C5_7
REMARK    2  A    between atoms: C5_7  and  N2_8
REMARK       I    between atoms: N2_8  and  C6_10
REMARK    3  A    between atoms: C6_10  and  C7_12
ROOT
HETATM    1  N1  UNL     1       2.031   4.917   9.588  1.00  0.00    -0.197 NA
HETATM    2  C1  UNL     1       0.971   5.379   9.494  1.00  0.00     0.064 C
HETATM    3  C2  UNL     1      -0.342   5.977   9.384  1.00  0.00     0.103 C
HETATM    4  C3  UNL     1      -0.623   6.892  10.559  1.00  0.00     0.093 C
HETATM    5  S1  UNL     1      -0.854   5.646  11.859  1.00  0.00    -0.161 SA
HETATM    6  C4  UNL     1      -1.239   4.192  10.751  1.00  0.00     0.066 C
HETATM    7  C15 UNL     1      -1.441   4.907   9.474  1.00  0.00     0.036 C
ENDROOT
BRANCH   6   8
HETATM    8  C5  UNL     1      -2.492   3.623  11.330  1.00  0.00     0.137 C
BRANCH   8   9
HETATM    9  N2  UNL     1      -3.048   4.185  12.499  1.00  0.00    -0.360 N
HETATM   10  C6  UNL     1      -4.379   4.350  12.854  1.00  0.00     0.224 C
HETATM   11  O1  UNL     1      -5.390   4.048  12.205  1.00  0.00    -0.273 OA
ATOM     12  H2  UNL     1      -2.371   4.519  13.185  1.00  0.00     0.162 HD
BRANCH  10  13
HETATM   13  C7  UNL     1      -4.654   4.979  14.195  1.00  0.00     0.112 C
HETATM   14  C8  UNL     1      -5.560   6.195  14.024  1.00  0.00     0.046 C
HETATM   15  C9  UNL     1      -6.468   6.136  15.248  1.00  0.00     0.273 C
HETATM   16  N3  UNL     1      -5.886   5.120  16.104  1.00  0.00     0.093 N
HETATM   17  C10 UNL     1      -6.841   4.556  17.028  1.00  0.00     0.273 C
HETATM   18  C14 UNL     1      -5.483   4.128  15.091  1.00  0.00     0.236 C
HETATM   19  C11 UNL     1      -6.139   3.392  17.722  1.00  0.00     0.030 C
HETATM   20  C12 UNL     1      -5.738   2.347  16.708  1.00  0.00     0.004 C
HETATM   21  C13 UNL     1      -4.726   3.012  15.764  1.00  0.00     0.037 C
ENDBRANCH  10  13
ENDBRANCH   8   9
ENDBRANCH   6   8
TORSDOF 3
ENDMDL