MODEL 4
REMARK VINA RESULT: -6.709596558      2.724      5.564
REMARK  7 active torsions:
REMARK  status: ('A' for Active; 'I' for Inactive)
REMARK    1  A    between atoms: C2_2  and  C3_3
REMARK    2  A    between atoms: N1_12  and  C11_13
REMARK    3  A    between atoms: C11_13  and  C12_14
REMARK    4  A    between atoms: C12_14  and  O2_15
REMARK    5  A    between atoms: C12_14  and  C13_17
REMARK    6  A    between atoms: C13_17  and  N2_18
REMARK    7  A    between atoms: N2_18  and  C14_21
ROOT
HETATM    1  C3  UNL     1      -1.853   8.885  14.085  1.00  0.00     0.015 C
HETATM    2  C4  UNL     1      -1.312   9.524  12.790  1.00  0.00     0.013 C
HETATM    3  C5  UNL     1      -2.116   8.757  11.755  1.00  0.00    -0.010 C
HETATM    4  C6  UNL     1      -3.480   8.783  12.438  1.00  0.00     0.013 C
HETATM    5  C7  UNL     1      -3.018   8.041  13.705  1.00  0.00     0.038 C
HETATM    6  C8  UNL     1      -2.504   6.775  13.061  1.00  0.00     0.148 C
HETATM    7  C9  UNL     1      -1.749   7.307  11.870  1.00  0.00     0.053 C
HETATM    8  O1  UNL     1      -1.770   5.975  13.884  1.00  0.00    -0.351 OA
HETATM    9  C10 UNL     1      -2.728   5.322  14.663  1.00  0.00     0.297 C
HETATM   10  N1  UNL     1      -3.809   5.008  13.756  1.00  0.00    -0.326 N
HETATM   11  C18 UNL     1      -3.620   5.881  12.649  1.00  0.00     0.257 C
HETATM   12  O3  UNL     1      -4.271   5.858  11.590  1.00  0.00    -0.270 OA
ENDROOT
BRANCH  10  13
HETATM   13  C11 UNL     1      -4.842   4.022  13.962  1.00  0.00     0.161 C
BRANCH  13  14
HETATM   14  C12 UNL     1      -4.327   2.782  14.655  1.00  0.00     0.161 C
BRANCH  14  15
HETATM   15  O2  UNL     1      -4.431   1.748  13.728  1.00  0.00    -0.392 OA
ATOM     16  H2  UNL     1      -4.937   1.063  14.150  1.00  0.00     0.210 HD
ENDBRANCH  14  15
BRANCH  14  17
HETATM   17  C13 UNL     1      -5.126   2.453  15.892  1.00  0.00     0.266 C
BRANCH  17  18
HETATM   18  N2  UNL     1      -4.994   3.422  16.928  1.00  0.00    -0.065 N
ATOM     19  H22 UNL     1      -4.415   3.082  17.696  1.00  0.00     0.278 HD
ATOM     20  H21 UNL     1      -4.415   4.210  16.642  1.00  0.00     0.278 HD
BRANCH  18  21
HETATM   21  C14 UNL     1      -6.307   3.848  17.383  1.00  0.00     0.115 C
HETATM   22  C15 UNL     1      -6.227   3.960  18.890  1.00  0.00     0.045 C
HETATM   23  C16 UNL     1      -7.254   2.690  17.046  1.00  0.00     0.045 C
HETATM   24  C17 UNL     1      -6.807   5.098  16.745  1.00  0.00     0.045 C
ENDBRANCH  18  21
ENDBRANCH  17  18
ENDBRANCH  14  17
ENDBRANCH  13  14
ENDBRANCH  10  13
BRANCH   1  25
HETATM   25  C2  UNL     1      -2.146   9.944  15.087  1.00  0.00    -0.032 C
HETATM   26  C1  UNL     1      -1.288  10.809  15.562  1.00  0.00     0.007 C
ENDBRANCH   1  25
TORSDOF 7
ENDMDL