MODEL 4
REMARK VINA RESULT: -7.003112419      2.295      4.553
REMARK  5 active torsions:
REMARK  status: ('A' for Active; 'I' for Inactive)
REMARK    1  A    between atoms: C1_2  and  C2_3
REMARK       I    between atoms: C1_2  and  N2_11
REMARK    2  A    between atoms: C2_3  and  C3_4
REMARK    3  A    between atoms: C3_4  and  C4_5
REMARK    4  A    between atoms: C4_5  and  N1_6
REMARK    5  A    between atoms: N5_19  and  C11_21
ROOT
HETATM    1  O1  UNL     1      -4.487   1.440  14.392  1.00  0.00    -0.273 OA
HETATM    2  C1  UNL     1      -4.434   2.187  13.383  1.00  0.00     0.224 C
HETATM    3  N2  UNL     1      -4.078   1.568  12.164  1.00  0.00    -0.291 N
ATOM      4  H2  UNL     1      -4.577   0.737  11.847  1.00  0.00     0.172 HD
HETATM    5  C9  UNL     1      -3.122   2.056  11.455  1.00  0.00     0.248 A
HETATM    6  N3  UNL     1      -2.749   1.491  10.280  1.00  0.00    -0.262 N
ATOM      7  H3  UNL     1      -3.170   0.662   9.862  1.00  0.00     0.190 HD
HETATM    8  N4  UNL     1      -1.751   2.191   9.765  1.00  0.00    -0.262 N
ATOM      9  H4  UNL     1      -1.270   1.999   8.887  1.00  0.00     0.190 HD
HETATM   10  C10 UNL     1      -1.486   3.203  10.614  1.00  0.00     0.242 A
HETATM   11  N5  UNL     1      -0.578   4.072  10.418  1.00  0.00    -0.350 N
ATOM     12  H5  UNL     1      -0.036   3.967   9.560  1.00  0.00     0.163 HD
HETATM   13  O2  UNL     1      -2.335   3.072  11.603  1.00  0.00    -0.244 OA
ENDROOT
BRANCH   2  14
HETATM   14  C2  UNL     1      -4.713   3.636  13.397  1.00  0.00     0.105 C
BRANCH  14  15
HETATM   15  C3  UNL     1      -4.106   4.358  14.560  1.00  0.00     0.039 C
BRANCH  15  16
HETATM   16  C4  UNL     1      -5.106   5.118  15.362  1.00  0.00     0.273 C
BRANCH  16  17
HETATM   17  N1  UNL     1      -5.714   4.387  16.423  1.00  0.00     0.088 N
HETATM   18  C5  UNL     1      -7.043   3.937  16.175  1.00  0.00     0.272 C
HETATM   19  C6  UNL     1      -7.282   2.755  17.091  1.00  0.00     0.032 C
HETATM   20  C7  UNL     1      -5.911   2.282  17.517  1.00  0.00     0.032 C
HETATM   21  C8  UNL     1      -4.956   3.334  17.002  1.00  0.00     0.272 C
ENDBRANCH  16  17
ENDBRANCH  15  16
ENDBRANCH  14  15
ENDBRANCH   2  14
BRANCH  11  22
HETATM   22  C11 UNL     1      -0.222   5.174  11.252  1.00  0.00     0.085 C
HETATM   23  C12 UNL     1      -1.175   6.329  10.976  1.00  0.00     0.025 C
HETATM   24  C13 UNL     1      -0.687   7.186   9.835  1.00  0.00     0.002 C
HETATM   25  C14 UNL     1      -0.099   6.334   8.745  1.00  0.00     0.000 C
HETATM   26  C15 UNL     1       1.091   5.589   9.251  1.00  0.00     0.002 C
HETATM   27  C16 UNL     1       1.143   5.681  10.762  1.00  0.00     0.025 C
ENDBRANCH  11  22
TORSDOF 5
ENDMDL