MODEL 3
REMARK VINA RESULT: -6.554303223      0.872      1.152
REMARK  5 active torsions:
REMARK  status: ('A' for Active; 'I' for Inactive)
REMARK    1  A    between atoms: O1_2  and  C2_3
REMARK    2  A    between atoms: C5_6  and  C6_7
REMARK    3  A    between atoms: C5_6  and  N2_15
REMARK    4  A    between atoms: C6_7  and  N1_8
REMARK       I    between atoms: N1_8  and  C7_10
REMARK    5  A    between atoms: C7_10  and  C8_12
ROOT
HETATM    1  C2  UNL     1      -3.341   3.322  11.103  1.00  0.00     0.124 C
HETATM    2  C3  UNL     1      -4.649   3.666  11.750  1.00  0.00     0.035 C
HETATM    3  C4  UNL     1      -4.597   4.529  12.938  1.00  0.00     0.035 C
HETATM    4  C5  UNL     1      -3.388   5.366  13.146  1.00  0.00     0.044 C
HETATM    5  C15 UNL     1      -2.120   4.778  12.567  1.00  0.00     0.039 C
HETATM    6  C16 UNL     1      -2.369   4.499  11.105  1.00  0.00     0.013 C
HETATM    7  C17 UNL     1      -1.117   4.050  10.410  1.00  0.00     0.012 C
ENDROOT
BRANCH   4   8
HETATM    8  C6  UNL     1      -3.129   5.470  14.640  1.00  0.00     0.153 C
BRANCH   8   9
HETATM    9  N1  UNL     1      -4.300   5.163  15.418  1.00  0.00    -0.358 N
HETATM   10  C7  UNL     1      -4.331   4.029  16.242  1.00  0.00     0.221 C
HETATM   11  O2  UNL     1      -3.303   3.278  16.289  1.00  0.00    -0.273 OA
ATOM     12  H1  UNL     1      -5.114   5.775  15.370  1.00  0.00     0.162 HD
BRANCH  10  13
HETATM   13  C8  UNL     1      -5.500   3.647  17.071  1.00  0.00     0.070 C
HETATM   14  C9  UNL     1      -5.849   2.203  16.690  1.00  0.00     0.019 C
HETATM   15  C10 UNL     1      -6.689   4.481  16.662  1.00  0.00     0.019 C
ENDBRANCH  10  13
ENDBRANCH   8   9
ENDBRANCH   4   8
BRANCH   4  16
HETATM   16  N2  UNL     1      -3.530   6.673  12.640  1.00  0.00    -0.399 N
HETATM   17  C11 UNL     1      -4.748   7.086  12.093  1.00  0.00     0.137 C
HETATM   18  C12 UNL     1      -4.442   7.802  10.764  1.00  0.00     0.133 C
HETATM   19  N3  UNL     1      -3.760   9.003  11.103  1.00  0.00    -0.418 N
HETATM   20  C13 UNL     1      -2.927   8.940  12.242  1.00  0.00     0.133 C
ATOM     21  H3  UNL     1      -3.866   9.858  10.556  1.00  0.00     0.153 HD
HETATM   22  C14 UNL     1      -2.437   7.524  12.561  1.00  0.00     0.137 C
ENDBRANCH   4  16
BRANCH   1  23
HETATM   23  O1  UNL     1      -2.773   2.195  11.691  1.00  0.00    -0.390 OA
HETATM   24  C1  UNL     1      -3.689   1.122  11.730  1.00  0.00     0.202 C
ENDBRANCH   1  23
TORSDOF 5
ENDMDL