MODEL 4
REMARK VINA RESULT: -6.972034152      0.673      1.454
REMARK  6 active torsions:
REMARK  status: ('A' for Active; 'I' for Inactive)
REMARK    1  A    between atoms: O1_2  and  N1_3
REMARK       I    between atoms: C2_5  and  N2_6
REMARK       I    between atoms: C2_5  and  N3_16
REMARK    2  A    between atoms: N2_6  and  C3_8
REMARK    3  A    between atoms: C3_8  and  C4_9
REMARK    4  A    between atoms: N4_19  and  C13_20
REMARK    5  A    between atoms: C13_20  and  C14_21
REMARK    6  A    between atoms: C14_21  and  O2_23
ROOT
HETATM    1  N1  UNL     1      -4.351   7.334  11.671  1.00  0.00    -0.097 N
ATOM      2  H1  UNL     1      -3.738   7.758  10.974  1.00  0.00     0.213 HD
HETATM    3  C2  UNL     1      -3.916   6.304  12.288  1.00  0.00     0.696 C
HETATM    4  N2  UNL     1      -4.718   5.669  13.265  1.00  0.00    -0.224 N
ATOM      5  H2  UNL     1      -5.564   6.137  13.589  1.00  0.00     0.177 HD
HETATM    6  N3  UNL     1      -2.634   5.800  11.989  1.00  0.00    -0.213 N
HETATM    7  C11 UNL     1      -2.361   4.979  10.821  1.00  0.00     0.160 C
HETATM    8  C12 UNL     1      -0.954   4.443  10.914  1.00  0.00     0.137 C
HETATM    9  N4  UNL     1       0.031   5.418  11.210  1.00  0.00    -0.407 N
HETATM   10  C16 UNL     1      -0.377   6.552  11.955  1.00  0.00     0.137 C
HETATM   11  C17 UNL     1      -1.533   6.101  12.862  1.00  0.00     0.160 C
ENDROOT
BRANCH   1  12
HETATM   12  O1  UNL     1      -5.572   7.915  11.868  1.00  0.00    -0.272 OA
HETATM   13  C1  UNL     1      -5.906   9.043  11.045  1.00  0.00     0.238 C
ENDBRANCH   1  12
BRANCH   4  14
HETATM   14  C3  UNL     1      -4.377   4.381  13.821  1.00  0.00     0.142 C
BRANCH  14  15
HETATM   15  C4  UNL     1      -5.228   4.131  15.040  1.00  0.00     0.004 C
HETATM   16  C5  UNL     1      -4.352   3.376  16.024  1.00  0.00     0.006 C
HETATM   17  C6  UNL     1      -5.147   2.222  16.583  1.00  0.00     0.000 C
HETATM   18  C7  UNL     1      -6.524   2.608  17.027  1.00  0.00     0.000 C
HETATM   19  C8  UNL     1      -6.531   3.990  17.638  1.00  0.00     0.000 C
HETATM   20  C9  UNL     1      -6.853   5.059  16.637  1.00  0.00     0.000 C
HETATM   21  C10 UNL     1      -5.717   5.379  15.706  1.00  0.00     0.006 C
ENDBRANCH  14  15
ENDBRANCH   4  14
BRANCH   9  22
HETATM   22  C13 UNL     1       1.100   5.568  10.300  1.00  0.00     0.148 C
BRANCH  22  23
HETATM   23  C14 UNL     1       2.198   6.488  10.704  1.00  0.00     0.131 C
HETATM   24  C15 UNL     1       3.076   6.746   9.496  1.00  0.00     0.041 C
BRANCH  23  25
HETATM   25  O2  UNL     1       3.015   5.886  11.674  1.00  0.00    -0.394 OA
ATOM     26  H2  UNL     1       3.464   5.132  11.312  1.00  0.00     0.210 HD
ENDBRANCH  23  25
ENDBRANCH  22  23
ENDBRANCH   9  22
TORSDOF 6
ENDMDL