MODEL 3
REMARK VINA RESULT: -6.801622281      1.895      7.304
REMARK  7 active torsions:
REMARK  status: ('A' for Active; 'I' for Inactive)
REMARK    1  A    between atoms: C2_2  and  C4_4
REMARK    2  A    between atoms: C4_4  and  N1_6
REMARK       I    between atoms: N1_6  and  C6_8
REMARK    3  A    between atoms: C6_8  and  C7_10
REMARK    4  A    between atoms: C7_10  and  N2_12
REMARK    5  A    between atoms: N2_12  and  C9_14
REMARK    6  A    between atoms: N3_17  and  C12_18
REMARK    7  A    between atoms: C17_23  and  O2_24
ROOT
HETATM    1  N2  UNL     1      -3.983   6.761  14.381  1.00  0.00    -0.403 N
ATOM      2  H2  UNL     1      -4.001   7.186  15.308  1.00  0.00     0.154 HD
ENDROOT
BRANCH   1   3
HETATM    3  C7  UNL     1      -3.028   7.223  13.481  1.00  0.00     0.165 C
HETATM    4  C8  UNL     1      -3.737   7.525  12.137  1.00  0.00     0.042 C
BRANCH   3   5
HETATM    5  C6  UNL     1      -1.869   6.385  13.129  1.00  0.00     0.240 C
HETATM    6  N1  UNL     1      -1.578   6.110  11.787  1.00  0.00    -0.351 N
ATOM      7  H1  UNL     1      -2.173   6.491  11.052  1.00  0.00     0.163 HD
HETATM    8  O1  UNL     1      -1.148   5.923  14.077  1.00  0.00    -0.271 OA
BRANCH   6   9
HETATM    9  C4  UNL     1      -0.443   5.293  11.437  1.00  0.00     0.108 C
HETATM   10  C5  UNL     1       0.717   6.145  11.015  1.00  0.00     0.037 C
BRANCH   9  11
HETATM   11  C2  UNL     1      -0.781   4.288  10.385  1.00  0.00    -0.071 C
HETATM   12  C1  UNL     1      -0.650   4.564   9.093  1.00  0.00     0.016 C
HETATM   13  C3  UNL     1      -1.280   2.938  10.744  1.00  0.00     0.044 C
ENDBRANCH   9  11
ENDBRANCH   6   9
ENDBRANCH   3   5
ENDBRANCH   1   3
BRANCH   1  14
HETATM   14  C9  UNL     1      -4.916   5.762  14.114  1.00  0.00     0.109 C
HETATM   15  C10 UNL     1      -6.240   5.877  14.729  1.00  0.00     0.047 C
HETATM   16  C11 UNL     1      -6.280   5.406  16.184  1.00  0.00     0.119 C
HETATM   17  N3  UNL     1      -5.765   4.088  16.211  1.00  0.00    -0.402 N
HETATM   18  C16 UNL     1      -4.399   4.045  15.864  1.00  0.00     0.151 C
HETATM   19  C17 UNL     1      -4.278   4.387  14.375  1.00  0.00     0.160 C
BRANCH  17  20
HETATM   20  C12 UNL     1      -6.268   3.178  17.153  1.00  0.00     0.017 C
HETATM   21  C13 UNL     1      -7.744   2.921  16.856  1.00  0.00     0.037 C
HETATM   22  C14 UNL     1      -6.255   3.868  18.525  1.00  0.00     0.037 C
HETATM   23  C15 UNL     1      -5.557   1.877  17.267  1.00  0.00     0.037 C
ENDBRANCH  17  20
BRANCH  19  24
HETATM   24  O2  UNL     1      -4.721   3.405  13.544  1.00  0.00    -0.387 OA
HETATM   25  C18 UNL     1      -4.580   3.667  12.193  1.00  0.00     0.202 C
ENDBRANCH  19  24
ENDBRANCH   1  14
TORSDOF 7
ENDMDL