MODEL 3
REMARK VINA RESULT: -7.363129050      2.198      5.351
REMARK  6 active torsions:
REMARK  status: ('A' for Active; 'I' for Inactive)
REMARK    1  A    between atoms: N1_7  and  C6_8
REMARK    2  A    between atoms: C6_8  and  C7_9
REMARK    3  A    between atoms: C7_9  and  C8_10
REMARK    4  A    between atoms: C8_10  and  N2_11
REMARK    5  A    between atoms: N2_11  and  C9_13
REMARK    6  A    between atoms: C10_16  and  N4_17
ROOT
HETATM    1  C9  UNL     1      -1.699   3.615  10.875  1.00  0.00     0.707 A
HETATM    2  N3  UNL     1      -2.242   4.844  10.858  1.00  0.00    -0.020 N
ATOM      3  H3  UNL     1      -3.024   5.135  10.271  1.00  0.00     0.203 HD
HETATM    4  C10 UNL     1      -1.587   5.640  11.748  1.00  0.00     0.709 A
HETATM    5  N5  UNL     1      -0.637   4.865  12.301  1.00  0.00    -0.117 N
ATOM      6  H5  UNL     1       0.030   5.166  13.011  1.00  0.00     0.206 HD
HETATM    7  N6  UNL     1      -0.704   3.651  11.779  1.00  0.00    -0.117 N
ATOM      8  H6  UNL     1      -0.097   2.868  12.024  1.00  0.00     0.206 HD
ENDROOT
BRANCH   1   9
HETATM    9  N2  UNL     1      -2.112   2.642  10.136  1.00  0.00    -0.224 N
ATOM     10  H2  UNL     1      -1.897   2.667   9.139  1.00  0.00     0.177 HD
BRANCH   9  11
HETATM   11  C8  UNL     1      -2.860   1.523  10.646  1.00  0.00     0.139 C
BRANCH  11  12
HETATM   12  C7  UNL     1      -4.061   2.090  11.401  1.00  0.00     0.040 C
BRANCH  12  13
HETATM   13  C6  UNL     1      -4.075   1.548  12.823  1.00  0.00     0.127 C
BRANCH  13  14
HETATM   14  N1  UNL     1      -4.394   2.624  13.725  1.00  0.00    -0.352 N
HETATM   15  C5  UNL     1      -4.485   2.451  15.134  1.00  0.00     0.219 C
HETATM   16  C4  UNL     1      -4.195   3.545  16.102  1.00  0.00     0.103 C
HETATM   17  O1  UNL     1      -4.832   1.292  15.535  1.00  0.00    -0.273 OA
HETATM   18  C3  UNL     1      -3.689   4.720  15.284  1.00  0.00     0.015 C
HETATM   19  C2  UNL     1      -4.683   5.025  14.189  1.00  0.00    -0.000 C
HETATM   20  C1  UNL     1      -6.079   5.228  14.735  1.00  0.00     0.011 C
HETATM   21  C16 UNL     1      -4.628   3.935  13.141  1.00  0.00     0.130 C
ENDBRANCH  13  14
ENDBRANCH  12  13
ENDBRANCH  11  12
ENDBRANCH   9  11
ENDBRANCH   1   9
BRANCH   4  22
HETATM   22  N4  UNL     1      -1.854   7.012  12.032  1.00  0.00    -0.216 N
HETATM   23  C11 UNL     1      -3.102   7.587  11.546  1.00  0.00     0.141 C
HETATM   24  C12 UNL     1      -3.739   8.471  12.602  1.00  0.00     0.020 C
HETATM   25  C13 UNL     1      -2.948   8.446  13.896  1.00  0.00     0.003 C
HETATM   26  C14 UNL     1      -1.527   8.864  13.595  1.00  0.00     0.020 C
HETATM   27  C15 UNL     1      -0.894   7.769  12.777  1.00  0.00     0.141 C
ENDBRANCH   4  22
TORSDOF 6
ENDMDL