MODEL 5
REMARK VINA RESULT: -7.289922113      2.136      5.739
REMARK  5 active torsions:
REMARK  status: ('A' for Active; 'I' for Inactive)
REMARK    1  A    between atoms: N4_16  and  C10_18
REMARK    2  A    between atoms: C10_18  and  C11_19
REMARK    3  A    between atoms: C11_19  and  C12_20
REMARK    4  A    between atoms: C12_20  and  C13_21
REMARK    5  A    between atoms: C13_21  and  N5_22
ROOT
HETATM    1  C1  UNL     1      -7.036   2.635  16.957  1.00  0.00     0.070 C
HETATM    2  C2  UNL     1      -5.764   3.163  16.406  1.00  0.00     0.030 A
HETATM    3  N1  UNL     1      -4.610   2.454  16.481  1.00  0.00    -0.304 N
ATOM      4  H1  UNL     1      -4.517   1.531  16.905  1.00  0.00     0.186 HD
HETATM    5  N2  UNL     1      -3.624   3.135  15.924  1.00  0.00    -0.296 N
ATOM      6  H2  UNL     1      -2.652   2.835  15.844  1.00  0.00     0.187 HD
HETATM    7  C3  UNL     1      -4.135   4.288  15.485  1.00  0.00     0.099 A
HETATM    8  C4  UNL     1      -5.484   4.349  15.768  1.00  0.00    -0.000 A
HETATM    9  C5  UNL     1      -6.371   5.467  15.437  1.00  0.00     0.073 C
HETATM   10  C6  UNL     1      -5.718   6.665  14.876  1.00  0.00     0.028 C
HETATM   11  C7  UNL     1      -5.713   7.746  15.965  1.00  0.00     0.038 C
HETATM   12  C8  UNL     1      -6.490   7.259  13.708  1.00  0.00     0.038 C
HETATM   13  N3  UNL     1      -4.349   6.504  14.458  1.00  0.00    -0.366 N
ATOM     14  H3  UNL     1      -3.945   7.235  13.873  1.00  0.00     0.162 HD
HETATM   15  C9  UNL     1      -3.533   5.418  14.797  1.00  0.00     0.127 C
HETATM   16  N4  UNL     1      -2.302   5.404  14.522  1.00  0.00    -0.375 N
ATOM     17  H4  UNL     1      -1.773   4.579  14.804  1.00  0.00     0.161 HD
ENDROOT
BRANCH  16  18
HETATM   18  C10 UNL     1      -1.570   6.464  13.837  1.00  0.00     0.121 C
BRANCH  18  19
HETATM   19  C11 UNL     1      -1.049   5.838  12.569  1.00  0.00     0.021 C
BRANCH  19  20
HETATM   20  C12 UNL     1      -2.090   5.844  11.495  1.00  0.00     0.032 C
BRANCH  20  21
HETATM   21  C13 UNL     1      -1.991   4.611  10.674  1.00  0.00     0.272 C
BRANCH  21  22
HETATM   22  N5  UNL     1      -2.577   3.447  11.313  1.00  0.00     0.092 N
HETATM   23  C14 UNL     1      -2.260   2.211  10.680  1.00  0.00     0.298 C
HETATM   24  C15 UNL     1      -3.143   1.128  11.229  1.00  0.00     0.198 C
HETATM   25  O1  UNL     1      -4.482   1.363  11.121  1.00  0.00    -0.388 OA
HETATM   26  C16 UNL     1      -4.862   2.660  10.930  1.00  0.00     0.198 C
HETATM   27  C17 UNL     1      -3.956   3.660  11.609  1.00  0.00     0.298 C
ENDBRANCH  21  22
ENDBRANCH  20  21
ENDBRANCH  19  20
ENDBRANCH  18  19
ENDBRANCH  16  18
TORSDOF 5
ENDMDL