MODEL 3
REMARK VINA RESULT: -7.172078312      1.438      2.249
REMARK  5 active torsions:
REMARK  status: ('A' for Active; 'I' for Inactive)
REMARK    1  A    between atoms: C2_5  and  C3_6
REMARK    2  A    between atoms: N3_8  and  C5_9
REMARK    3  A    between atoms: C5_9  and  C6_10
REMARK    4  A    between atoms: C6_10  and  N4_11
REMARK       I    between atoms: N4_11  and  C7_13
REMARK       I    between atoms: C7_13  and  N5_15
REMARK    5  A    between atoms: N5_15  and  C8_17
ROOT
HETATM    1  N1  UNL     1      -4.783   1.422  15.523  1.00  0.00    -0.172 NA
HETATM    2  C1  UNL     1      -5.317   2.168  16.227  1.00  0.00     0.181 C
HETATM    3  N2  UNL     1      -5.986   3.068  17.070  1.00  0.00    -0.308 N
ATOM      4  H2  UNL     1      -6.275   2.750  17.995  1.00  0.00     0.177 HD
HETATM    5  C2  UNL     1      -6.248   4.280  16.723  1.00  0.00     0.080 C
ENDROOT
BRANCH   5   6
HETATM    6  C3  UNL     1      -5.849   4.768  15.410  1.00  0.00     0.081 C
HETATM    7  C4  UNL     1      -4.387   5.152  15.270  1.00  0.00     0.284 C
HETATM    8  N3  UNL     1      -4.808   6.259  14.484  1.00  0.00     0.091 N
HETATM    9  C18 UNL     1      -6.055   6.264  15.170  1.00  0.00     0.284 C
BRANCH   8  10
HETATM   10  C5  UNL     1      -4.010   7.436  14.457  1.00  0.00     0.292 C
BRANCH  10  11
HETATM   11  C6  UNL     1      -3.145   7.586  13.254  1.00  0.00     0.154 C
BRANCH  11  12
HETATM   12  N4  UNL     1      -3.568   8.668  12.404  1.00  0.00    -0.341 N
HETATM   13  C7  UNL     1      -4.536   8.572  11.370  1.00  0.00     0.316 C
HETATM   14  O1  UNL     1      -5.124   7.494  11.100  1.00  0.00    -0.247 OA
HETATM   15  N5  UNL     1      -4.902   9.692  10.575  1.00  0.00    -0.334 N
ATOM     16  H5  UNL     1      -4.442  10.581  10.776  1.00  0.00     0.165 HD
ATOM     17  H4  UNL     1      -3.136   9.579  12.557  1.00  0.00     0.164 HD
BRANCH  15  18
HETATM   18  C8  UNL     1      -5.858   9.675   9.523  1.00  0.00     0.035 C
HETATM   19  C9  UNL     1      -5.802  11.024   8.822  1.00  0.00     0.035 C
HETATM   20  C10 UNL     1      -6.715  11.127   7.646  1.00  0.00    -0.012 C
HETATM   21  C11 UNL     1      -8.134  10.947   8.141  1.00  0.00     0.009 C
HETATM   22  C15 UNL     1      -6.411  10.029   6.653  1.00  0.00     0.009 C
HETATM   23  C12 UNL     1      -8.208   9.618   8.816  1.00  0.00    -0.012 C
HETATM   24  C13 UNL     1      -7.875   8.484   7.862  1.00  0.00     0.009 C
HETATM   25  C17 UNL     1      -7.277   9.489   9.998  1.00  0.00     0.035 C
HETATM   26  C14 UNL     1      -6.494   8.696   7.329  1.00  0.00    -0.012 C
HETATM   27  C16 UNL     1      -5.522   8.621   8.483  1.00  0.00     0.035 C
ENDBRANCH  15  18
ENDBRANCH  11  12
ENDBRANCH  10  11
ENDBRANCH   8  10
ENDBRANCH   5   6
TORSDOF 5
ENDMDL