MODEL 4
REMARK VINA RESULT: -6.788259705      2.238      3.592
REMARK  6 active torsions:
REMARK  status: ('A' for Active; 'I' for Inactive)
REMARK    1  A    between atoms: C5_5  and  N1_6
REMARK    2  A    between atoms: N1_6  and  C6_9
REMARK    3  A    between atoms: C6_9  and  C7_10
REMARK       I    between atoms: C7_10  and  N2_12
REMARK    4  A    between atoms: C9_14  and  O2_15
REMARK    5  A    between atoms: C10_17  and  O3_18
REMARK    6  A    between atoms: O3_18  and  C11_19
ROOT
HETATM    1  C7  UNL     1      -2.344   5.234  12.378  1.00  0.00     0.246 C
HETATM    2  O1  UNL     1      -2.740   4.057  12.047  1.00  0.00    -0.271 OA
HETATM    3  N2  UNL     1      -1.135   5.683  11.851  1.00  0.00    -0.328 N
HETATM    4  C8  UNL     1      -0.485   6.981  12.061  1.00  0.00     0.161 C
HETATM    5  C9  UNL     1       0.606   7.116  11.005  1.00  0.00     0.168 C
HETATM    6  C10 UNL     1       0.188   6.060   9.993  1.00  0.00     0.189 C
HETATM    7  C14 UNL     1      -0.210   4.954  10.974  1.00  0.00     0.226 C
HETATM    8  C15 UNL     1      -0.869   3.872  10.323  1.00  0.00     0.087 C
HETATM    9  N3  UNL     1      -1.384   2.975   9.762  1.00  0.00    -0.195 NA
ENDROOT
BRANCH   6  10
HETATM   10  O3  UNL     1      -0.932   6.455   9.302  1.00  0.00    -0.376 OA
BRANCH  10  11
HETATM   11  C11 UNL     1      -0.723   6.653   7.959  1.00  0.00     0.114 C
HETATM   12  C12 UNL     1      -2.102   6.815   7.315  1.00  0.00     0.039 C
HETATM   13  C13 UNL     1      -0.023   5.545   7.245  1.00  0.00     0.039 C
ENDBRANCH  10  11
ENDBRANCH   6  10
BRANCH   1  14
HETATM   14  C6  UNL     1      -3.228   5.950  13.274  1.00  0.00     0.335 C
BRANCH  14  15
HETATM   15  N1  UNL     1      -4.528   5.400  13.367  1.00  0.00    -0.063 N
ATOM     16  H12 UNL     1      -4.628   4.605  12.737  1.00  0.00     0.278 HD
ATOM     17  H11 UNL     1      -5.216   6.031  12.956  1.00  0.00     0.278 HD
BRANCH  15  18
HETATM   18  C5  UNL     1      -4.912   5.036  14.720  1.00  0.00     0.186 C
HETATM   19  C4  UNL     1      -6.283   5.491  15.080  1.00  0.00     0.033 C
HETATM   20  C3  UNL     1      -6.602   5.161  16.517  1.00  0.00     0.006 C
HETATM   21  C2  UNL     1      -6.171   3.798  16.943  1.00  0.00    -0.019 C
HETATM   22  C1  UNL     1      -6.235   3.784  18.477  1.00  0.00     0.010 C
HETATM   23  C17 UNL     1      -4.763   3.439  16.535  1.00  0.00     0.006 C
HETATM   24  C16 UNL     1      -4.695   3.560  15.013  1.00  0.00     0.033 C
ENDBRANCH  15  18
ENDBRANCH  14  15
ENDBRANCH   1  14
BRANCH   5  25
HETATM   25  O2  UNL     1       0.662   8.378  10.469  1.00  0.00    -0.391 OA
ATOM     26  H2  UNL     1      -0.001   8.518   9.804  1.00  0.00     0.210 HD
ENDBRANCH   5  25
TORSDOF 6
ENDMDL