MODEL 4
REMARK VINA RESULT: -6.869633013      1.986      6.989
REMARK  6 active torsions:
REMARK  status: ('A' for Active; 'I' for Inactive)
REMARK    1  A    between atoms: O1_1  and  C1_3
REMARK    2  A    between atoms: C1_3  and  C2_4
REMARK    3  A    between atoms: C4_6  and  N1_7
REMARK    4  A    between atoms: N3_16  and  C11_18
REMARK    5  A    between atoms: C11_18  and  C12_19
REMARK    6  A    between atoms: C12_19  and  N4_20
ROOT
HETATM    1  C2  UNL     1      -4.290   2.857  11.978  1.00  0.00    -0.028 A
HETATM    2  C3  UNL     1      -4.549   2.699  13.312  1.00  0.00     0.058 A
HETATM    3  C4  UNL     1      -4.545   3.769  14.184  1.00  0.00     0.105 A
HETATM    4  N2  UNL     1      -4.275   4.981  13.672  1.00  0.00    -0.329 N
ATOM      5  H2  UNL     1      -4.270   5.777  14.309  1.00  0.00     0.169 HD
HETATM    6  C10 UNL     1      -4.012   5.210  12.374  1.00  0.00     0.106 A
HETATM    7  N3  UNL     1      -3.764   6.362  11.943  1.00  0.00    -0.354 N
ATOM      8  H3  UNL     1      -3.782   7.091  12.655  1.00  0.00     0.166 HD
HETATM    9  C17 UNL     1      -4.016   4.141  11.506  1.00  0.00     0.058 A
ENDROOT
BRANCH   7  10
HETATM   10  C11 UNL     1      -3.467   6.822  10.649  1.00  0.00     0.092 C
BRANCH  10  11
HETATM   11  C12 UNL     1      -2.243   7.649  10.490  1.00  0.00     0.317 C
BRANCH  11  12
HETATM   12  N4  UNL     1      -1.167   6.935   9.864  1.00  0.00     0.097 N
HETATM   13  C13 UNL     1      -0.110   6.553  10.734  1.00  0.00     0.299 C
HETATM   14  C14 UNL     1      -0.353   5.231  11.437  1.00  0.00     0.198 C
HETATM   15  O2  UNL     1      -0.608   4.204  10.562  1.00  0.00    -0.388 OA
HETATM   16  C15 UNL     1      -0.751   4.631   9.257  1.00  0.00     0.198 C
HETATM   17  C16 UNL     1      -1.662   5.822   9.117  1.00  0.00     0.299 C
ENDBRANCH  11  12
ENDBRANCH  10  11
ENDBRANCH   7  10
BRANCH   3  18
HETATM   18  N1  UNL     1      -4.821   3.587  15.554  1.00  0.00    -0.367 N
HETATM   19  C5  UNL     1      -4.761   2.327  16.250  1.00  0.00     0.124 C
HETATM   20  C6  UNL     1      -6.029   2.249  17.103  1.00  0.00     0.020 C
HETATM   21  C7  UNL     1      -7.123   3.160  16.563  1.00  0.00     0.003 C
HETATM   22  C8  UNL     1      -6.684   4.614  16.591  1.00  0.00     0.020 C
HETATM   23  C9  UNL     1      -5.188   4.724  16.367  1.00  0.00     0.124 C
ENDBRANCH   3  18
BRANCH   1  24
HETATM   24  C1  UNL     1      -4.302   1.692  11.050  1.00  0.00     0.203 C
BRANCH  24  25
HETATM   25  O1  UNL     1      -4.977   1.975   9.857  1.00  0.00    -0.396 OA
ATOM     26  H1  UNL     1      -4.917   1.261   9.234  1.00  0.00     0.209 HD
ENDBRANCH  24  25
ENDBRANCH   1  24
TORSDOF 6
ENDMDL