MODEL 4
REMARK VINA RESULT: -7.351306537      1.060      1.126
REMARK  11 active torsions:
REMARK  status: ('A' for Active; 'I' for Inactive)
REMARK    1  A    between atoms: C2_2  and  O1_3
REMARK    2  A    between atoms: O1_3  and  C3_4
REMARK    3  A    between atoms: C3_4  and  O3_6
REMARK    4  A    between atoms: O3_6  and  C4_7
REMARK    5  A    between atoms: C4_7  and  O4_8
REMARK    6  A    between atoms: O4_8  and  C5_9
REMARK    7  A    between atoms: C5_9  and  C6_11
REMARK    8  A    between atoms: C6_11  and  N1_12
REMARK    9  A    between atoms: C6_11  and  C10_17
REMARK       I    between atoms: N1_12  and  C8_14
REMARK   10  A    between atoms: C10_17  and  O7_18
REMARK   11  A    between atoms: C15_24  and  O8_25
ROOT
HETATM    1  C6  UNL     1      -3.942   4.351  11.125  1.00  0.00     0.223 C
ENDROOT
BRANCH   1   2
HETATM    2  C5  UNL     1      -4.562   2.993  11.201  1.00  0.00     0.287 C
HETATM    3  O5  UNL     1      -4.917   2.434  10.139  1.00  0.00    -0.263 OA
BRANCH   2   4
HETATM    4  O4  UNL     1      -4.771   2.317  12.331  1.00  0.00    -0.293 OA
BRANCH   4   5
HETATM    5  C4  UNL     1      -4.260   1.531  13.272  1.00  0.00     0.360 C
BRANCH   5   6
HETATM    6  O3  UNL     1      -4.760   1.274  14.498  1.00  0.00    -0.272 OA
BRANCH   6   7
HETATM    7  C3  UNL     1      -4.836   1.963  15.640  1.00  0.00     0.408 C
HETATM    8  O2  UNL     1      -3.828   2.422  16.222  1.00  0.00    -0.229 OA
BRANCH   7   9
HETATM    9  O1  UNL     1      -6.052   2.241  16.299  1.00  0.00    -0.298 OA
BRANCH   9  10
HETATM   10  C2  UNL     1      -6.123   3.327  17.194  1.00  0.00     0.176 C
HETATM   11  C1  UNL     1      -6.776   4.540  16.629  1.00  0.00     0.034 C
ENDBRANCH   9  10
ENDBRANCH   7   9
ENDBRANCH   6   7
ENDBRANCH   5   6
ENDBRANCH   4   5
ENDBRANCH   2   4
ENDBRANCH   1   2
BRANCH   1  12
HETATM   12  N1  UNL     1      -2.547   4.237  10.684  1.00  0.00    -0.340 N
HETATM   13  C7  UNL     1      -1.607   3.265  11.176  1.00  0.00     0.153 C
HETATM   14  C8  UNL     1      -2.051   5.126   9.655  1.00  0.00     0.216 C
HETATM   15  C9  UNL     1      -0.661   5.032   9.202  1.00  0.00     0.117 C
HETATM   16  O6  UNL     1      -2.842   5.968   9.173  1.00  0.00    -0.274 OA
ENDBRANCH   1  12
BRANCH   1  17
HETATM   17  C10 UNL     1      -4.158   5.257  12.260  1.00  0.00     0.113 C
HETATM   18  C11 UNL     1      -4.234   6.733  12.047  1.00  0.00     0.043 C
HETATM   19  C12 UNL     1      -5.031   7.281  13.253  1.00  0.00     0.003 C
HETATM   20  C13 UNL     1      -4.411   6.929  14.540  1.00  0.00     0.003 C
HETATM   21  C14 UNL     1      -3.826   5.554  14.674  1.00  0.00     0.035 C
HETATM   22  C15 UNL     1      -3.147   5.099  13.395  1.00  0.00     0.155 C
BRANCH  17  23
HETATM   23  O7  UNL     1      -5.394   4.894  12.913  1.00  0.00    -0.385 OA
ATOM     24  H7  UNL     1      -5.392   5.258  13.791  1.00  0.00     0.210 HD
ENDBRANCH  17  23
BRANCH  22  25
HETATM   25  O8  UNL     1      -2.000   5.851  13.186  1.00  0.00    -0.392 OA
ATOM     26  H8  UNL     1      -1.360   5.391  12.655  1.00  0.00     0.210 HD
ENDBRANCH  22  25
ENDBRANCH   1  17
TORSDOF 11
ENDMDL