MODEL 2
REMARK VINA RESULT: -6.150275602      0.212      2.644
REMARK  8 active torsions:
REMARK  status: ('A' for Active; 'I' for Inactive)
REMARK    1  A    between atoms: O1_2  and  C2_3
REMARK    2  A    between atoms: C4_5  and  C5_6
REMARK    3  A    between atoms: C6_8  and  O3_9
REMARK    4  A    between atoms: C8_11  and  O4_13
REMARK    5  A    between atoms: C10_15  and  O5_16
REMARK    6  A    between atoms: C11_18  and  O6_19
REMARK    7  A    between atoms: C13_22  and  O7_23
REMARK    8  A    between atoms: C15_25  and  O8_26
ROOT
HETATM    1  C5  UNL     1      -1.749   4.433  10.252  1.00  0.00     0.189 C
HETATM    2  O2  UNL     1      -2.413   5.079   9.234  1.00  0.00    -0.346 OA
HETATM    3  C6  UNL     1      -1.696   6.121   8.663  1.00  0.00     0.296 C
HETATM    4  C8  UNL     1      -0.245   5.758   8.428  1.00  0.00     0.132 C
HETATM    5  C9  UNL     1       0.410   6.964   7.769  1.00  0.00     0.054 C
HETATM    6  C10 UNL     1       0.429   5.446   9.745  1.00  0.00     0.188 C
HETATM    7  C11 UNL     1      -0.671   5.332  10.785  1.00  0.00     0.183 C
ENDROOT
BRANCH   1   8
HETATM    8  C4  UNL     1      -2.724   4.069  11.315  1.00  0.00    -0.021 A
HETATM    9  C3  UNL     1      -3.231   5.050  12.139  1.00  0.00     0.049 A
HETATM   10  C2  UNL     1      -4.143   4.758  13.144  1.00  0.00     0.104 A
HETATM   11  C15 UNL     1      -4.573   3.464  13.353  1.00  0.00     0.135 A
HETATM   12  C13 UNL     1      -4.057   2.479  12.518  1.00  0.00     0.104 A
HETATM   13  C12 UNL     1      -3.151   2.774  11.520  1.00  0.00     0.049 A
BRANCH  10  14
HETATM   14  O1  UNL     1      -4.639   5.776  13.962  1.00  0.00    -0.353 OA
HETATM   15  C1  UNL     1      -3.815   6.755  14.525  1.00  0.00     0.210 C
ENDBRANCH  10  14
BRANCH  11  16
HETATM   16  O8  UNL     1      -5.484   3.175  14.359  1.00  0.00    -0.351 OA
HETATM   17  C16 UNL     1      -4.981   2.819  15.634  1.00  0.00     0.210 C
ENDBRANCH  11  16
BRANCH  12  18
HETATM   18  O7  UNL     1      -4.506   1.177  12.747  1.00  0.00    -0.353 OA
HETATM   19  C14 UNL     1      -4.128   0.181  11.840  1.00  0.00     0.210 C
ENDBRANCH  12  18
ENDBRANCH   1   8
BRANCH   7  20
HETATM   20  O6  UNL     1      -0.073   4.805  11.934  1.00  0.00    -0.390 OA
ATOM     21  H6  UNL     1       0.715   4.315  11.731  1.00  0.00     0.210 HD
ENDBRANCH   7  20
BRANCH   3  22
HETATM   22  O3  UNL     1      -2.256   6.384   7.419  1.00  0.00    -0.363 OA
HETATM   23  C7  UNL     1      -3.472   6.993   7.585  1.00  0.00     0.204 C
ENDBRANCH   3  22
BRANCH   6  24
HETATM   24  O5  UNL     1       1.290   6.466  10.074  1.00  0.00    -0.390 OA
ATOM     25  H5  UNL     1       0.792   7.234  10.329  1.00  0.00     0.210 HD
ENDBRANCH   6  24
BRANCH   4  26
HETATM   26  O4  UNL     1      -0.129   4.684   7.561  1.00  0.00    -0.382 OA
ATOM     27  H4  UNL     1       0.688   4.218   7.696  1.00  0.00     0.210 HD
ENDBRANCH   4  26
TORSDOF 8
ENDMDL