MODEL 5
REMARK VINA RESULT: -7.254038489      2.235      3.417
REMARK  7 active torsions:
REMARK  status: ('A' for Active; 'I' for Inactive)
REMARK    1  A    between atoms: C2_2  and  S1_3
REMARK    2  A    between atoms: S1_3  and  C3_4
REMARK    3  A    between atoms: C4_5  and  O1_6
REMARK    4  A    between atoms: C5_8  and  C6_9
REMARK    5  A    between atoms: C7_11  and  C8_12
REMARK    6  A    between atoms: C8_12  and  C9_13
REMARK    7  A    between atoms: C12_18  and  O5_19
ROOT
HETATM    1  C3  UNL     1      -3.316   7.589  11.342  1.00  0.00     0.112 C
HETATM    2  C4  UNL     1      -4.466   6.771  11.951  1.00  0.00     0.166 C
HETATM    3  C5  UNL     1      -3.666   5.637  12.503  1.00  0.00     0.184 C
HETATM    4  O6  UNL     1      -2.861   5.300  11.419  1.00  0.00    -0.369 OA
HETATM    5  C13 UNL     1      -2.444   6.484  10.834  1.00  0.00     0.069 C
HETATM    6  C14 UNL     1      -0.992   6.681  11.269  1.00  0.00     0.047 C
HETATM    7  C15 UNL     1      -2.506   6.302   9.345  1.00  0.00     0.047 C
ENDROOT
BRANCH   3   8
HETATM    8  C6  UNL     1      -4.465   4.474  12.986  1.00  0.00     0.187 C
HETATM    9  O2  UNL     1      -4.015   3.986  14.215  1.00  0.00    -0.350 OA
HETATM   10  C7  UNL     1      -4.856   2.915  14.516  1.00  0.00     0.267 C
HETATM   11  O4  UNL     1      -4.380   1.813  13.856  1.00  0.00    -0.358 OA
HETATM   12  C11 UNL     1      -4.189   2.020  12.526  1.00  0.00     0.205 C
HETATM   13  C12 UNL     1      -4.603   3.363  12.012  1.00  0.00     0.173 C
BRANCH  10  14
HETATM   14  C8  UNL     1      -4.981   2.692  15.999  1.00  0.00     0.138 C
BRANCH  14  15
HETATM   15  C9  UNL     1      -6.361   2.972  16.449  1.00  0.00     0.127 C
HETATM   16  C10 UNL     1      -6.816   4.364  16.650  1.00  0.00     0.091 C
HETATM   17  O3  UNL     1      -7.111   2.044  16.649  1.00  0.00    -0.298 OA
ENDBRANCH  14  15
ENDBRANCH  10  14
BRANCH  13  18
HETATM   18  O5  UNL     1      -5.905   3.242  11.499  1.00  0.00    -0.391 OA
ATOM     19  H5  UNL     1      -5.922   3.104  10.560  1.00  0.00     0.210 HD
ENDBRANCH  13  18
ENDBRANCH   3   8
BRANCH   2  20
HETATM   20  O1  UNL     1      -5.304   6.371  10.915  1.00  0.00    -0.392 OA
ATOM     21  H1  UNL     1      -5.336   5.422  10.915  1.00  0.00     0.210 HD
ENDBRANCH   2  20
BRANCH   1  22
HETATM   22  S1  UNL     1      -3.852   8.766  10.127  1.00  0.00    -0.159 SA
BRANCH  22  23
HETATM   23  C2  UNL     1      -4.744  10.105  10.992  1.00  0.00     0.070 C
HETATM   24  C1  UNL     1      -6.227   9.864  11.020  1.00  0.00     0.016 C
ENDBRANCH  22  23
ENDBRANCH   1  22
TORSDOF 7
ENDMDL