MODEL 2
REMARK VINA RESULT: -6.808010303      1.438      2.113
REMARK  9 active torsions:
REMARK  status: ('A' for Active; 'I' for Inactive)
REMARK    1  A    between atoms: C2_2  and  O1_3
REMARK    2  A    between atoms: O1_3  and  C3_4
REMARK    3  A    between atoms: C3_4  and  C4_8
REMARK    4  A    between atoms: C4_8  and  N2_9
REMARK    5  A    between atoms: C4_8  and  S1_13
REMARK    6  A    between atoms: S1_13  and  S2_14
REMARK    7  A    between atoms: S2_14  and  C5_15
REMARK    8  A    between atoms: C7_20  and  O3_21
REMARK    9  A    between atoms: C7_20  and  C8_23
ROOT
HETATM    1  C5  UNL     1      -3.672   7.265  13.027  1.00  0.00     0.156 A
HETATM    2  N3  UNL     1      -4.916   7.448  13.027  1.00  0.00    -0.327 N
ATOM      3  H3  UNL     1      -5.526   8.005  12.429  1.00  0.00     0.166 HD
HETATM    4  C6  UNL     1      -5.170   6.651  14.095  1.00  0.00     0.339 A
HETATM    5  O2  UNL     1      -5.706   5.368  14.058  1.00  0.00    -0.311 OA
HETATM    6  C7  UNL     1      -4.861   4.570  14.833  1.00  0.00     0.186 C
HETATM    7  C13 UNL     1      -3.583   5.357  15.103  1.00  0.00     0.198 C
HETATM    8  N4  UNL     1      -3.716   6.357  14.041  1.00  0.00    -0.312 N
ENDROOT
BRANCH   1   9
HETATM    9  S2  UNL     1      -2.410   7.963  11.916  1.00  0.00    -0.019 SA
BRANCH   9  10
HETATM   10  S1  UNL     1      -1.811   6.568  10.460  1.00  0.00    -0.048 SA
BRANCH  10  11
HETATM   11  C4  UNL     1      -1.431   4.941  11.202  1.00  0.00     0.329 C
BRANCH  11  12
HETATM   12  C3  UNL     1      -2.622   4.107  11.327  1.00  0.00     0.153 C
HETATM   13  N1  UNL     1      -3.772   4.549  10.965  1.00  0.00    -0.381 N
ATOM     14  H12 UNL     1      -4.604   3.966  11.052  1.00  0.00     0.158 HD
ATOM     15  H11 UNL     1      -3.824   5.496  10.589  1.00  0.00     0.158 HD
BRANCH  12  16
HETATM   16  O1  UNL     1      -2.551   2.824  11.836  1.00  0.00    -0.338 OA
BRANCH  16  17
HETATM   17  C2  UNL     1      -2.931   1.746  11.009  1.00  0.00     0.172 C
HETATM   18  C1  UNL     1      -3.925   0.900  11.763  1.00  0.00     0.034 C
ENDBRANCH  16  17
ENDBRANCH  12  16
ENDBRANCH  11  12
BRANCH  11  19
HETATM   19  N2  UNL     1      -0.798   5.226  12.496  1.00  0.00    -0.058 N
ATOM     20  H23 UNL     1      -0.521   4.363  12.965  1.00  0.00     0.276 HD
ATOM     21  H22 UNL     1       0.123   5.646  12.368  1.00  0.00     0.276 HD
ATOM     22  H21 UNL     1      -1.381   5.801  13.103  1.00  0.00     0.276 HD
ENDBRANCH  11  19
ENDBRANCH  10  11
ENDBRANCH   9  10
ENDBRANCH   1   9
BRANCH   6  23
HETATM   23  O3  UNL     1      -4.503   3.486  14.011  1.00  0.00    -0.364 OA
ATOM     24  H3  UNL     1      -5.272   3.299  13.485  1.00  0.00     0.213 HD
ENDBRANCH   6  23
BRANCH   6  25
HETATM   25  C8  UNL     1      -5.447   4.034  16.076  1.00  0.00     0.050 C
HETATM   26  C9  UNL     1      -6.930   4.138  16.221  1.00  0.00     0.010 C
HETATM   27  C10 UNL     1      -7.256   3.113  17.322  1.00  0.00     0.001 C
HETATM   28  C11 UNL     1      -6.039   2.256  17.481  1.00  0.00     0.001 C
HETATM   29  C12 UNL     1      -5.261   2.519  16.210  1.00  0.00     0.010 C
ENDBRANCH   6  25
TORSDOF 9
ENDMDL