MODEL 4
REMARK VINA RESULT: -6.766050303      2.378      3.570
REMARK  7 active torsions:
REMARK  status: ('A' for Active; 'I' for Inactive)
REMARK    1  A    between atoms: C7_9  and  C8_10
REMARK    2  A    between atoms: C8_10  and  O3_11
REMARK    3  A    between atoms: O3_11  and  C9_12
REMARK    4  A    between atoms: C9_12  and  C10_13
REMARK    5  A    between atoms: C10_13  and  C11_14
REMARK    6  A    between atoms: N1_15  and  O4_17
REMARK    7  A    between atoms: C15_25  and  O5_26
ROOT
HETATM    1  C1  UNL     1       1.648   5.419   9.246  1.00  0.00     0.078 C
HETATM    2  C2  UNL     1       0.250   5.454   8.673  1.00  0.00     0.159 C
HETATM    3  C3  UNL     1       0.411   5.582   7.153  1.00  0.00     0.078 C
HETATM    4  O1  UNL     1      -0.406   4.308   9.023  1.00  0.00    -0.337 OA
HETATM    5  C4  UNL     1      -0.973   4.638  10.259  1.00  0.00     0.225 C
HETATM    6  C5  UNL     1      -2.172   4.026  10.649  1.00  0.00    -0.115 C
HETATM    7  C6  UNL     1      -3.103   3.066  11.067  1.00  0.00     0.227 C
HETATM    8  O2  UNL     1      -3.045   2.621  12.379  1.00  0.00    -0.338 OA
HETATM    9  C7  UNL     1      -4.315   2.137  12.573  1.00  0.00     0.347 C
HETATM   10  N2  UNL     1      -5.163   3.205  12.124  1.00  0.00    -0.036 N
ATOM     11  H21 UNL     1      -5.417   3.860  12.864  1.00  0.00     0.281 HD
ATOM     12  H22 UNL     1      -6.110   2.904  11.895  1.00  0.00     0.281 HD
HETATM   13  C12 UNL     1      -4.475   3.826  11.020  1.00  0.00     0.251 C
HETATM   14  C13 UNL     1      -4.406   5.274  11.262  1.00  0.00     0.008 C
HETATM   15  C14 UNL     1      -3.984   6.298  10.320  1.00  0.00     0.005 C
HETATM   16  C15 UNL     1      -2.744   6.369   9.578  1.00  0.00     0.173 C
HETATM   17  C16 UNL     1      -1.383   6.134  10.031  1.00  0.00     0.197 C
HETATM   18  O6  UNL     1      -0.485   6.544   9.086  1.00  0.00    -0.344 OA
ENDROOT
BRANCH   9  19
HETATM   19  C8  UNL     1      -4.547   1.775  14.022  1.00  0.00     0.229 C
BRANCH  19  20
HETATM   20  O3  UNL     1      -4.521   2.864  14.854  1.00  0.00    -0.387 OA
BRANCH  20  21
HETATM   21  C9  UNL     1      -5.039   2.585  16.093  1.00  0.00     0.173 C
BRANCH  21  22
HETATM   22  C10 UNL     1      -6.443   3.040  16.320  1.00  0.00     0.073 C
BRANCH  22  23
HETATM   23  C11 UNL     1      -6.408   4.525  16.519  1.00  0.00     0.089 C
HETATM   24  N1  UNL     1      -6.397   5.357  15.533  1.00  0.00    -0.284 N
ATOM     25  H1  UNL     1      -6.372   6.353  15.754  1.00  0.00     0.192 HD
BRANCH  24  26
HETATM   26  O4  UNL     1      -6.416   5.004  14.221  1.00  0.00    -0.291 OA
ATOM     27  H4  UNL     1      -6.814   4.212  13.880  1.00  0.00     0.244 HD
ENDBRANCH  24  26
ENDBRANCH  22  23
ENDBRANCH  21  22
ENDBRANCH  20  21
ENDBRANCH  19  20
ENDBRANCH   9  19
BRANCH  16  28
HETATM   28  O5  UNL     1      -2.677   7.729   9.094  1.00  0.00    -0.389 OA
ATOM     29  H5  UNL     1      -2.473   8.253   9.860  1.00  0.00     0.210 HD
ENDBRANCH  16  28
TORSDOF 7
ENDMDL