MODEL 1
REMARK VINA RESULT: -7.719184817      0.000      0.000
REMARK  9 active torsions:
REMARK  status: ('A' for Active; 'I' for Inactive)
REMARK    1  A    between atoms: C5_6  and  O2_7
REMARK    2  A    between atoms: O2_7  and  C6_8
REMARK       I    between atoms: C6_8  and  N1_10
REMARK    3  A    between atoms: N1_10  and  C7_12
REMARK    4  A    between atoms: C7_12  and  C8_13
REMARK    5  A    between atoms: C8_13  and  O5_25
REMARK    6  A    between atoms: N2_14  and  C9_16
REMARK    7  A    between atoms: C9_16  and  C10_17
REMARK    8  A    between atoms: C10_17  and  O4_18
REMARK    9  A    between atoms: O5_25  and  N3_26
ROOT
HETATM    1  C8  UNL     1      -3.222   6.812  14.152  1.00  0.00     0.160 C
HETATM    2  N2  UNL     1      -3.992   6.647  15.166  1.00  0.00    -0.368 N
ATOM      3  H2  UNL     1      -3.610   6.562  16.107  1.00  0.00     0.161 HD
ENDROOT
BRANCH   1   4
HETATM    4  C7  UNL     1      -3.734   6.940  12.772  1.00  0.00     0.211 C
BRANCH   4   5
HETATM    5  N1  UNL     1      -3.507   5.728  12.009  1.00  0.00    -0.329 N
HETATM    6  C6  UNL     1      -4.377   5.348  10.954  1.00  0.00     0.363 C
HETATM    7  O3  UNL     1      -5.351   6.074  10.685  1.00  0.00    -0.238 OA
ATOM      8  H1  UNL     1      -2.706   5.138  12.234  1.00  0.00     0.165 HD
BRANCH   6   9
HETATM    9  O2  UNL     1      -4.185   4.197  10.211  1.00  0.00    -0.270 OA
BRANCH   9  10
HETATM   10  C5  UNL     1      -4.905   3.045  10.542  1.00  0.00     0.298 C
HETATM   11  C4  UNL     1      -4.896   2.795  12.050  1.00  0.00     0.232 C
HETATM   12  O1  UNL     1      -3.539   2.438  12.212  1.00  0.00    -0.351 OA
HETATM   13  C2  UNL     1      -3.158   1.798  11.055  1.00  0.00     0.160 C
HETATM   14  C1  UNL     1      -1.883   2.360  10.475  1.00  0.00     0.078 C
HETATM   15  C3  UNL     1      -2.933   0.329  11.413  1.00  0.00     0.078 C
HETATM   16  O6  UNL     1      -4.156   1.946  10.119  1.00  0.00    -0.323 OA
ENDBRANCH   9  10
ENDBRANCH   6   9
ENDBRANCH   4   5
ENDBRANCH   1   4
BRANCH   1  17
HETATM   17  O5  UNL     1      -1.858   6.871  14.359  1.00  0.00    -0.230 OA
BRANCH  17  18
HETATM   18  N3  UNL     1      -1.196   5.719  14.726  1.00  0.00    -0.304 N
ATOM     19  H32 UNL     1      -1.700   4.979  15.214  1.00  0.00     0.184 HD
ATOM     20  H31 UNL     1      -0.206   5.633  14.499  1.00  0.00     0.184 HD
ENDBRANCH  17  18
ENDBRANCH   1  17
BRANCH   2  21
HETATM   21  C9  UNL     1      -5.418   6.586  14.933  1.00  0.00     0.159 C
BRANCH  21  22
HETATM   22  C10 UNL     1      -5.962   5.187  15.164  1.00  0.00     0.074 C
HETATM   23  C11 UNL     1      -4.790   4.268  15.329  1.00  0.00     0.039 C
HETATM   24  C12 UNL     1      -4.811   3.571  16.677  1.00  0.00     0.003 C
HETATM   25  C13 UNL     1      -6.173   2.873  16.763  1.00  0.00     0.000 C
HETATM   26  C14 UNL     1      -7.265   3.902  16.885  1.00  0.00     0.003 C
HETATM   27  C15 UNL     1      -6.821   5.266  16.419  1.00  0.00     0.039 C
BRANCH  22  28
HETATM   28  O4  UNL     1      -6.802   4.790  14.129  1.00  0.00    -0.388 OA
ATOM     29  H4  UNL     1      -7.103   3.897  14.249  1.00  0.00     0.210 HD
ENDBRANCH  22  28
ENDBRANCH  21  22
ENDBRANCH   2  21
TORSDOF 9
ENDMDL