MODEL 1
REMARK VINA RESULT: -5.603734887      0.000      0.000
REMARK  10 active torsions:
REMARK  status: ('A' for Active; 'I' for Inactive)
REMARK    1  A    between atoms: S1_2  and  C2_3
REMARK    2  A    between atoms: C2_3  and  C3_4
REMARK    3  A    between atoms: C3_4  and  S2_5
REMARK    4  A    between atoms: C5_7  and  O1_8
REMARK    5  A    between atoms: C6_10  and  N1_11
REMARK    6  A    between atoms: N1_11  and  N2_13
REMARK    7  A    between atoms: N2_13  and  N3_14
REMARK    8  A    between atoms: C9_20  and  O2_21
REMARK    9  A    between atoms: O2_21  and  C10_22
REMARK   10  A    between atoms: C11_25  and  O4_26
ROOT
HETATM    1  C3  UNL     1      -3.073   4.866  11.611  1.00  0.00     0.072 C
HETATM    2  C5  UNL     1      -3.041   3.343  11.654  1.00  0.00     0.166 C
HETATM    3  C6  UNL     1      -4.343   2.788  12.172  1.00  0.00     0.165 C
HETATM    4  C7  UNL     1      -4.912   3.486  13.350  1.00  0.00     0.152 C
HETATM    5  C8  UNL     1      -4.626   2.745  14.598  1.00  0.00     0.069 C
HETATM    6  N4  UNL     1      -4.393   2.182  15.579  1.00  0.00    -0.197 NA
HETATM    7  C9  UNL     1      -4.588   4.939  13.483  1.00  0.00     0.183 C
HETATM    8  C11 UNL     1      -3.187   5.300  13.041  1.00  0.00     0.171 C
ENDROOT
BRANCH   3   9
HETATM    9  N1  UNL     1      -4.087   1.395  12.556  1.00  0.00    -0.244 N
ATOM     10  H1  UNL     1      -4.212   1.095  13.524  1.00  0.00     0.197 HD
BRANCH   9  11
HETATM   11  N2  UNL     1      -3.721   0.591  11.699  1.00  0.00    -0.248 NA
BRANCH  11  12
HETATM   12  N3  UNL     1      -3.103  -0.263  11.068  1.00  0.00    -0.261 N
ATOM     13  H32 UNL     1      -2.298   0.340  10.902  1.00  0.00     0.193 HD
ATOM     14  H31 UNL     1      -2.823  -1.126  10.600  1.00  0.00     0.193 HD
ENDBRANCH  11  12
ENDBRANCH   9  11
ENDBRANCH   3   9
BRANCH   7  15
HETATM   15  O2  UNL     1      -4.889   5.354  14.789  1.00  0.00    -0.297 OA
BRANCH  15  16
HETATM   16  C10 UNL     1      -6.117   5.870  15.171  1.00  0.00     0.373 C
HETATM   17  N5  UNL     1      -6.800   5.419  16.337  1.00  0.00    -0.032 NA
HETATM   18  O3  UNL     1      -6.566   6.757  14.410  1.00  0.00    -0.242 OA
ENDBRANCH  15  16
ENDBRANCH   7  15
BRANCH   2  19
HETATM   19  O1  UNL     1      -2.896   2.903  10.339  1.00  0.00    -0.392 OA
ATOM     20  H1  UNL     1      -3.622   2.317  10.161  1.00  0.00     0.210 HD
ENDBRANCH   2  19
BRANCH   8  21
HETATM   21  O4  UNL     1      -3.054   6.656  13.113  1.00  0.00    -0.391 OA
ATOM     22  H4  UNL     1      -2.927   6.911  14.019  1.00  0.00     0.210 HD
ENDBRANCH   8  21
BRANCH   1  23
HETATM   23  C2  UNL     1      -1.880   5.327  10.852  1.00  0.00     0.099 C
BRANCH  23  24
HETATM   24  S1  UNL     1      -0.288   5.104  11.587  1.00  0.00    -0.172 SA
HETATM   25  C1  UNL     1       1.058   5.907  10.726  1.00  0.00     0.089 C
ENDBRANCH  23  24
ENDBRANCH   1  23
BRANCH   1  26
HETATM   26  S2  UNL     1      -4.607   5.294  10.717  1.00  0.00    -0.157 SA
HETATM   27  C4  UNL     1      -4.611   6.985  10.128  1.00  0.00     0.091 C
ENDBRANCH   1  26
TORSDOF 10
ENDMDL