MODEL 5
REMARK VINA RESULT: -6.446890026      2.385      4.554
REMARK  11 active torsions:
REMARK  status: ('A' for Active; 'I' for Inactive)
REMARK    1  A    between atoms: C2_2  and  C3_3
REMARK    2  A    between atoms: C5_5  and  O1_6
REMARK    3  A    between atoms: C6_8  and  O2_9
REMARK    4  A    between atoms: C7_11  and  O3_12
REMARK    5  A    between atoms: C8_14  and  S1_15
REMARK    6  A    between atoms: S1_15  and  C9_16
REMARK    7  A    between atoms: C9_16  and  C10_17
REMARK    8  A    between atoms: C10_17  and  C11_18
REMARK    9  A    between atoms: C11_18  and  O4_20
REMARK   10  A    between atoms: O4_20  and  C13_21
REMARK   11  A    between atoms: N1_24  and  O6_26
ROOT
HETATM    1  C3  UNL     1      -1.724   6.077  10.047  1.00  0.00    -0.001 C
HETATM    2  C4  UNL     1      -2.833   6.289   9.042  1.00  0.00     0.019 C
HETATM    3  C5  UNL     1      -1.288   7.367  10.696  1.00  0.00     0.158 C
HETATM    4  C6  UNL     1      -0.778   6.977  12.066  1.00  0.00     0.177 C
HETATM    5  C7  UNL     1      -1.356   5.619  12.360  1.00  0.00     0.164 C
HETATM    6  C8  UNL     1      -2.320   5.328  11.233  1.00  0.00     0.095 C
ENDROOT
BRANCH   6   7
HETATM    7  S1  UNL     1      -2.494   3.593  10.891  1.00  0.00    -0.106 SA
BRANCH   7   8
HETATM    8  C9  UNL     1      -3.852   2.759  11.606  1.00  0.00     0.071 C
HETATM    9  N1  UNL     1      -3.955   1.505  11.709  1.00  0.00    -0.265 N
ATOM     10  H1  UNL     1      -4.795   1.117  12.140  1.00  0.00     0.194 HD
BRANCH   8  11
HETATM   11  C10 UNL     1      -4.982   3.549  12.232  1.00  0.00     0.098 C
BRANCH  11  12
HETATM   12  C11 UNL     1      -4.549   3.746  13.676  1.00  0.00     0.134 C
HETATM   13  C12 UNL     1      -5.069   5.069  14.180  1.00  0.00     0.040 C
BRANCH  12  14
HETATM   14  O4  UNL     1      -5.015   2.654  14.412  1.00  0.00    -0.316 OA
BRANCH  14  15
HETATM   15  C13 UNL     1      -4.855   2.510  15.780  1.00  0.00     0.255 C
HETATM   16  C14 UNL     1      -6.012   2.508  16.719  1.00  0.00     0.126 C
HETATM   17  O5  UNL     1      -3.690   2.380  16.207  1.00  0.00    -0.266 OA
ENDBRANCH  14  15
ENDBRANCH  12  14
ENDBRANCH  11  12
ENDBRANCH   8  11
BRANCH   9  18
HETATM   18  O6  UNL     1      -3.008   0.660  11.274  1.00  0.00    -0.285 OA
HETATM   19  C15 UNL     1      -3.128  -0.757  11.399  1.00  0.00     0.237 C
ENDBRANCH   9  18
ENDBRANCH   7   8
ENDBRANCH   6   7
BRANCH   1  20
HETATM   20  C2  UNL     1      -0.546   5.369   9.458  1.00  0.00     0.009 C
HETATM   21  C1  UNL     1      -0.616   5.454   7.948  1.00  0.00     0.006 C
ENDBRANCH   1  20
BRANCH   5  22
HETATM   22  O3  UNL     1      -0.380   4.624  12.465  1.00  0.00    -0.392 OA
ATOM     23  H3  UNL     1      -0.160   4.416  13.365  1.00  0.00     0.210 HD
ENDBRANCH   5  22
BRANCH   3  24
HETATM   24  O1  UNL     1      -2.343   8.278  10.823  1.00  0.00    -0.392 OA
ATOM     25  H1  UNL     1      -3.047   7.938  11.362  1.00  0.00     0.210 HD
ENDBRANCH   3  24
BRANCH   4  26
HETATM   26  O2  UNL     1       0.615   6.994  12.081  1.00  0.00    -0.390 OA
ATOM     27  H2  UNL     1       0.943   7.445  11.312  1.00  0.00     0.210 HD
ENDBRANCH   4  26
TORSDOF 11
ENDMDL