MODEL 1
REMARK VINA RESULT: -7.372878241      0.000      0.000
REMARK  8 active torsions:
REMARK  status: ('A' for Active; 'I' for Inactive)
REMARK    1  A    between atoms: O1_2  and  C2_3
REMARK    2  A    between atoms: C7_8  and  O2_9
REMARK    3  A    between atoms: O2_9  and  C8_10
REMARK    4  A    between atoms: C9_12  and  C10_13
REMARK    5  A    between atoms: C10_13  and  O4_14
REMARK    6  A    between atoms: C11_16  and  O5_17
REMARK    7  A    between atoms: C12_19  and  O6_20
REMARK    8  A    between atoms: C13_22  and  N1_23
ROOT
HETATM    1  C2  UNL     1      -3.164   7.318  13.316  1.00  0.00     0.083 A
HETATM    2  C3  UNL     1      -4.014   6.588  14.117  1.00  0.00    -0.019 A
HETATM    3  C4  UNL     1      -4.708   7.311  15.202  1.00  0.00     0.052 C
HETATM    4  C5  UNL     1      -4.178   5.234  13.883  1.00  0.00    -0.017 A
HETATM    5  C6  UNL     1      -5.109   4.507  14.799  1.00  0.00     0.052 C
HETATM    6  C7  UNL     1      -3.511   4.576  12.862  1.00  0.00     0.112 A
HETATM    7  C13 UNL     1      -2.667   5.309  12.071  1.00  0.00     0.145 A
HETATM    8  C14 UNL     1      -2.495   6.676  12.299  1.00  0.00     0.008 A
HETATM    9  C15 UNL     1      -1.572   7.434  11.421  1.00  0.00     0.054 C
ENDROOT
BRANCH   6  10
HETATM   10  O2  UNL     1      -3.677   3.251  12.640  1.00  0.00    -0.315 OA
BRANCH  10  11
HETATM   11  C8  UNL     1      -4.742   2.509  12.212  1.00  0.00     0.298 C
HETATM   12  O3  UNL     1      -4.430   1.156  12.581  1.00  0.00    -0.348 OA
HETATM   13  C9  UNL     1      -3.500   0.740  11.632  1.00  0.00     0.179 C
HETATM   14  C11 UNL     1      -3.908   1.406  10.331  1.00  0.00     0.182 C
HETATM   15  C12 UNL     1      -5.013   2.388  10.761  1.00  0.00     0.205 C
BRANCH  13  16
HETATM   16  C10 UNL     1      -3.483  -0.755  11.490  1.00  0.00     0.198 C
BRANCH  16  17
HETATM   17  O4  UNL     1      -2.164  -1.155  11.298  1.00  0.00    -0.398 OA
ATOM     18  H4  UNL     1      -2.173  -2.028  10.925  1.00  0.00     0.209 HD
ENDBRANCH  16  17
ENDBRANCH  13  16
BRANCH  14  19
HETATM   19  O5  UNL     1      -2.790   2.086   9.857  1.00  0.00    -0.390 OA
ATOM     20  H5  UNL     1      -3.109   2.832   9.362  1.00  0.00     0.210 HD
ENDBRANCH  14  19
BRANCH  15  21
HETATM   21  O6  UNL     1      -4.964   3.505   9.995  1.00  0.00    -0.388 OA
ATOM     22  H6  UNL     1      -5.390   3.494   9.145  1.00  0.00     0.210 HD
ENDBRANCH  15  21
ENDBRANCH  10  11
ENDBRANCH   6  10
BRANCH   7  23
HETATM   23  N1  UNL     1      -1.908   4.748  10.980  1.00  0.00    -0.112 N
HETATM   24  O7  UNL     1      -0.828   4.164  11.202  1.00  0.00    -0.532 OA
HETATM   25  O8  UNL     1      -2.339   4.845   9.706  1.00  0.00    -0.532 OA
ENDBRANCH   7  23
BRANCH   1  26
HETATM   26  O1  UNL     1      -2.953   8.689  13.495  1.00  0.00    -0.355 OA
HETATM   27  C1  UNL     1      -1.958   9.231  14.333  1.00  0.00     0.210 C
ENDBRANCH   1  26
TORSDOF 8
ENDMDL