MODEL 4
REMARK VINA RESULT: -7.253442236      2.520      7.464
REMARK  10 active torsions:
REMARK  status: ('A' for Active; 'I' for Inactive)
REMARK    1  A    between atoms: C4_4  and  C5_5
REMARK    2  A    between atoms: C5_5  and  O2_7
REMARK    3  A    between atoms: O2_7  and  C6_8
REMARK    4  A    between atoms: C8_11  and  C9_12
REMARK    5  A    between atoms: C9_12  and  O4_13
REMARK    6  A    between atoms: C10_15  and  O5_16
REMARK    7  A    between atoms: O5_16  and  C11_17
REMARK    8  A    between atoms: C11_17  and  C12_19
REMARK    9  A    between atoms: C15_22  and  O7_23
REMARK   10  A    between atoms: C16_25  and  O8_26
ROOT
HETATM    1  C6  UNL     1      -4.531   2.689  13.123  1.00  0.00     0.181 C
HETATM    2  C7  UNL     1      -3.731   3.336  12.322  1.00  0.00     0.100 C
HETATM    3  O3  UNL     1      -3.306   4.605  12.669  1.00  0.00    -0.341 OA
HETATM    4  C8  UNL     1      -2.918   5.550  11.706  1.00  0.00     0.184 C
HETATM    5  C10 UNL     1      -2.097   4.998  10.584  1.00  0.00     0.195 C
HETATM    6  C15 UNL     1      -1.973   3.503  10.587  1.00  0.00     0.185 C
HETATM    7  C16 UNL     1      -3.231   2.796  11.033  1.00  0.00     0.208 C
ENDROOT
BRANCH   1   8
HETATM    8  O2  UNL     1      -4.969   3.241  14.316  1.00  0.00    -0.285 OA
BRANCH   8   9
HETATM    9  C5  UNL     1      -5.006   2.541  15.499  1.00  0.00     0.287 C
HETATM   10  O1  UNL     1      -4.916   1.263  15.453  1.00  0.00    -0.260 OA
BRANCH   9  11
HETATM   11  C4  UNL     1      -5.141   3.181  16.777  1.00  0.00     0.084 C
HETATM   12  C2  UNL     1      -6.302   3.341  17.368  1.00  0.00    -0.082 C
HETATM   13  C1  UNL     1      -7.565   2.889  16.794  1.00  0.00     0.043 C
HETATM   14  C3  UNL     1      -6.307   4.040  18.727  1.00  0.00     0.043 C
ENDBRANCH   9  11
ENDBRANCH   8   9
ENDBRANCH   1   8
BRANCH   7  15
HETATM   15  O8  UNL     1      -2.863   1.454  11.297  1.00  0.00    -0.386 OA
ATOM     16  H8  UNL     1      -3.234   0.942  10.588  1.00  0.00     0.210 HD
ENDBRANCH   7  15
BRANCH   4  17
HETATM   17  C9  UNL     1      -4.168   6.269  11.183  1.00  0.00     0.199 C
BRANCH  17  18
HETATM   18  O4  UNL     1      -5.063   5.414  10.600  1.00  0.00    -0.398 OA
ATOM     19  H4  UNL     1      -5.470   4.827  11.227  1.00  0.00     0.209 HD
ENDBRANCH  17  18
ENDBRANCH   4  17
BRANCH   6  20
HETATM   20  O7  UNL     1      -1.668   3.022   9.312  1.00  0.00    -0.390 OA
ATOM     21  H7  UNL     1      -0.998   2.350   9.352  1.00  0.00     0.210 HD
ENDBRANCH   6  20
BRANCH   5  22
HETATM   22  O5  UNL     1      -2.618   5.509   9.377  1.00  0.00    -0.310 OA
BRANCH  22  23
HETATM   23  C11 UNL     1      -1.800   6.155   8.464  1.00  0.00     0.262 C
HETATM   24  O6  UNL     1      -0.582   5.842   8.470  1.00  0.00    -0.265 OA
BRANCH  23  25
HETATM   25  C12 UNL     1      -2.260   7.163   7.509  1.00  0.00     0.077 C
HETATM   26  C13 UNL     1      -3.726   7.044   7.171  1.00  0.00     0.020 C
HETATM   27  C14 UNL     1      -1.476   7.110   6.204  1.00  0.00     0.020 C
ENDBRANCH  23  25
ENDBRANCH  22  23
ENDBRANCH   5  22
TORSDOF 10
ENDMDL