MODEL 1
REMARK VINA RESULT: -7.844381458      0.000      0.000
REMARK  7 active torsions:
REMARK  status: ('A' for Active; 'I' for Inactive)
REMARK    1  A    between atoms: C5_8  and  N2_9
REMARK    2  A    between atoms: C6_11  and  C7_12
REMARK    3  A    between atoms: C7_12  and  C8_13
REMARK    4  A    between atoms: C8_13  and  C9_14
REMARK    5  A    between atoms: C9_14  and  N3_15
REMARK    6  A    between atoms: N3_15  and  C10_17
REMARK    7  A    between atoms: C16_25  and  C17_26
ROOT
HETATM    1  C8  UNL     1      -2.931   1.403  10.370  1.00  0.00     0.049 C
ENDROOT
BRANCH   1   2
HETATM    2  C7  UNL     1      -4.264   1.504  11.167  1.00  0.00     0.050 C
BRANCH   2   3
HETATM    3  C6  UNL     1      -4.870   2.878  11.050  1.00  0.00     0.079 C
HETATM    4  N2  UNL     1      -4.879   3.609  12.190  1.00  0.00    -0.205 N
ATOM      5  H2  UNL     1      -4.805   4.553  11.812  1.00  0.00     0.183 HD
BRANCH   4   6
HETATM    6  C5  UNL     1      -4.919   3.841  13.362  1.00  0.00     0.684 A
HETATM    7  N1  UNL     1      -4.297   2.982  14.255  1.00  0.00    -0.156 N
HETATM    8  C4  UNL     1      -4.332   3.198  15.568  1.00  0.00     0.261 A
ATOM      9  H1  UNL     1      -3.802   2.164  13.898  1.00  0.00     0.187 HD
HETATM   10  C3  UNL     1      -5.003   4.298  16.047  1.00  0.00     0.100 A
HETATM   11  O1  UNL     1      -3.760   2.415  16.396  1.00  0.00    -0.268 OA
HETATM   12  C2  UNL     1      -5.629   5.172  15.184  1.00  0.00     0.028 A
HETATM   13  C1  UNL     1      -6.335   6.383  15.734  1.00  0.00     0.069 C
HETATM   14  N5  UNL     1      -5.573   4.924  13.866  1.00  0.00    -0.196 N
ATOM     15  H5  UNL     1      -6.034   5.566  13.221  1.00  0.00     0.184 HD
ENDBRANCH   4   6
ENDBRANCH   2   3
ENDBRANCH   1   2
BRANCH   1  16
HETATM   16  C9  UNL     1      -1.903   2.137  11.135  1.00  0.00     0.063 C
BRANCH  16  17
HETATM   17  N3  UNL     1      -1.253   3.260  10.620  1.00  0.00    -0.355 N
ATOM     18  H3  UNL     1      -0.881   3.159   9.675  1.00  0.00     0.166 HD
BRANCH  17  19
HETATM   19  C10 UNL     1      -1.058   4.406  11.175  1.00  0.00     0.112 A
HETATM   20  N4  UNL     1      -1.608   4.729  12.352  1.00  0.00    -0.346 N
HETATM   21  C11 UNL     1      -1.574   5.987  12.830  1.00  0.00     0.007 A
ATOM     22  H4  UNL     1      -2.065   4.002  12.902  1.00  0.00     0.167 HD
HETATM   23  C12 UNL     1      -2.189   6.315  14.149  1.00  0.00     0.068 C
HETATM   24  C13 UNL     1      -0.948   6.913  12.054  1.00  0.00     0.032 A
HETATM   25  C14 UNL     1      -0.347   6.637  10.803  1.00  0.00    -0.050 A
HETATM   26  C15 UNL     1       0.395   7.687  10.111  1.00  0.00     0.049 C
HETATM   27  C16 UNL     1      -0.403   5.349  10.347  1.00  0.00    -0.005 A
BRANCH  27  28
HETATM   28  C17 UNL     1       0.213   4.901   9.106  1.00  0.00     0.015 C
HETATM   29  C18 UNL     1      -0.459   5.528   7.866  1.00  0.00     0.015 C
HETATM   30  C19 UNL     1       1.721   5.251   9.017  1.00  0.00     0.015 C
ENDBRANCH  27  28
ENDBRANCH  17  19
ENDBRANCH  16  17
ENDBRANCH   1  16
TORSDOF 7
ENDMDL