MODEL 3
REMARK VINA RESULT: -7.351564924      1.737      5.075
REMARK  6 active torsions:
REMARK  status: ('A' for Active; 'I' for Inactive)
REMARK    1  A    between atoms: C2_2  and  C3_3
REMARK    2  A    between atoms: C2_2  and  N1_6
REMARK    3  A    between atoms: C3_3  and  O1_4
REMARK       I    between atoms: N1_6  and  C4_8
REMARK       I    between atoms: C4_8  and  N2_10
REMARK    4  A    between atoms: N2_10  and  C5_12
REMARK    5  A    between atoms: N3_22  and  C14_23
REMARK    6  A    between atoms: C14_23  and  C15_24
ROOT
HETATM    1  C5  UNL     1      -4.535   5.656  13.561  1.00  0.00     0.069 C
HETATM    2  C6  UNL     1      -3.271   5.872  14.382  1.00  0.00     0.071 C
HETATM    3  C7  UNL     1      -2.435   6.818  13.575  1.00  0.00     0.180 C
HETATM    4  F1  UNL     1      -1.151   6.952  14.048  1.00  0.00    -0.249 F
HETATM    5  C8  UNL     1      -3.102   8.148  13.528  1.00  0.00    -0.016 C
HETATM    6  C9  UNL     1      -2.777   8.943  14.802  1.00  0.00     0.018 C
HETATM    7  C10 UNL     1      -2.407   8.934  12.402  1.00  0.00     0.018 C
HETATM    8  C11 UNL     1      -4.558   8.153  13.255  1.00  0.00     0.020 C
HETATM    9  C12 UNL     1      -5.322   6.936  13.566  1.00  0.00     0.045 C
HETATM   10  C13 UNL     1      -5.926   6.919  14.977  1.00  0.00     0.279 C
HETATM   11  N3  UNL     1      -5.764   5.600  15.500  1.00  0.00     0.091 N
HETATM   12  C19 UNL     1      -5.458   4.755  14.364  1.00  0.00     0.303 C
ENDROOT
BRANCH   1  13
HETATM   13  N2  UNL     1      -4.270   5.158  12.251  1.00  0.00    -0.332 N
HETATM   14  C4  UNL     1      -3.890   3.823  12.033  1.00  0.00     0.317 C
HETATM   15  N1  UNL     1      -3.611   3.304  10.727  1.00  0.00    -0.337 N
HETATM   16  O2  UNL     1      -3.779   3.021  12.992  1.00  0.00    -0.247 OA
ATOM     17  H1  UNL     1      -3.687   3.925   9.922  1.00  0.00     0.164 HD
ATOM     18  H2  UNL     1      -4.358   5.787  11.452  1.00  0.00     0.165 HD
BRANCH  15  19
HETATM   19  C2  UNL     1      -3.226   1.925  10.515  1.00  0.00     0.105 C
HETATM   20  C1  UNL     1      -1.868   1.621  11.048  1.00  0.00     0.034 C
BRANCH  19  21
HETATM   21  C3  UNL     1      -4.302   0.997  11.051  1.00  0.00     0.189 C
BRANCH  21  22
HETATM   22  O1  UNL     1      -3.724   0.117  11.995  1.00  0.00    -0.399 OA
ATOM     23  H1  UNL     1      -4.347  -0.569  12.203  1.00  0.00     0.209 HD
ENDBRANCH  21  22
ENDBRANCH  19  21
ENDBRANCH  15  19
ENDBRANCH   1  13
BRANCH  11  24
HETATM   24  C14 UNL     1      -6.954   5.064  16.105  1.00  0.00     0.277 C
BRANCH  24  25
HETATM   25  C15 UNL     1      -6.703   4.245  17.346  1.00  0.00     0.014 C
HETATM   26  C16 UNL     1      -5.362   3.566  17.404  1.00  0.00     0.006 C
HETATM   27  C17 UNL     1      -5.992   2.233  17.027  1.00  0.00     0.001 C
HETATM   28  C18 UNL     1      -7.354   2.886  17.190  1.00  0.00     0.006 C
ENDBRANCH  24  25
ENDBRANCH  11  24
TORSDOF 6
ENDMDL