MODEL 3
REMARK VINA RESULT: -6.513599506      3.952      6.984
REMARK  8 active torsions:
REMARK  status: ('A' for Active; 'I' for Inactive)
REMARK    1  A    between atoms: O1_2  and  C2_3
REMARK    2  A    between atoms: C2_3  and  C3_4
REMARK    3  A    between atoms: C3_4  and  C5_12
REMARK    4  A    between atoms: N1_5  and  N2_7
REMARK    5  A    between atoms: N2_7  and  C4_9
REMARK    6  A    between atoms: C7_14  and  C8_15
REMARK    7  A    between atoms: C9_16  and  C10_17
REMARK    8  A    between atoms: C13_23  and  C14_24
ROOT
HETATM    1  C5  UNL     1      -3.811   4.349  11.865  1.00  0.00     0.016 A
HETATM    2  C6  UNL     1      -4.753   5.350  11.587  1.00  0.00     0.054 A
HETATM    3  C7  UNL     1      -4.172   6.328  10.823  1.00  0.00     0.088 A
HETATM    4  N4  UNL     1      -2.915   5.962  10.623  1.00  0.00    -0.351 N
ATOM      5  H4  UNL     1      -2.230   6.493  10.086  1.00  0.00     0.166 HD
HETATM    6  C13 UNL     1      -2.670   4.760  11.250  1.00  0.00     0.026 A
ENDROOT
BRANCH   1   7
HETATM    7  C3  UNL     1      -4.148   3.141  12.630  1.00  0.00     0.061 C
HETATM    8  N1  UNL     1      -4.130   3.253  13.907  1.00  0.00    -0.300 N
ATOM      9  H1  UNL     1      -3.868   4.162  14.287  1.00  0.00     0.186 HD
BRANCH   7  10
HETATM   10  C2  UNL     1      -4.521   1.854  12.023  1.00  0.00     0.226 C
BRANCH  10  11
HETATM   11  O1  UNL     1      -3.742   0.776  12.459  1.00  0.00    -0.390 OA
HETATM   12  C1  UNL     1      -3.402  -0.075  11.435  1.00  0.00     0.201 C
ENDBRANCH  10  11
ENDBRANCH   7  10
BRANCH   8  13
HETATM   13  N2  UNL     1      -4.426   2.278  14.802  1.00  0.00    -0.278 N
ATOM     14  H2  UNL     1      -4.093   1.333  14.609  1.00  0.00     0.189 HD
BRANCH  13  15
HETATM   15  C4  UNL     1      -5.178   2.495  16.004  1.00  0.00     0.199 C
HETATM   16  N3  UNL     1      -5.680   1.453  16.820  1.00  0.00    -0.068 NA
HETATM   17  S1  UNL     1      -5.467   4.033  16.441  1.00  0.00    -0.043 SA
ENDBRANCH  13  15
ENDBRANCH   8  13
ENDBRANCH   1   7
BRANCH   6  18
HETATM   18  C14 UNL     1      -1.345   4.124  11.241  1.00  0.00     0.028 C
HETATM   19  C15 UNL     1      -1.340   2.911  10.292  1.00  0.00     0.016 C
HETATM   20  C16 UNL     1      -0.368   5.099  10.548  1.00  0.00     0.016 C
ENDBRANCH   6  18
BRANCH   3  21
HETATM   21  C8  UNL     1      -4.854   7.524  10.347  1.00  0.00    -0.047 C
HETATM   22  C9  UNL     1      -5.438   8.514   9.966  1.00  0.00    -0.074 C
BRANCH  22  23
HETATM   23  C10 UNL     1      -6.159   9.709   9.519  1.00  0.00     0.093 C
HETATM   24  C11 UNL     1      -5.367  10.502   8.509  1.00  0.00     0.046 C
HETATM   25  C12 UNL     1      -6.325  10.601  10.740  1.00  0.00     0.046 C
HETATM   26 CL1  UNL     1      -7.744   9.316   8.828  1.00  0.00    -0.106 Cl
ENDBRANCH  22  23
ENDBRANCH   3  21
TORSDOF 8
ENDMDL