MODEL 4
REMARK VINA RESULT: -6.869203706      3.031      7.102
REMARK  6 active torsions:
REMARK  status: ('A' for Active; 'I' for Inactive)
REMARK    1  A    between atoms: C5_9  and  C6_10
REMARK    2  A    between atoms: C6_10  and  N3_11
REMARK       I    between atoms: N3_11  and  C7_13
REMARK       I    between atoms: C7_13  and  N4_15
REMARK    3  A    between atoms: C12_20  and  C13_21
REMARK    4  A    between atoms: C13_21  and  O2_22
REMARK    5  A    between atoms: C13_21  and  C14_24
REMARK    6  A    between atoms: C14_24  and  C15_25
ROOT
HETATM    1  N3  UNL     1      -2.898   6.957   9.973  1.00  0.00    -0.318 N
ATOM      2  H3  UNL     1      -2.295   7.718  10.285  1.00  0.00     0.170 HD
HETATM    3  C7  UNL     1      -3.809   6.366  10.924  1.00  0.00     0.322 C
HETATM    4  O1  UNL     1      -4.553   5.405  10.518  1.00  0.00    -0.247 OA
HETATM    5  N4  UNL     1      -3.884   6.826  12.265  1.00  0.00    -0.323 N
HETATM    6  C8  UNL     1      -3.037   7.893  12.685  1.00  0.00     0.128 C
HETATM    7  C9  UNL     1      -2.920   8.118  14.147  1.00  0.00     0.020 C
HETATM    8  C10 UNL     1      -4.122   7.761  14.938  1.00  0.00     0.004 C
HETATM    9  C11 UNL     1      -5.260   7.220  14.120  1.00  0.00     0.032 C
HETATM   10  C12 UNL     1      -4.872   6.137  13.141  1.00  0.00     0.145 C
ENDROOT
BRANCH  10  11
HETATM   11  C13 UNL     1      -4.294   4.912  13.714  1.00  0.00     0.062 C
BRANCH  11  12
HETATM   12  O2  UNL     1      -3.094   4.464  13.157  1.00  0.00    -0.363 OA
ATOM     13  H2  UNL     1      -2.822   3.583  13.382  1.00  0.00     0.217 HD
ENDBRANCH  11  12
BRANCH  11  14
HETATM   14  C14 UNL     1      -4.426   4.516  15.104  1.00  0.00     0.012 C
BRANCH  14  15
HETATM   15  C15 UNL     1      -5.577   3.753  15.627  1.00  0.00     0.016 C
HETATM   16  C16 UNL     1      -5.413   2.908  16.856  1.00  0.00     0.045 C
HETATM   17  C17 UNL     1      -6.780   3.417  17.330  1.00  0.00     0.171 C
HETATM   18  F1  UNL     1      -7.810   2.576  16.937  1.00  0.00    -0.249 F
HETATM   19  C18 UNL     1      -6.572   4.609  16.433  1.00  0.00     0.045 C
ENDBRANCH  14  15
ENDBRANCH  11  14
ENDBRANCH  10  11
BRANCH   1  20
HETATM   20  C6  UNL     1      -2.805   6.534   8.635  1.00  0.00     0.108 C
BRANCH  20  21
HETATM   21  C5  UNL     1      -1.548   6.012   8.120  1.00  0.00     0.027 A
HETATM   22  C2  UNL     1      -0.991   6.495   6.911  1.00  0.00     0.035 A
HETATM   23  C1  UNL     1      -1.589   7.588   6.101  1.00  0.00     0.070 C
HETATM   24  N1  UNL     1       0.125   5.793   6.680  1.00  0.00    -0.304 N
HETATM   25  N2  UNL     1       0.323   4.908   7.633  1.00  0.00    -0.304 N
ATOM     26  H1  UNL     1       0.737   5.926   5.875  1.00  0.00     0.186 HD
HETATM   27  C3  UNL     1      -0.709   5.024   8.542  1.00  0.00     0.035 A
ATOM     28  H2  UNL     1       1.101   4.252   7.690  1.00  0.00     0.186 HD
HETATM   29  C4  UNL     1      -0.865   4.157   9.748  1.00  0.00     0.070 C
ENDBRANCH  20  21
ENDBRANCH   1  20
TORSDOF 6
ENDMDL