MODEL 1
REMARK VINA RESULT: -9.101687146      0.000      0.000
REMARK  6 active torsions:
REMARK  status: ('A' for Active; 'I' for Inactive)
REMARK    1  A    between atoms: C2_2  and  C3_3
REMARK    2  A    between atoms: C3_3  and  N1_4
REMARK       I    between atoms: N1_4  and  C4_6
REMARK    3  A    between atoms: C4_6  and  C5_8
REMARK    4  A    between atoms: C8_11  and  C9_12
REMARK    5  A    between atoms: C9_12  and  N2_13
REMARK    6  A    between atoms: C9_12  and  C10_17
ROOT
HETATM    1  N1  UNL     1      -5.319   7.645  12.594  1.00  0.00    -0.336 N
ATOM      2  H1  UNL     1      -6.109   7.048  12.839  1.00  0.00     0.168 HD
HETATM    3  C4  UNL     1      -4.339   7.762  13.581  1.00  0.00     0.225 C
HETATM    4  O1  UNL     1      -3.305   8.444  13.429  1.00  0.00    -0.273 OA
ENDROOT
BRANCH   3   5
HETATM    5  C5  UNL     1      -4.534   7.031  14.899  1.00  0.00     0.078 C
HETATM    6  C6  UNL     1      -5.995   6.761  15.043  1.00  0.00     0.014 C
HETATM    7  C7  UNL     1      -6.268   5.537  15.913  1.00  0.00     0.008 C
HETATM    8  C8  UNL     1      -5.701   4.289  15.297  1.00  0.00     0.027 C
HETATM    9  C11 UNL     1      -4.665   4.680  14.291  1.00  0.00     0.008 C
HETATM   10  C12 UNL     1      -3.734   5.737  14.866  1.00  0.00     0.014 C
BRANCH   8  11
HETATM   11  C9  UNL     1      -5.201   3.393  16.380  1.00  0.00     0.287 C
BRANCH  11  12
HETATM   12  N2  UNL     1      -4.115   2.543  15.972  1.00  0.00    -0.065 N
ATOM     13  H23 UNL     1      -4.469   1.675  15.570  1.00  0.00     0.275 HD
ATOM     14  H22 UNL     1      -3.643   2.929  15.155  1.00  0.00     0.275 HD
ATOM     15  H21 UNL     1      -3.445   2.347  16.716  1.00  0.00     0.275 HD
ENDBRANCH  11  12
BRANCH  11  16
HETATM   16  C10 UNL     1      -6.323   2.548  16.854  1.00  0.00     0.204 C
HETATM   17  O2  UNL     1      -7.538   2.858  16.778  1.00  0.00    -0.646 OA
HETATM   18  O3  UNL     1      -6.030   1.322  17.428  1.00  0.00    -0.646 OA
ENDBRANCH  11  16
ENDBRANCH   8  11
ENDBRANCH   3   5
BRANCH   1  19
HETATM   19  C3  UNL     1      -5.383   8.226  11.311  1.00  0.00     0.098 C
BRANCH  19  20
HETATM   20  C2  UNL     1      -6.602   8.950  10.938  1.00  0.00    -0.043 C
HETATM   21  C1  UNL     1      -7.640   9.417  11.865  1.00  0.00     0.050 C
HETATM   22  C13 UNL     1      -6.792   9.253   9.621  1.00  0.00    -0.049 C
HETATM   23  C14 UNL     1      -6.050   9.006   8.355  1.00  0.00     0.111 C
HETATM   24  C18 UNL     1      -7.814   9.965   8.813  1.00  0.00     0.093 C
HETATM   25  C15 UNL     1      -5.319  10.242   7.981  1.00  0.00    -0.016 C
HETATM   26  C19 UNL     1      -7.419   9.034   7.657  1.00  0.00     0.261 C
HETATM   27  C16 UNL     1      -5.968  11.397   8.095  1.00  0.00    -0.029 C
HETATM   28  C17 UNL     1      -7.364  11.369   8.582  1.00  0.00     0.042 C
HETATM   29  F1  UNL     1      -8.068   7.829   7.683  1.00  0.00    -0.204 F
HETATM   30  F2  UNL     1      -7.405   9.676   6.441  1.00  0.00    -0.204 F
ENDBRANCH  19  20
ENDBRANCH   1  19
TORSDOF 6
ENDMDL