MODEL 2
REMARK VINA RESULT: -8.193907713      3.023      6.422
REMARK  5 active torsions:
REMARK  status: ('A' for Active; 'I' for Inactive)
REMARK       I    between atoms: C1_2  and  N1_3
REMARK    1  A    between atoms: C1_2  and  C9_11
REMARK    2  A    between atoms: N1_3  and  C2_4
REMARK    3  A    between atoms: C2_4  and  C3_5
REMARK    4  A    between atoms: C11_17  and  C12_18
REMARK       I    between atoms: C12_18  and  N4_20
REMARK    5  A    between atoms: N4_20  and  C13_22
ROOT
HETATM    1  C9  UNL     1      -2.763   4.536  10.735  1.00  0.00     0.149 A
HETATM    2  N2  UNL     1      -1.597   4.408  10.049  1.00  0.00    -0.345 N
ATOM      3  H2  UNL     1      -1.232   5.046   9.341  1.00  0.00     0.167 HD
HETATM    4  C10 UNL     1      -1.031   3.302  10.473  1.00  0.00     0.181 A
HETATM    5  N3  UNL     1      -1.771   2.692  11.407  1.00  0.00    -0.346 N
ATOM      6  H3  UNL     1      -1.553   1.821  11.891  1.00  0.00     0.167 HD
HETATM    7  C11 UNL     1      -2.879   3.478  11.580  1.00  0.00     0.135 A
ENDROOT
BRANCH   7   8
HETATM    8  C12 UNL     1      -3.942   3.196  12.554  1.00  0.00     0.271 C
HETATM    9  O2  UNL     1      -4.860   2.372  12.427  1.00  0.00    -0.266 OA
HETATM   10  N4  UNL     1      -3.925   3.948  13.775  1.00  0.00    -0.351 N
ATOM     11  H4  UNL     1      -3.193   4.637  13.944  1.00  0.00     0.163 HD
BRANCH  10  12
HETATM   12  C13 UNL     1      -4.946   3.724  14.757  1.00  0.00     0.085 C
HETATM   13  C14 UNL     1      -4.381   2.905  15.930  1.00  0.00     0.028 C
HETATM   14  C15 UNL     1      -5.558   2.459  16.758  1.00  0.00     0.039 C
HETATM   15  C16 UNL     1      -6.244   3.671  17.348  1.00  0.00     0.170 C
HETATM   16  F1  UNL     1      -7.419   3.251  17.946  1.00  0.00    -0.249 F
HETATM   17  C17 UNL     1      -6.611   4.683  16.289  1.00  0.00     0.039 C
HETATM   18  C18 UNL     1      -5.471   5.003  15.364  1.00  0.00     0.028 C
ENDBRANCH  10  12
ENDBRANCH   7   8
BRANCH   1  19
HETATM   19  C1  UNL     1      -3.683   5.715  10.572  1.00  0.00     0.344 C
HETATM   20  O1  UNL     1      -4.181   5.875   9.424  1.00  0.00    -0.249 OA
HETATM   21  N1  UNL     1      -3.944   6.535  11.633  1.00  0.00    -0.382 NA
BRANCH  21  22
HETATM   22  C2  UNL     1      -4.210   7.358  12.687  1.00  0.00     0.164 C
BRANCH  22  23
HETATM   23  C3  UNL     1      -3.071   8.308  13.060  1.00  0.00     0.038 C
HETATM   24  C4  UNL     1      -3.102   8.612  14.506  1.00  0.00     0.011 C
HETATM   25  C5  UNL     1      -2.219   9.732  14.946  1.00  0.00     0.001 C
HETATM   26  C6  UNL     1      -1.832  10.708  13.893  1.00  0.00     0.000 C
HETATM   27  C7  UNL     1      -1.731  10.215  12.502  1.00  0.00     0.001 C
HETATM   28  C8  UNL     1      -3.065   9.522  12.166  1.00  0.00     0.011 C
ENDBRANCH  22  23
ENDBRANCH  21  22
ENDBRANCH   1  19
TORSDOF 5
ENDMDL