MODEL 3
REMARK VINA RESULT: -7.505341181      1.080      1.698
REMARK  6 active torsions:
REMARK  status: ('A' for Active; 'I' for Inactive)
REMARK    1  A    between atoms: C2_2  and  O1_3
REMARK    2  A    between atoms: O1_3  and  C3_4
REMARK    3  A    between atoms: C3_4  and  C4_5
REMARK    4  A    between atoms: C4_5  and  N1_6
REMARK       I    between atoms: N1_6  and  C5_8
REMARK       I    between atoms: C5_8  and  N3_15
REMARK       I    between atoms: N2_9  and  C6_11
REMARK    5  A    between atoms: C6_11  and  O3_13
REMARK    6  A    between atoms: N3_15  and  C8_17
ROOT
HETATM    1  N1  UNL     1      -4.896   2.946  11.917  1.00  0.00    -0.224 N
ATOM      2  H1  UNL     1      -5.879   3.043  11.666  1.00  0.00     0.177 HD
HETATM    3  C5  UNL     1      -4.460   3.083  13.279  1.00  0.00     0.679 C
HETATM    4  N2  UNL     1      -4.869   2.200  14.099  1.00  0.00    -0.135 N
ATOM      5  H2  UNL     1      -5.473   1.467  13.726  1.00  0.00     0.189 HD
HETATM    6  C6  UNL     1      -4.568   2.138  15.478  1.00  0.00     0.378 C
HETATM    7  O2  UNL     1      -3.491   2.536  15.992  1.00  0.00    -0.238 OA
HETATM    8  N3  UNL     1      -3.622   4.180  13.582  1.00  0.00    -0.217 N
ATOM      9  H3  UNL     1      -2.635   3.988  13.753  1.00  0.00     0.178 HD
ENDROOT
BRANCH   1  10
HETATM   10  C4  UNL     1      -3.889   2.664  10.914  1.00  0.00     0.164 C
BRANCH  10  11
HETATM   11  C3  UNL     1      -2.979   1.598  11.490  1.00  0.00     0.187 C
BRANCH  11  12
HETATM   12  O1  UNL     1      -1.639   1.972  11.405  1.00  0.00    -0.390 OA
BRANCH  12  13
HETATM   13  C2  UNL     1      -1.503   3.068  10.568  1.00  0.00     0.163 C
HETATM   14  C1  UNL     1      -0.820   4.238  11.276  1.00  0.00     0.033 C
ENDBRANCH  12  13
ENDBRANCH  11  12
ENDBRANCH  10  11
ENDBRANCH   1  10
BRANCH   8  15
HETATM   15  C8  UNL     1      -4.060   5.548  13.669  1.00  0.00     0.050 C
HETATM   16  C9  UNL     1      -5.166   5.709  14.690  1.00  0.00     0.036 C
HETATM   17  C10 UNL     1      -5.594   7.151  14.748  1.00  0.00    -0.010 C
HETATM   18  C11 UNL     1      -6.062   7.683  13.425  1.00  0.00     0.009 C
HETATM   19  C15 UNL     1      -4.380   7.951  15.206  1.00  0.00     0.030 C
HETATM   20  C12 UNL     1      -4.963   7.474  12.404  1.00  0.00    -0.010 C
HETATM   21  C13 UNL     1      -3.788   8.341  12.845  1.00  0.00     0.030 C
HETATM   22  C17 UNL     1      -4.524   6.043  12.329  1.00  0.00     0.036 C
HETATM   23  C14 UNL     1      -3.305   7.829  14.177  1.00  0.00     0.040 C
HETATM   24 CL1  UNL     1      -1.906   8.826  14.687  1.00  0.00    -0.119 Cl
HETATM   25  C16 UNL     1      -2.866   6.384  14.099  1.00  0.00     0.057 C
ENDBRANCH   8  15
BRANCH   6  26
HETATM   26  O3  UNL     1      -5.523   1.603  16.331  1.00  0.00    -0.308 OA
HETATM   27  C7  UNL     1      -6.105   2.362  17.357  1.00  0.00     0.215 C
ENDBRANCH   6  26
TORSDOF 6
ENDMDL