MODEL 5
REMARK VINA RESULT: -7.283629912      3.567      6.863
REMARK  7 active torsions:
REMARK  status: ('A' for Active; 'I' for Inactive)
REMARK    1  A    between atoms: C3_3  and  C4_4
REMARK    2  A    between atoms: C4_4  and  C5_5
REMARK    3  A    between atoms: C8_11  and  N1_12
REMARK    4  A    between atoms: N1_12  and  C9_14
REMARK    5  A    between atoms: C13_20  and  N3_21
REMARK    6  A    between atoms: N3_21  and  C14_23
REMARK    7  A    between atoms: C14_23  and  C15_24
ROOT
HETATM    1  C9  UNL     1      -1.546   5.825  10.216  1.00  0.00     0.684 A
HETATM    2  N2  UNL     1      -1.099   5.276   9.074  1.00  0.00    -0.201 N
ATOM      3  H2  UNL     1      -1.782   4.949   8.391  1.00  0.00     0.183 HD
HETATM    4  C10 UNL     1       0.217   5.137   8.789  1.00  0.00     0.116 A
HETATM    5  C11 UNL     1       1.166   5.567   9.690  1.00  0.00    -0.002 A
HETATM    6  C12 UNL     1       2.609   5.432   9.420  1.00  0.00     0.054 C
HETATM    7  C13 UNL     1       0.706   6.139  10.881  1.00  0.00     0.124 A
HETATM    8  N4  UNL     1      -0.619   6.246  11.096  1.00  0.00    -0.176 N
ATOM      9  H4  UNL     1      -0.937   6.666  11.970  1.00  0.00     0.186 HD
ENDROOT
BRANCH   1  10
HETATM   10  N1  UNL     1      -2.793   5.969  10.514  1.00  0.00    -0.188 N
ATOM     11  H1  UNL     1      -3.375   6.504   9.869  1.00  0.00     0.184 HD
BRANCH  10  12
HETATM   12  C8  UNL     1      -3.405   5.443  11.658  1.00  0.00     0.094 A
HETATM   13  C7  UNL     1      -3.595   4.059  11.760  1.00  0.00     0.144 A
HETATM   14  C6  UNL     1      -4.196   3.509  12.869  1.00  0.00     0.052 A
HETATM   15  F1  UNL     1      -3.191   3.219  10.776  1.00  0.00    -0.204 F
HETATM   16  C3  UNL     1      -4.640   4.299  13.933  1.00  0.00    -0.039 A
HETATM   17  C2  UNL     1      -4.464   5.648  13.851  1.00  0.00    -0.047 A
HETATM   18  C1  UNL     1      -4.943   6.521  14.954  1.00  0.00     0.049 C
HETATM   19  C18 UNL     1      -3.854   6.186  12.723  1.00  0.00    -0.025 A
HETATM   20  C19 UNL     1      -3.680   7.648  12.663  1.00  0.00     0.051 C
BRANCH  16  21
HETATM   21  C4  UNL     1      -5.270   3.660  15.128  1.00  0.00     0.152 C
BRANCH  21  22
HETATM   22  C5  UNL     1      -4.502   2.548  15.668  1.00  0.00     0.176 C
HETATM   23  O1  UNL     1      -3.530   2.732  16.439  1.00  0.00    -0.648 OA
HETATM   24  O2  UNL     1      -4.882   1.246  15.297  1.00  0.00    -0.648 OA
ENDBRANCH  21  22
ENDBRANCH  16  21
ENDBRANCH  10  12
ENDBRANCH   1  10
BRANCH   7  25
HETATM   25  N3  UNL     1       1.596   6.530  11.698  1.00  0.00    -0.375 N
ATOM     26  H3  UNL     1       1.999   5.816  12.304  1.00  0.00     0.161 HD
BRANCH  25  27
HETATM   27  C14 UNL     1       2.097   7.860  11.865  1.00  0.00     0.126 C
BRANCH  27  28
HETATM   28  C15 UNL     1       3.379   7.887  12.670  1.00  0.00     0.003 A
HETATM   29  C16 UNL     1       4.670   7.873  11.792  1.00  0.00     0.007 A
HETATM   30  C17 UNL     1       4.324   6.767  12.703  1.00  0.00     0.007 A
ENDBRANCH  27  28
ENDBRANCH  25  27
ENDBRANCH   7  25
TORSDOF 7
ENDMDL