MODEL 2
REMARK VINA RESULT: -6.742646730      3.870      7.378
REMARK  6 active torsions:
REMARK  status: ('A' for Active; 'I' for Inactive)
REMARK    1  A    between atoms: C2_2  and  N1_3
REMARK    2  A    between atoms: C2_2  and  C3_8
REMARK    3  A    between atoms: C3_8  and  N2_9
REMARK       I    between atoms: N2_9  and  C4_10
REMARK    4  A    between atoms: N2_9  and  C15_24
REMARK       I    between atoms: C4_10  and  N3_12
REMARK    5  A    between atoms: N3_12  and  C5_14
REMARK    6  A    between atoms: C5_14  and  C6_15
ROOT
HETATM    1  N2  UNL     1      -4.141   4.877  11.806  1.00  0.00    -0.324 N
HETATM    2  C4  UNL     1      -4.166   5.873  10.752  1.00  0.00     0.318 C
HETATM    3  O1  UNL     1      -3.714   5.467   9.625  1.00  0.00    -0.247 OA
HETATM    4  N3  UNL     1      -4.624   7.184  10.841  1.00  0.00    -0.343 N
ATOM      5  H3  UNL     1      -5.007   7.548  11.714  1.00  0.00     0.164 HD
ENDROOT
BRANCH   1   6
HETATM    6  C3  UNL     1      -4.464   5.325  13.120  1.00  0.00     0.183 C
BRANCH   6   7
HETATM    7  C2  UNL     1      -3.433   5.948  13.973  1.00  0.00     0.211 C
HETATM    8  C1  UNL     1      -2.055   6.119  13.416  1.00  0.00     0.066 C
HETATM    9 CL1  UNL     1      -3.943   7.513  14.710  1.00  0.00    -0.087 Cl
BRANCH   7  10
HETATM   10  N1  UNL     1      -3.284   5.049  15.155  1.00  0.00    -0.056 N
ATOM     11  H13 UNL     1      -4.104   4.468  15.331  1.00  0.00     0.276 HD
ATOM     12  H12 UNL     1      -2.624   4.286  15.007  1.00  0.00     0.276 HD
ATOM     13  H11 UNL     1      -3.039   5.656  15.937  1.00  0.00     0.276 HD
ENDBRANCH   7  10
ENDBRANCH   6   7
ENDBRANCH   1   6
BRANCH   1  14
HETATM   14  C15 UNL     1      -3.883   3.564  11.362  1.00  0.00     0.116 C
HETATM   15  C16 UNL     1      -4.481   2.520  12.392  1.00  0.00     0.054 C
HETATM   16  C17 UNL     1      -4.124   1.273  11.616  1.00  0.00     0.234 C
HETATM   17  N4  UNL     1      -2.802   1.522  11.110  1.00  0.00    -0.073 N
HETATM   18  C18 UNL     1      -2.534   2.971  11.321  1.00  0.00     0.257 C
ATOM     19  H42 UNL     1      -2.093   0.917  11.521  1.00  0.00     0.277 HD
ATOM     20  H41 UNL     1      -2.678   1.225  10.142  1.00  0.00     0.277 HD
ENDBRANCH   1  14
BRANCH   4  21
HETATM   21  C5  UNL     1      -4.540   8.023   9.653  1.00  0.00     0.129 C
BRANCH  21  22
HETATM   22  C6  UNL     1      -5.890   8.402   9.125  1.00  0.00     0.009 C
HETATM   23  C7  UNL     1      -6.750   9.076  10.194  1.00  0.00     0.011 C
HETATM   24  C8  UNL     1      -7.895   9.707   9.387  1.00  0.00    -0.013 C
HETATM   25  C9  UNL     1      -8.282   8.845   8.217  1.00  0.00     0.010 C
HETATM   26  C13 UNL     1      -7.256  10.980   8.818  1.00  0.00     0.010 C
HETATM   27  C10 UNL     1      -7.230   8.831   7.146  1.00  0.00    -0.009 C
HETATM   28  C11 UNL     1      -7.055  10.227   6.532  1.00  0.00     0.010 C
HETATM   29  C14 UNL     1      -5.885   9.113   7.833  1.00  0.00    -0.001 C
HETATM   30  C12 UNL     1      -6.247  10.537   7.808  1.00  0.00    -0.009 C
ENDBRANCH  21  22
ENDBRANCH   4  21
TORSDOF 6
ENDMDL