MODEL 3
REMARK VINA RESULT: -6.825373253      6.021      8.356
REMARK  8 active torsions:
REMARK  status: ('A' for Active; 'I' for Inactive)
REMARK    1  A    between atoms: C2_2  and  C4_4
REMARK    2  A    between atoms: C5_5  and  C6_6
REMARK    3  A    between atoms: C9_9  and  C10_10
REMARK    4  A    between atoms: C10_10  and  N1_11
REMARK    5  A    between atoms: N1_11  and  C11_13
REMARK    6  A    between atoms: N3_20  and  C15_22
REMARK    7  A    between atoms: C15_22  and  C16_23
REMARK    8  A    between atoms: C16_23  and  O1_24
ROOT
HETATM    1  C11 UNL     1      -1.246   6.968  12.384  1.00  0.00     0.679 A
HETATM    2  N2  UNL     1      -0.764   7.477  11.236  1.00  0.00    -0.200 N
ATOM      3  H2  UNL     1      -0.572   8.476  11.174  1.00  0.00     0.183 HD
HETATM    4  C12 UNL     1      -0.530   6.694  10.171  1.00  0.00     0.133 A
HETATM    5  C13 UNL     1      -0.783   5.318  10.227  1.00  0.00     0.094 A
HETATM    6 CL1  UNL     1      -0.458   4.345   8.802  1.00  0.00    -0.079 Cl
HETATM    7  C14 UNL     1      -1.274   4.809  11.399  1.00  0.00     0.140 A
HETATM    8  N3  UNL     1      -1.534   3.593  11.557  1.00  0.00    -0.372 N
ATOM      9  H3  UNL     1      -1.891   3.367  12.486  1.00  0.00     0.161 HD
HETATM   10  N4  UNL     1      -1.493   5.665  12.459  1.00  0.00    -0.175 N
ATOM     11  H4  UNL     1      -1.857   5.283  13.332  1.00  0.00     0.186 HD
ENDROOT
BRANCH   1  12
HETATM   12  N1  UNL     1      -1.477   7.713  13.423  1.00  0.00    -0.226 N
ATOM     13  H1  UNL     1      -0.713   7.925  14.064  1.00  0.00     0.177 HD
BRANCH  12  14
HETATM   14  C10 UNL     1      -2.797   8.252  13.694  1.00  0.00     0.142 C
BRANCH  14  15
HETATM   15  C9  UNL     1      -3.698   7.150  14.236  1.00  0.00     0.004 C
HETATM   16  C8  UNL     1      -4.548   6.631  13.125  1.00  0.00     0.007 C
HETATM   17  C7  UNL     1      -5.499   5.590  13.648  1.00  0.00     0.017 C
HETATM   18  C6  UNL     1      -6.369   6.114  14.739  1.00  0.00     0.065 C
HETATM   19  C18 UNL     1      -5.948   7.421  15.311  1.00  0.00     0.017 C
HETATM   20  C17 UNL     1      -4.453   7.572  15.446  1.00  0.00     0.007 C
BRANCH  18  21
HETATM   21  C5  UNL     1      -6.544   5.122  15.827  1.00  0.00    -0.101 C
HETATM   22  C4  UNL     1      -6.668   4.322  16.720  1.00  0.00    -0.102 C
BRANCH  22  23
HETATM   23  C2  UNL     1      -6.794   3.352  17.813  1.00  0.00     0.057 C
HETATM   24  C1  UNL     1      -6.262   3.941  19.078  1.00  0.00     0.023 C
HETATM   25  C3  UNL     1      -6.028   2.112  17.380  1.00  0.00     0.023 C
ENDBRANCH  22  23
ENDBRANCH  18  21
ENDBRANCH  14  15
ENDBRANCH  12  14
ENDBRANCH   1  12
BRANCH   8  26
HETATM   26  C15 UNL     1      -1.429   2.474  10.702  1.00  0.00     0.147 C
BRANCH  26  27
HETATM   27  C16 UNL     1      -2.678   1.597  10.918  1.00  0.00     0.183 C
BRANCH  27  28
HETATM   28  O1  UNL     1      -3.309   1.386   9.692  1.00  0.00    -0.399 OA
ATOM     29  H1  UNL     1      -4.229   1.204   9.841  1.00  0.00     0.209 HD
ENDBRANCH  27  28
ENDBRANCH  26  27
ENDBRANCH   8  26
TORSDOF 8
ENDMDL