MODEL 5
REMARK VINA RESULT: -4.813062427      3.445      4.763
REMARK  2 active torsions:
REMARK  status: ('A' for Active; 'I' for Inactive)
REMARK    1  A    between atoms: C3_3  and  C4_4
REMARK    2  A    between atoms: C9_10  and  O1_11
ROOT
HETATM    1  C1  UNL     1      -3.075   6.074  14.630  1.00  0.00     0.012 C
HETATM    2  C2  UNL     1      -3.527   5.808  13.542  1.00  0.00    -0.117 C
HETATM    3  C3  UNL     1      -4.053   5.477  12.216  1.00  0.00     0.107 C
ENDROOT
BRANCH   3   4
HETATM    4  C4  UNL     1      -3.765   4.067  11.934  1.00  0.00     0.027 C
HETATM    5  C5  UNL     1      -4.266   3.093  12.974  1.00  0.00     0.045 C
HETATM    6  C6  UNL     1      -4.285   1.791  12.167  1.00  0.00     0.277 C
HETATM    7  N1  UNL     1      -3.974   2.164  10.787  1.00  0.00     0.117 N
HETATM    8  C7  UNL     1      -2.556   2.523  10.664  1.00  0.00     0.277 C
HETATM    9  C9  UNL     1      -4.535   3.529  10.716  1.00  0.00     0.366 C
HETATM   10  C8  UNL     1      -2.362   3.710  11.611  1.00  0.00     0.045 C
BRANCH   9  11
HETATM   11  O1  UNL     1      -5.878   3.546  11.014  1.00  0.00    -0.367 OA
ATOM     12  H1  UNL     1      -6.160   2.652  11.165  1.00  0.00     0.212 HD
ENDBRANCH   9  11
ENDBRANCH   3   4
TORSDOF 2
ENDMDL