MODEL 4
REMARK VINA RESULT: -4.341886343      2.775      4.635
REMARK  2 active torsions:
REMARK  status: ('A' for Active; 'I' for Inactive)
REMARK    1  A    between atoms: C3_3  and  C4_4
REMARK    2  A    between atoms: C4_4  and  N1_5
ROOT
HETATM    1  C1  UNL     1      -3.083  -0.316  11.245  1.00  0.00     0.112 C
HETATM    2  C2  UNL     1      -3.747   0.979  11.487  1.00  0.00    -0.109 C
HETATM    3  C3  UNL     1      -4.267   2.065  11.712  1.00  0.00    -0.077 C
ENDROOT
BRANCH   3   4
HETATM    4  C4  UNL     1      -4.825   3.367  12.018  1.00  0.00     0.365 C
BRANCH   4   5
HETATM    5  N1  UNL     1      -4.139   3.993  13.134  1.00  0.00     0.102 N
HETATM    6  C5  UNL     1      -4.278   5.451  13.030  1.00  0.00     0.303 C
HETATM    7  C6  UNL     1      -4.073   6.091  14.364  1.00  0.00     0.302 C
HETATM    8  N2  UNL     1      -5.156   5.773  15.283  1.00  0.00     0.087 N
HETATM    9  C7  UNL     1      -6.185   6.794  15.243  1.00  0.00     0.310 C
HETATM   10  C8  UNL     1      -5.667   4.438  15.045  1.00  0.00     0.302 C
HETATM   11  C9  UNL     1      -4.661   3.535  14.408  1.00  0.00     0.303 C
ENDBRANCH   4   5
ENDBRANCH   3   4
TORSDOF 2
ENDMDL