MODEL 2
REMARK VINA RESULT: -5.040021553      1.083      3.961
REMARK  0 active torsions:
REMARK  status: ('A' for Active; 'I' for Inactive)
ROOT
HETATM    1  C1  UNL     1      -7.326   2.785  17.078  1.00  0.00     0.309 C
HETATM    2  N1  UNL     1      -6.222   3.725  16.977  1.00  0.00     0.085 N
HETATM    3  C2  UNL     1      -6.631   4.978  16.445  1.00  0.00     0.277 C
HETATM    4  C3  UNL     1      -5.383   5.522  15.790  1.00  0.00     0.025 C
HETATM    5  C4  UNL     1      -5.705   6.503  14.718  1.00  0.00     0.012 C
HETATM    6  C5  UNL     1      -4.393   7.085  14.212  1.00  0.00     0.045 C
HETATM    7  C6  UNL     1      -3.906   6.129  13.123  1.00  0.00     0.060 C
HETATM    8  N2  UNL     1      -4.686   4.975  13.016  1.00  0.00    -0.382 N
ATOM      9  H2  UNL     1      -5.340   4.866  12.241  1.00  0.00     0.164 HD
HETATM   10  C7  UNL     1      -4.563   3.968  13.984  1.00  0.00     0.067 C
HETATM   11  C8  UNL     1      -4.564   4.369  15.399  1.00  0.00     0.058 C
HETATM   12  C9  UNL     1      -5.115   3.225  16.233  1.00  0.00     0.282 C
ENDROOT
TORSDOF 0
ENDMDL