MODEL 2
REMARK VINA RESULT: -4.973405225      1.226      1.945
REMARK  1 active torsions:
REMARK  status: ('A' for Active; 'I' for Inactive)
REMARK    1  A    between atoms: N1_5  and  C5_6
ROOT
HETATM    1  C1  UNL     1      -4.721   7.620  12.767  1.00  0.00     0.032 C
HETATM    2  C2  UNL     1      -4.669   6.692  13.981  1.00  0.00     0.074 C
HETATM    3  C3  UNL     1      -6.063   6.577  14.504  1.00  0.00     0.054 C
HETATM    4  C4  UNL     1      -6.132   6.066  15.925  1.00  0.00     0.275 C
HETATM    5  N1  UNL     1      -6.017   4.638  15.939  1.00  0.00     0.094 N
HETATM    6  C8  UNL     1      -4.708   4.201  15.557  1.00  0.00     0.292 C
HETATM    7  C9  UNL     1      -4.656   4.278  14.029  1.00  0.00     0.144 C
HETATM    8  N2  UNL     1      -4.050   5.486  13.580  1.00  0.00    -0.416 N
ATOM      9  H2  UNL     1      -3.212   5.482  13.000  1.00  0.00     0.153 HD
ENDROOT
BRANCH   5  10
HETATM   10  C5  UNL     1      -6.514   4.083  17.156  1.00  0.00     0.223 A
HETATM   11  C6  UNL     1      -6.180   2.748  17.655  1.00  0.00     0.038 A
HETATM   12  C7  UNL     1      -7.473   2.904  16.936  1.00  0.00     0.038 A
ENDBRANCH   5  10
TORSDOF 1
ENDMDL