MODEL 3
REMARK VINA RESULT: -4.871911363      1.263      2.298
REMARK  1 active torsions:
REMARK  status: ('A' for Active; 'I' for Inactive)
REMARK    1  A    between atoms: C2_2  and  C4_4
ROOT
HETATM    1  C4  UNL     1      -6.076   4.535  15.288  1.00  0.00     0.448 C
HETATM    2  N1  UNL     1      -5.794   5.917  14.964  1.00  0.00    -0.035 N
ATOM      3  H11 UNL     1      -5.567   6.471  15.791  1.00  0.00     0.280 HD
ATOM      4  H12 UNL     1      -6.629   6.426  14.675  1.00  0.00     0.280 HD
HETATM    5  C5  UNL     1      -4.736   5.966  13.955  1.00  0.00     0.192 C
HETATM    6  C6  UNL     1      -4.806   4.753  13.041  1.00  0.00     0.063 C
HETATM    7  C7  UNL     1      -4.555   3.516  13.879  1.00  0.00     0.277 C
HETATM    8  N2  UNL     1      -4.802   3.848  15.300  1.00  0.00     0.123 N
HETATM    9  C8  UNL     1      -3.707   4.697  15.751  1.00  0.00     0.277 C
HETATM   10  C9  UNL     1      -3.427   5.814  14.740  1.00  0.00     0.063 C
ENDROOT
BRANCH   1  11
HETATM   11  C2  UNL     1      -6.806   4.320  16.533  1.00  0.00    -0.033 C
HETATM   12  C1  UNL     1      -7.092   5.347  17.318  1.00  0.00     0.018 C
HETATM   13  C3  UNL     1      -7.259   2.966  16.980  1.00  0.00     0.046 C
ENDBRANCH   1  11
TORSDOF 1
ENDMDL