MODEL 3
REMARK VINA RESULT: -5.397643812      1.621      3.217
REMARK  2 active torsions:
REMARK  status: ('A' for Active; 'I' for Inactive)
REMARK    1  A    between atoms: O1_1  and  C1_3
REMARK    2  A    between atoms: C1_3  and  C2_4
ROOT
HETATM    1  C2  UNL     1      -5.713   4.519  14.532  1.00  0.00     0.246 C
HETATM    2  C3  UNL     1      -5.922   6.002  14.527  1.00  0.00     0.038 C
HETATM    3  C4  UNL     1      -6.091   6.610  15.875  1.00  0.00     0.004 C
HETATM    4  C5  UNL     1      -6.865   5.759  16.843  1.00  0.00     0.036 C
HETATM    5  C6  UNL     1      -6.708   4.299  16.608  1.00  0.00     0.223 C
HETATM    6  C7  UNL     1      -6.534   3.473  17.833  1.00  0.00     0.037 C
HETATM    7  C8  UNL     1      -5.843   2.222  17.271  1.00  0.00     0.032 C
HETATM    8  C9  UNL     1      -5.154   2.697  16.007  1.00  0.00     0.273 C
HETATM    9  N1  UNL     1      -5.433   4.107  15.898  1.00  0.00     0.099 N
ENDROOT
BRANCH   1  10
HETATM   10  C1  UNL     1      -4.618   4.095  13.581  1.00  0.00     0.199 C
BRANCH  10  11
HETATM   11  O1  UNL     1      -5.162   4.155  12.291  1.00  0.00    -0.399 OA
ATOM     12  H1  UNL     1      -5.132   3.272  11.941  1.00  0.00     0.209 HD
ENDBRANCH  10  11
ENDBRANCH   1  10
TORSDOF 2
ENDMDL