MODEL 5
REMARK VINA RESULT: -4.722049252      2.929      4.182
REMARK  1 active torsions:
REMARK  status: ('A' for Active; 'I' for Inactive)
REMARK    1  A    between atoms: C5_6  and  C6_7
ROOT
HETATM    1  C1  UNL     1      -3.338   5.010  10.920  1.00  0.00     0.309 C
HETATM    2  N1  UNL     1      -4.009   3.702  10.969  1.00  0.00     0.084 N
HETATM    3  C2  UNL     1      -3.086   2.652  10.787  1.00  0.00     0.272 C
HETATM    4  C3  UNL     1      -3.317   1.381  11.494  1.00  0.00     0.031 C
HETATM    5  C4  UNL     1      -4.136   1.451  12.731  1.00  0.00     0.010 C
HETATM    6  C5  UNL     1      -4.166   2.870  13.199  1.00  0.00     0.045 C
HETATM    7  C9  UNL     1      -4.820   3.675  12.128  1.00  0.00     0.278 C
ENDROOT
BRANCH   6   8
HETATM    8  C6  UNL     1      -4.811   3.038  14.549  1.00  0.00     0.193 C
HETATM    9  C7  UNL     1      -4.461   4.306  15.286  1.00  0.00     0.061 C
HETATM   10  C8  UNL     1      -4.552   3.401  16.508  1.00  0.00     0.235 C
HETATM   11  N2  UNL     1      -4.163   2.301  15.622  1.00  0.00    -0.070 N
ATOM     12  H22 UNL     1      -4.418   1.336  15.832  1.00  0.00     0.277 HD
ATOM     13  H21 UNL     1      -3.192   1.999  15.547  1.00  0.00     0.277 HD
ENDBRANCH   6   8
TORSDOF 1
ENDMDL