MODEL 4
REMARK VINA RESULT: -4.887243979      1.557      1.867
REMARK  1 active torsions:
REMARK  status: ('A' for Active; 'I' for Inactive)
REMARK    1  A    between atoms: C2_2  and  C4_4
ROOT
HETATM    1  C4  UNL     1      -5.338   4.177  16.428  1.00  0.00     0.229 C
HETATM    2  C5  UNL     1      -6.191   5.344  15.933  1.00  0.00     0.077 C
HETATM    3  C6  UNL     1      -4.859   5.753  15.291  1.00  0.00     0.263 C
HETATM    4  C7  UNL     1      -4.961   6.381  13.961  1.00  0.00     0.091 C
HETATM    5  N1  UNL     1      -4.347   5.761  12.870  1.00  0.00    -0.398 N
ATOM      6  H1  UNL     1      -4.017   6.311  12.077  1.00  0.00     0.158 HD
HETATM    7  C8  UNL     1      -4.191   4.352  12.886  1.00  0.00     0.149 C
HETATM    8  C9  UNL     1      -4.790   3.672  14.092  1.00  0.00     0.293 C
HETATM    9  N2  UNL     1      -4.494   4.365  15.311  1.00  0.00     0.104 N
ENDROOT
BRANCH   1  10
HETATM   10  C2  UNL     1      -6.165   2.946  16.528  1.00  0.00     0.011 C
HETATM   11  C1  UNL     1      -7.616   3.415  16.725  1.00  0.00     0.011 C
HETATM   12  C3  UNL     1      -5.778   2.006  17.611  1.00  0.00     0.011 C
ENDBRANCH   1  10
TORSDOF 1
ENDMDL