MODEL 4
REMARK VINA RESULT: -5.037312166      2.341      3.699
REMARK  1 active torsions:
REMARK  status: ('A' for Active; 'I' for Inactive)
REMARK    1  A    between atoms: C6_9  and  O1_10
ROOT
HETATM    1  C1  UNL     1      -6.493   6.973  15.469  1.00  0.00     0.014 C
HETATM    2  C2  UNL     1      -5.405   6.653  15.040  1.00  0.00    -0.080 C
HETATM    3  C3  UNL     1      -4.096   6.244  14.509  1.00  0.00     0.329 C
HETATM    4  C4  UNL     1      -3.475   5.198  15.432  1.00  0.00     0.283 C
HETATM    5  N1  UNL     1      -3.947   3.966  14.886  1.00  0.00    -0.038 N
ATOM      6  H11 UNL     1      -4.401   3.381  15.586  1.00  0.00     0.280 HD
ATOM      7  H12 UNL     1      -3.185   3.334  14.641  1.00  0.00     0.280 HD
HETATM    8  C5  UNL     1      -4.800   4.241  13.776  1.00  0.00     0.449 C
HETATM    9  C6  UNL     1      -4.583   3.347  12.589  1.00  0.00     0.183 C
HETATM   10  C8  UNL     1      -3.596   4.036  11.682  1.00  0.00     0.066 C
HETATM   11  C9  UNL     1      -3.153   5.211  12.554  1.00  0.00     0.279 C
HETATM   12  N2  UNL     1      -4.353   5.528  13.278  1.00  0.00     0.140 N
ENDROOT
BRANCH   9  13
HETATM   13  O1  UNL     1      -4.066   2.143  13.084  1.00  0.00    -0.387 OA
HETATM   14  C7  UNL     1      -3.998   1.242  12.015  1.00  0.00     0.202 C
ENDBRANCH   9  13
TORSDOF 1
ENDMDL