MODEL 3
REMARK VINA RESULT: -4.585639458      2.569      4.322
REMARK  1 active torsions:
REMARK  status: ('A' for Active; 'I' for Inactive)
REMARK    1  A    between atoms: C2_2  and  N1_3
ROOT
HETATM    1  N1  UNL     1      -3.965   4.919  13.274  1.00  0.00     0.118 N
HETATM    2  C3  UNL     1      -3.619   5.162  11.907  1.00  0.00     0.310 C
HETATM    3  C4  UNL     1      -3.760   3.820  11.235  1.00  0.00     0.257 C
HETATM    4  C5  UNL     1      -2.461   3.057  11.351  1.00  0.00     0.018 C
HETATM    5  C6  UNL     1      -1.458   3.440  10.317  1.00  0.00     0.012 C
HETATM    6  C7  UNL     1      -2.979   1.626  11.167  1.00  0.00     0.037 C
HETATM    7  C8  UNL     1      -4.204   1.686  12.079  1.00  0.00     0.275 C
HETATM    8  N2  UNL     1      -4.646   3.066  12.071  1.00  0.00     0.123 N
HETATM    9  C9  UNL     1      -4.581   3.642  13.396  1.00  0.00     0.543 C
ENDROOT
BRANCH   1  10
HETATM   10  C2  UNL     1      -4.769   6.023  13.716  1.00  0.00     0.270 C
HETATM   11  C1  UNL     1      -4.176   6.762  14.880  1.00  0.00     0.037 C
ENDBRANCH   1  10
TORSDOF 1
ENDMDL