MODEL 4
REMARK VINA RESULT: -8.480744551      2.360      3.557
REMARK  5 active torsions:
REMARK  status: ('A' for Active; 'I' for Inactive)
REMARK    1  A    between atoms: C2_2  and  C3_4
REMARK    2  A    between atoms: C11_12  and  O2_13
REMARK    3  A    between atoms: C19_22  and  O3_23
REMARK    4  A    between atoms: C20_25  and  O4_26
REMARK    5  A    between atoms: O4_26  and  S1_27
ROOT
HETATM    1  C3  UNL     1       4.137  41.719  22.349  1.00  0.00     0.022 C
HETATM    2  C4  UNL     1       4.180  42.536  21.046  1.00  0.00     0.024 C
HETATM    3  C5  UNL     1       5.013  40.532  22.097  1.00  0.00     0.018 C
HETATM    4  C6  UNL     1       4.408  39.402  21.375  1.00  0.00     0.011 C
HETATM    5  C7  UNL     1       2.954  39.393  21.113  1.00  0.00    -0.040 C
HETATM    6  C8  UNL     1       2.753  39.156  19.601  1.00  0.00     0.015 C
HETATM    7  C9  UNL     1       2.214  40.668  21.391  1.00  0.00     0.018 C
HETATM    8  C10 UNL     1       2.714  41.376  22.631  1.00  0.00     0.030 C
HETATM    9  C11 UNL     1       2.441  40.649  23.891  1.00  0.00     0.123 C
HETATM   10  C12 UNL     1       1.494  39.466  23.744  1.00  0.00     0.038 C
HETATM   11  C13 UNL     1       2.225  38.265  23.235  1.00  0.00     0.001 C
HETATM   12  C14 UNL     1       2.246  38.185  21.744  1.00  0.00    -0.002 C
HETATM   13  C15 UNL     1       0.940  37.890  21.092  1.00  0.00     0.006 C
HETATM   14  C16 UNL     1       0.052  37.084  22.045  1.00  0.00     0.006 C
HETATM   15  C17 UNL     1       0.977  36.208  22.821  1.00  0.00    -0.003 C
HETATM   16  C18 UNL     1       0.350  35.052  23.513  1.00  0.00     0.039 C
HETATM   17  C19 UNL     1       1.451  34.087  23.872  1.00  0.00     0.148 C
HETATM   18  C20 UNL     1       2.651  34.680  24.472  1.00  0.00     0.171 C
HETATM   19  C22 UNL     1       3.004  36.068  24.099  1.00  0.00     0.046 C
HETATM   20  C23 UNL     1       1.803  36.958  23.831  1.00  0.00    -0.034 C
HETATM   21  C24 UNL     1       1.094  37.107  25.167  1.00  0.00     0.016 C
ENDROOT
BRANCH  18  22
HETATM   22  O4  UNL     1       3.761  33.869  24.134  1.00  0.00    -0.268 OA
BRANCH  22  23
HETATM   23  S1  UNL     1       4.467  33.180  25.461  1.00  0.00     0.261 S
HETATM   24  C21 UNL     1       5.815  32.121  25.089  1.00  0.00     0.194 C
HETATM   25  O5  UNL     1       4.884  34.230  26.477  1.00  0.00    -0.199 OA
HETATM   26  O6  UNL     1       3.405  32.349  26.164  1.00  0.00    -0.199 OA
ENDBRANCH  22  23
ENDBRANCH  18  22
BRANCH  17  27
HETATM   27  O3  UNL     1       0.890  33.152  24.763  1.00  0.00    -0.393 OA
ATOM     28  H3  UNL     1       1.109  32.291  24.427  1.00  0.00     0.210 HD
ENDBRANCH  17  27
BRANCH   9  29
HETATM   29  O2  UNL     1       3.569  40.136  24.535  1.00  0.00    -0.395 OA
ATOM     30  H2  UNL     1       4.299  40.739  24.612  1.00  0.00     0.210 HD
ENDBRANCH   9  29
BRANCH   1  31
HETATM   31  C2  UNL     1       4.720  42.598  23.383  1.00  0.00     0.131 C
HETATM   32  C1  UNL     1       6.172  42.599  23.720  1.00  0.00     0.091 C
HETATM   33  O1  UNL     1       3.986  43.358  23.988  1.00  0.00    -0.298 OA
ENDBRANCH   1  31
TORSDOF 5
ENDMDL