MODEL 4
REMARK VINA RESULT: -9.213385593      2.231      3.689
REMARK  5 active torsions:
REMARK  status: ('A' for Active; 'I' for Inactive)
REMARK    1  A    between atoms: C4_4  and  C5_5
REMARK    2  A    between atoms: C5_5  and  C6_6
REMARK    3  A    between atoms: C6_6  and  C7_8
REMARK    4  A    between atoms: C7_8  and  O2_9
REMARK    5  A    between atoms: C27_33  and  O6_34
ROOT
HETATM    1  C7  UNL     1       2.986  40.355  21.215  1.00  0.00     0.135 C
HETATM    2  C8  UNL     1       3.010  41.804  21.839  1.00  0.00     0.048 C
HETATM    3  C9  UNL     1       4.057  42.671  21.291  1.00  0.00     0.017 C
HETATM    4  C10 UNL     1       3.054  41.580  23.344  1.00  0.00    -0.000 C
HETATM    5  C11 UNL     1       4.066  40.778  23.597  1.00  0.00     0.054 C
HETATM    6  C12 UNL     1       4.910  40.337  22.523  1.00  0.00     0.170 C
HETATM    7  O3  UNL     1       6.041  40.505  22.084  1.00  0.00    -0.292 OA
HETATM    8  C13 UNL     1       3.915  39.369  21.821  1.00  0.00     0.104 C
HETATM    9  C14 UNL     1       3.631  38.364  22.825  1.00  0.00     0.036 C
HETATM   10  C15 UNL     1       3.898  38.416  24.301  1.00  0.00     0.058 C
HETATM   11  C16 UNL     1       3.971  39.895  24.781  1.00  0.00     0.174 C
HETATM   12  O4  UNL     1       3.951  40.353  25.882  1.00  0.00    -0.291 OA
HETATM   13  C17 UNL     1       5.049  37.723  24.891  1.00  0.00     0.008 C
HETATM   14  C18 UNL     1       6.381  38.384  24.858  1.00  0.00     0.012 C
HETATM   15  C19 UNL     1       5.094  36.259  24.576  1.00  0.00     0.036 C
HETATM   16  C20 UNL     1       6.052  35.432  25.340  1.00  0.00    -0.041 C
HETATM   17  C21 UNL     1       7.451  35.422  24.707  1.00  0.00     0.015 C
HETATM   18  C22 UNL     1       6.143  35.607  26.797  1.00  0.00     0.015 C
HETATM   19  C23 UNL     1       5.496  34.018  25.086  1.00  0.00     0.012 C
HETATM   20  C24 UNL     1       4.058  34.206  24.624  1.00  0.00     0.042 C
HETATM   21  C25 UNL     1       3.777  35.639  24.971  1.00  0.00     0.095 A
HETATM   22  O5  UNL     1       3.290  35.780  26.265  1.00  0.00    -0.366 OA
HETATM   23  C26 UNL     1       2.649  36.355  25.032  1.00  0.00     0.187 A
HETATM   24  C27 UNL     1       2.667  37.834  25.050  1.00  0.00     0.166 C
ENDROOT
BRANCH  24  25
HETATM   25  O6  UNL     1       2.680  38.293  26.367  1.00  0.00    -0.392 OA
ATOM     26  H6  UNL     1       2.009  38.958  26.469  1.00  0.00     0.210 HD
ENDBRANCH  24  25
BRANCH   1  27
HETATM   27  C6  UNL     1       1.605  39.919  21.019  1.00  0.00     0.166 C
HETATM   28  O1  UNL     1       0.724  40.522  21.584  1.00  0.00    -0.294 OA
BRANCH  27  29
HETATM   29  C5  UNL     1       1.244  38.779  20.165  1.00  0.00     0.109 C
BRANCH  29  30
HETATM   30  C4  UNL     1       0.605  37.668  20.921  1.00  0.00    -0.017 C
HETATM   31  C2  UNL     1       1.172  36.473  20.908  1.00  0.00    -0.091 C
HETATM   32  C1  UNL     1       0.549  35.351  21.657  1.00  0.00     0.042 C
HETATM   33  C3  UNL     1       2.438  36.230  20.147  1.00  0.00     0.042 C
ENDBRANCH  29  30
ENDBRANCH  27  29
ENDBRANCH   1  27
BRANCH   1  34
HETATM   34  O2  UNL     1       3.438  40.667  19.922  1.00  0.00    -0.381 OA
ATOM     35  H2  UNL     1       3.836  39.862  19.612  1.00  0.00     0.211 HD
ENDBRANCH   1  34
TORSDOF 5
ENDMDL