MODEL 1
REMARK VINA RESULT: -9.236310875      0.000      0.000
REMARK  7 active torsions:
REMARK  status: ('A' for Active; 'I' for Inactive)
REMARK    1  A    between atoms: C2_2  and  C3_3
REMARK    2  A    between atoms: C10_12  and  N1_13
REMARK    3  A    between atoms: N1_13  and  C11_15
REMARK    4  A    between atoms: C11_15  and  O3_19
REMARK    5  A    between atoms: C18_27  and  C19_28
REMARK    6  A    between atoms: C19_28  and  O5_30
REMARK    7  A    between atoms: O5_30  and  C20_31
ROOT
HETATM    1  C3  UNL     1       3.107  41.521  21.455  1.00  0.00     0.088 C
HETATM    2  C4  UNL     1       1.729  41.313  20.881  1.00  0.00     0.051 C
HETATM    3  O1  UNL     1       2.978  41.755  22.831  1.00  0.00    -0.306 OA
HETATM    4  C5  UNL     1       3.178  40.960  23.948  1.00  0.00     0.265 C
HETATM    5  O2  UNL     1       2.639  41.376  24.986  1.00  0.00    -0.265 OA
HETATM    6  C6  UNL     1       3.969  39.697  23.950  1.00  0.00     0.100 C
HETATM    7  C7  UNL     1       3.377  38.847  22.918  1.00  0.00     0.006 C
HETATM    8  C8  UNL     1       3.427  37.378  23.009  1.00  0.00     0.008 C
HETATM    9  C9  UNL     1       2.818  36.965  21.658  1.00  0.00     0.026 C
HETATM   10  C10 UNL     1       2.755  38.249  20.812  1.00  0.00     0.089 C
HETATM   11  C12 UNL     1       3.809  39.075  21.502  1.00  0.00     0.021 C
HETATM   12  C13 UNL     1       4.040  40.441  21.066  1.00  0.00     0.031 C
HETATM   13  C14 UNL     1       5.483  40.787  21.428  1.00  0.00     0.009 C
HETATM   14  C15 UNL     1       5.701  41.174  22.834  1.00  0.00     0.013 C
HETATM   15  C16 UNL     1       5.375  40.099  23.869  1.00  0.00     0.002 C
HETATM   16  C17 UNL     1       6.399  39.004  23.843  1.00  0.00     0.058 C
HETATM   17  C18 UNL     1       6.395  38.504  25.262  1.00  0.00     0.322 C
HETATM   18  N3  UNL     1       6.304  39.680  26.018  1.00  0.00     0.099 N
HETATM   19  C24 UNL     1       7.481  40.163  26.646  1.00  0.00     0.311 C
HETATM   20  C25 UNL     1       5.737  40.738  25.203  1.00  0.00     0.283 C
ENDROOT
BRANCH  17  21
HETATM   21  C19 UNL     1       7.479  37.584  25.572  1.00  0.00     0.297 C
HETATM   22  O4  UNL     1       8.658  37.954  25.247  1.00  0.00    -0.262 OA
BRANCH  21  23
HETATM   23  O5  UNL     1       7.398  36.364  26.173  1.00  0.00    -0.282 OA
BRANCH  23  24
HETATM   24  C20 UNL     1       6.688  35.274  25.750  1.00  0.00     0.049 C
HETATM   25  C21 UNL     1       5.203  35.200  25.754  1.00  0.00     0.076 C
HETATM   26  C22 UNL     1       7.360  34.220  25.314  1.00  0.00     0.001 C
HETATM   27  C23 UNL     1       8.845  34.182  25.266  1.00  0.00     0.038 C
ENDBRANCH  23  24
ENDBRANCH  21  23
ENDBRANCH  17  21
BRANCH   1  28
HETATM   28  C2  UNL     1       3.618  42.806  20.866  1.00  0.00     0.001 C
HETATM   29  C1  UNL     1       3.455  43.929  21.557  1.00  0.00     0.010 C
ENDBRANCH   1  28
BRANCH  10  30
HETATM   30  N1  UNL     1       3.095  37.965  19.439  1.00  0.00    -0.352 N
ATOM     31  H1  UNL     1       4.056  38.090  19.120  1.00  0.00     0.163 HD
BRANCH  30  32
HETATM   32  C11 UNL     1       2.107  37.514  18.529  1.00  0.00     0.210 C
HETATM   33  N2  UNL     1       1.742  36.290  18.520  1.00  0.00    -0.366 N
ATOM     34  H22 UNL     1       2.176  35.646  19.181  1.00  0.00     0.159 HD
ATOM     35  H21 UNL     1       1.031  35.966  17.865  1.00  0.00     0.159 HD
BRANCH  32  36
HETATM   36  O3  UNL     1       1.516  38.391  17.630  1.00  0.00    -0.333 OA
ATOM     37  H3  UNL     1       1.053  38.066  16.867  1.00  0.00     0.220 HD
ENDBRANCH  32  36
ENDBRANCH  30  32
ENDBRANCH  10  30
TORSDOF 7
ENDMDL