MODEL 1
REMARK VINA RESULT: -8.514142126      0.000      0.000
REMARK  8 active torsions:
REMARK  status: ('A' for Active; 'I' for Inactive)
REMARK    1  A    between atoms: C4_4  and  C5_5
REMARK    2  A    between atoms: C12_13  and  C13_14
REMARK    3  A    between atoms: C13_14  and  O2_15
REMARK    4  A    between atoms: C17_21  and  O4_22
REMARK    5  A    between atoms: C18_24  and  O5_25
REMARK    6  A    between atoms: O5_25  and  C19_26
REMARK    7  A    between atoms: C19_26  and  C20_28
REMARK    8  A    between atoms: C20_28  and  C21_29
ROOT
HETATM    1  C1  UNL     1       0.002  33.949  22.308  1.00  0.00     0.017 C
HETATM    2  C2  UNL     1       0.225  34.754  21.431  1.00  0.00    -0.090 C
HETATM    3  C3  UNL     1       0.484  35.698  20.373  1.00  0.00     0.060 C
HETATM    4  C4  UNL     1       0.994  36.898  20.591  1.00  0.00    -0.009 C
ENDROOT
BRANCH   4   5
HETATM    5  C5  UNL     1       1.323  37.308  22.007  1.00  0.00     0.044 C
HETATM    6  C6  UNL     1       2.800  37.077  22.077  1.00  0.00    -0.020 C
HETATM    7  C7  UNL     1       3.715  38.050  22.371  1.00  0.00    -0.013 C
HETATM    8  C8  UNL     1       3.065  39.288  22.594  1.00  0.00     0.042 C
HETATM    9  C9  UNL     1       3.578  40.613  22.674  1.00  0.00    -0.025 C
HETATM   10  C12 UNL     1       2.319  39.068  23.893  1.00  0.00     0.100 C
HETATM   11  C17 UNL     1       2.096  39.379  21.400  1.00  0.00     0.147 C
HETATM   12  C10 UNL     1       2.555  41.456  22.959  1.00  0.00     0.080 C
HETATM   13  C25 UNL     1       4.893  41.193  22.519  1.00  0.00    -0.021 C
HETATM   14  O1  UNL     1       1.252  40.902  23.111  1.00  0.00    -0.346 OA
HETATM   15  C18 UNL     1       2.793  42.926  23.111  1.00  0.00     0.188 C
HETATM   16  C11 UNL     1       1.024  39.490  23.381  1.00  0.00     0.151 C
HETATM   17  C15 UNL     1       0.922  38.742  22.062  1.00  0.00     0.021 C
HETATM   18  C16 UNL     1      -0.390  39.040  21.440  1.00  0.00     0.022 C
HETATM   19  C23 UNL     1       3.768  43.411  22.098  1.00  0.00     0.040 C
HETATM   20  C24 UNL     1       4.849  42.465  21.718  1.00  0.00     0.016 C
HETATM   21  C26 UNL     1       5.584  41.503  23.835  1.00  0.00     0.019 C
HETATM   22  C27 UNL     1       5.857  40.265  21.770  1.00  0.00     0.019 C
BRANCH  15  23
HETATM   23  O5  UNL     1       1.550  43.582  22.857  1.00  0.00    -0.309 OA
BRANCH  23  24
HETATM   24  C19 UNL     1       1.337  44.358  21.728  1.00  0.00     0.259 C
HETATM   25  O6  UNL     1       1.632  45.578  21.766  1.00  0.00    -0.265 OA
BRANCH  24  26
HETATM   26  C20 UNL     1       0.762  43.733  20.494  1.00  0.00     0.111 C
BRANCH  26  27
HETATM   27  C21 UNL     1      -0.492  44.434  20.066  1.00  0.00     0.005 C
HETATM   28  C22 UNL     1      -1.592  44.061  21.037  1.00  0.00     0.005 C
ENDBRANCH  26  27
ENDBRANCH  24  26
ENDBRANCH  23  24
ENDBRANCH  15  23
BRANCH  10  29
HETATM   29  C13 UNL     1       2.546  37.863  24.669  1.00  0.00     0.191 A
HETATM   30  C14 UNL     1       1.520  36.995  25.308  1.00  0.00     0.240 A
HETATM   31  O3  UNL     1       1.861  38.063  26.027  1.00  0.00    -0.347 OA
BRANCH  29  32
HETATM   32  O2  UNL     1       3.884  37.783  25.175  1.00  0.00    -0.363 OA
ATOM     33  H2  UNL     1       3.935  37.988  26.101  1.00  0.00     0.213 HD
ENDBRANCH  29  32
ENDBRANCH  10  29
BRANCH  11  34
HETATM   34  O4  UNL     1       1.893  40.569  20.812  1.00  0.00    -0.393 OA
ATOM     35  H4  UNL     1       2.643  41.112  20.598  1.00  0.00     0.210 HD
ENDBRANCH  11  34
ENDBRANCH   4   5
TORSDOF 8
ENDMDL