MODEL 2
REMARK VINA RESULT: -9.523982791      1.119      1.411
REMARK  7 active torsions:
REMARK  status: ('A' for Active; 'I' for Inactive)
REMARK    1  A    between atoms: C2_2  and  C3_3
REMARK    2  A    between atoms: C16_18  and  C17_19
REMARK    3  A    between atoms: C17_19  and  S1_20
REMARK    4  A    between atoms: S1_20  and  C18_23
REMARK    5  A    between atoms: C18_23  and  C19_24
REMARK    6  A    between atoms: C19_24  and  O5_25
REMARK    7  A    between atoms: N1_27  and  O6_29
ROOT
HETATM    1  C3  UNL     1       6.513  30.191  23.828  1.00  0.00    -0.023 C
HETATM    2  C4  UNL     1       7.889  30.028  24.488  1.00  0.00     0.020 C
HETATM    3  C5  UNL     1       5.609  29.037  24.212  1.00  0.00     0.014 C
HETATM    4  C6  UNL     1       4.252  29.757  24.283  1.00  0.00     0.006 C
HETATM    5  C7  UNL     1       4.628  30.940  25.130  1.00  0.00    -0.005 C
HETATM    6  C8  UNL     1       3.641  32.090  25.048  1.00  0.00     0.001 C
HETATM    7  C9  UNL     1       2.362  31.543  24.512  1.00  0.00     0.088 C
HETATM    8  C10 UNL     1       1.322  32.614  24.566  1.00  0.00     0.153 C
HETATM    9  O1  UNL     1       0.400  32.450  25.331  1.00  0.00    -0.293 OA
HETATM   10  C11 UNL     1       1.356  33.825  23.760  1.00  0.00    -0.017 C
HETATM   11  C12 UNL     1       0.053  34.529  23.514  1.00  0.00     0.051 C
HETATM   12  C13 UNL     1       0.530  35.816  22.875  1.00  0.00     0.056 C
HETATM   13  C14 UNL     1       0.326  35.794  21.352  1.00  0.00     0.018 C
HETATM   14  C15 UNL     1       1.998  35.866  23.082  1.00  0.00     0.144 C
HETATM   15  O2  UNL     1       2.752  36.644  22.556  1.00  0.00    -0.296 OA
HETATM   16  C16 UNL     1       2.414  34.800  24.045  1.00  0.00     0.061 C
HETATM   17  C20 UNL     1       3.712  34.158  23.521  1.00  0.00     0.028 C
HETATM   18  C21 UNL     1       4.332  33.142  24.338  1.00  0.00    -0.008 C
HETATM   19  C22 UNL     1       5.327  32.378  23.440  1.00  0.00     0.011 C
HETATM   20  C23 UNL     1       5.892  31.404  24.449  1.00  0.00     0.002 C
ENDROOT
BRANCH  16  21
HETATM   21  C17 UNL     1       2.720  35.404  25.306  1.00  0.00     0.162 C
BRANCH  21  22
HETATM   22  S1  UNL     1       3.389  36.978  25.522  1.00  0.00     0.153 S
HETATM   23  O3  UNL     1       2.381  38.092  25.659  1.00  0.00    -0.227 OA
HETATM   24  O4  UNL     1       4.519  37.333  24.612  1.00  0.00    -0.227 OA
BRANCH  22  25
HETATM   25  C18 UNL     1       4.197  36.976  27.147  1.00  0.00     0.225 C
BRANCH  25  26
HETATM   26  C19 UNL     1       5.281  36.011  27.203  1.00  0.00     0.149 C
HETATM   27  N1  UNL     1       5.626  35.463  28.305  1.00  0.00    -0.250 N
ATOM     28  H1  UNL     1       6.390  34.788  28.317  1.00  0.00     0.196 HD
BRANCH  26  29
HETATM   29  O5  UNL     1       5.964  35.664  26.060  1.00  0.00    -0.347 OA
ATOM     30  H5  UNL     1       6.123  34.750  25.854  1.00  0.00     0.219 HD
ENDBRANCH  26  29
BRANCH  27  31
HETATM   31  O6  UNL     1       4.970  35.778  29.486  1.00  0.00    -0.288 OA
ATOM     32  H6  UNL     1       5.373  35.595  30.327  1.00  0.00     0.244 HD
ENDBRANCH  27  31
ENDBRANCH  25  26
ENDBRANCH  22  25
ENDBRANCH  21  22
ENDBRANCH  16  21
BRANCH   1  33
HETATM   33  C2  UNL     1       6.643  30.276  22.370  1.00  0.00    -0.027 C
HETATM   34  C1  UNL     1       7.835  30.396  21.816  1.00  0.00     0.007 C
ENDBRANCH   1  33
TORSDOF 7
ENDMDL