MODEL 3
REMARK VINA RESULT: -7.639472293      1.842      4.441
REMARK  8 active torsions:
REMARK  status: ('A' for Active; 'I' for Inactive)
REMARK    1  A    between atoms: C2_2  and  C3_3
REMARK    2  A    between atoms: C3_3  and  C4_4
REMARK    3  A    between atoms: C4_4  and  O1_5
REMARK    4  A    between atoms: C13_15  and  O2_16
REMARK    5  A    between atoms: C14_18  and  O3_19
REMARK    6  A    between atoms: O3_19  and  C15_20
REMARK    7  A    between atoms: C20_27  and  C21_28
REMARK    8  A    between atoms: C26_33  and  C27_34
ROOT
HETATM    1  C3  UNL     1       2.983  43.263  22.379  1.00  0.00     0.061 C
HETATM    2  C5  UNL     1       1.597  42.957  22.354  1.00  0.00    -0.162 C
HETATM    3  C6  UNL     1       0.224  42.976  22.010  1.00  0.00     0.108 C
HETATM    4  C7  UNL     1      -0.175  41.501  21.809  1.00  0.00    -0.012 C
HETATM    5  C8  UNL     1       0.223  40.493  22.526  1.00  0.00    -0.079 C
HETATM    6  C9  UNL     1      -0.346  39.144  22.069  1.00  0.00     0.068 C
HETATM    7  C10 UNL     1       0.721  38.181  21.722  1.00  0.00    -0.074 C
HETATM    8  C11 UNL     1       0.391  37.373  20.530  1.00  0.00     0.044 C
HETATM    9  C12 UNL     1       1.907  37.865  22.228  1.00  0.00    -0.038 C
HETATM   10  C13 UNL     1       3.199  37.143  22.326  1.00  0.00     0.192 C
HETATM   11  C14 UNL     1       3.574  37.718  23.592  1.00  0.00     0.172 C
HETATM   12  C17 UNL     1       4.656  38.618  23.957  1.00  0.00     0.194 C
HETATM   13  O5  UNL     1       5.809  38.152  24.131  1.00  0.00    -0.289 OA
HETATM   14  C18 UNL     1       4.469  40.054  24.143  1.00  0.00    -0.005 C
HETATM   15  C19 UNL     1       4.979  40.654  25.229  1.00  0.00     0.024 C
HETATM   16  C20 UNL     1       3.671  40.815  23.084  1.00  0.00     0.023 C
HETATM   17  C23 UNL     1       2.457  39.991  23.101  1.00  0.00     0.019 C
HETATM   18  C24 UNL     1       1.145  40.468  23.681  1.00  0.00     0.041 C
HETATM   19  C25 UNL     1       2.413  38.578  23.487  1.00  0.00     0.069 C
HETATM   20  C26 UNL     1       3.704  42.252  23.247  1.00  0.00     0.090 C
ENDROOT
BRANCH   1  21
HETATM   21  C2  UNL     1       3.589  43.638  21.122  1.00  0.00    -0.013 C
HETATM   22  C1  UNL     1       3.028  43.344  19.973  1.00  0.00     0.008 C
ENDBRANCH   1  21
BRANCH   1  23
HETATM   23  C4  UNL     1       3.117  44.588  23.219  1.00  0.00     0.190 C
BRANCH  23  24
HETATM   24  O1  UNL     1       2.623  45.578  22.337  1.00  0.00    -0.399 OA
ATOM     25  H1  UNL     1       3.362  46.168  22.240  1.00  0.00     0.209 HD
ENDBRANCH  23  24
ENDBRANCH   1  23
BRANCH  20  26
HETATM   26  C27 UNL     1       5.056  42.874  23.378  1.00  0.00     0.239 C
HETATM   27  O6  UNL     1       5.992  42.748  22.623  1.00  0.00    -0.306 OA
ENDBRANCH  20  26
BRANCH  16  28
HETATM   28  C21 UNL     1       4.541  40.566  21.878  1.00  0.00    -0.021 C
HETATM   29  C22 UNL     1       4.183  40.109  20.715  1.00  0.00     0.008 C
ENDBRANCH  16  28
BRANCH  11  30
HETATM   30  O3  UNL     1       3.471  36.691  24.621  1.00  0.00    -0.298 OA
BRANCH  30  31
HETATM   31  C15 UNL     1       3.280  36.999  25.939  1.00  0.00     0.256 C
HETATM   32  C16 UNL     1       1.999  37.690  26.317  1.00  0.00     0.126 C
HETATM   33  O4  UNL     1       4.143  36.710  26.774  1.00  0.00    -0.266 OA
ENDBRANCH  30  31
ENDBRANCH  11  30
BRANCH  10  34
HETATM   34  O2  UNL     1       2.817  35.780  22.252  1.00  0.00    -0.388 OA
ATOM     35  H2  UNL     1       3.642  35.317  22.337  1.00  0.00     0.210 HD
ENDBRANCH  10  34
TORSDOF 8
ENDMDL