MODEL 4
REMARK VINA RESULT: -8.339938004      1.974      2.573
REMARK  8 active torsions:
REMARK  status: ('A' for Active; 'I' for Inactive)
REMARK    1  A    between atoms: C4_4  and  O1_5
REMARK    2  A    between atoms: O1_5  and  C5_6
REMARK    3  A    between atoms: C5_6  and  C6_7
REMARK    4  A    between atoms: C6_7  and  C7_8
REMARK    5  A    between atoms: C7_8  and  O2_9
REMARK    6  A    between atoms: O2_9  and  C8_10
REMARK    7  A    between atoms: C14_17  and  O4_18
REMARK    8  A    between atoms: C27_33  and  O5_34
ROOT
HETATM    1  C1  UNL     1       5.618  28.710  23.608  1.00  0.00     0.027 C
HETATM    2  C2  UNL     1       5.702  29.823  24.092  1.00  0.00    -0.024 C
HETATM    3  C3  UNL     1       5.814  31.108  24.674  1.00  0.00     0.015 C
HETATM    4  C4  UNL     1       5.927  32.198  25.176  1.00  0.00     0.068 C
ENDROOT
BRANCH   4   5
HETATM    5  O1  UNL     1       6.078  33.443  25.765  1.00  0.00    -0.303 OA
BRANCH   5   6
HETATM    6  C5  UNL     1       7.383  33.882  26.115  1.00  0.00     0.190 C
BRANCH   6   7
HETATM    7  C6  UNL     1       7.754  35.135  25.319  1.00  0.00     0.054 C
BRANCH   7   8
HETATM    8  C7  UNL     1       6.623  36.114  25.494  1.00  0.00     0.174 C
BRANCH   8   9
HETATM    9  O2  UNL     1       5.905  36.331  24.347  1.00  0.00    -0.350 OA
BRANCH   9  10
HETATM   10  C8  UNL     1       4.652  36.822  24.679  1.00  0.00     0.230 A
HETATM   11  O3  UNL     1       4.064  36.042  25.731  1.00  0.00    -0.333 OA
HETATM   12  C9  UNL     1       3.425  36.075  24.519  1.00  0.00     0.128 A
HETATM   13  C10 UNL     1       3.350  34.845  23.646  1.00  0.00     0.045 C
HETATM   14  C19 UNL     1       2.337  37.046  24.362  1.00  0.00     0.037 C
HETATM   15  C11 UNL     1       2.646  33.737  24.323  1.00  0.00     0.016 C
HETATM   16  C12 UNL     1       1.356  33.277  23.781  1.00  0.00    -0.007 A
HETATM   17  C13 UNL     1       1.056  31.797  24.096  1.00  0.00     0.019 C
HETATM   18  C14 UNL     1       0.730  33.765  22.546  1.00  0.00     0.136 A
HETATM   19  C15 UNL     1       0.222  34.210  23.827  1.00  0.00    -0.008 A
HETATM   20  C16 UNL     1      -1.119  33.580  24.261  1.00  0.00     0.019 C
HETATM   21  C17 UNL     1       0.463  35.522  24.469  1.00  0.00     0.013 C
HETATM   22  C18 UNL     1       1.110  36.578  23.630  1.00  0.00     0.009 C
HETATM   23  C20 UNL     1       3.008  38.235  23.768  1.00  0.00     0.003 C
HETATM   24  C21 UNL     1       3.392  38.054  22.327  1.00  0.00     0.019 C
HETATM   25  C22 UNL     1       2.317  39.539  24.031  1.00  0.00     0.041 C
HETATM   26  C27 UNL     1       4.294  38.256  24.616  1.00  0.00     0.129 C
HETATM   27  C23 UNL     1       3.281  40.660  23.876  1.00  0.00    -0.008 C
HETATM   28  C24 UNL     1       4.591  40.511  23.842  1.00  0.00     0.021 C
HETATM   29  C25 UNL     1       5.452  41.657  23.688  1.00  0.00     0.095 C
HETATM   30  C26 UNL     1       5.257  39.168  23.960  1.00  0.00     0.094 C
HETATM   31  N1  UNL     1       6.139  42.580  23.550  1.00  0.00    -0.192 NA
BRANCH  18  32
HETATM   32  O4  UNL     1      -0.073  32.867  21.793  1.00  0.00    -0.394 OA
ATOM     33  H4  UNL     1      -0.873  33.196  21.401  1.00  0.00     0.210 HD
ENDBRANCH  18  32
BRANCH  26  34
HETATM   34  O5  UNL     1       4.002  38.702  25.902  1.00  0.00    -0.383 OA
ATOM     35  H5  UNL     1       3.681  39.595  25.851  1.00  0.00     0.210 HD
ENDBRANCH  26  34
ENDBRANCH   9  10
ENDBRANCH   8   9
ENDBRANCH   7   8
ENDBRANCH   6   7
ENDBRANCH   5   6
ENDBRANCH   4   5
TORSDOF 8
ENDMDL