MODEL 2
REMARK VINA RESULT: -8.677559496      0.923      1.218
REMARK  6 active torsions:
REMARK  status: ('A' for Active; 'I' for Inactive)
REMARK    1  A    between atoms: C17_17  and  S1_18
REMARK    2  A    between atoms: S1_18  and  N1_21
REMARK    3  A    between atoms: N1_21  and  O3_22
REMARK    4  A    between atoms: N1_21  and  C18_24
REMARK    5  A    between atoms: C18_24  and  C19_25
REMARK    6  A    between atoms: C22_29  and  O5_30
ROOT
HETATM    1  C1  UNL     1       5.702  41.241  21.953  1.00  0.00     0.046 C
HETATM    2  C2  UNL     1       4.197  41.531  22.110  1.00  0.00     0.062 C
HETATM    3  C3  UNL     1       4.057  41.936  23.592  1.00  0.00     0.042 C
HETATM    4  C4  UNL     1       2.606  42.219  23.887  1.00  0.00     0.038 C
HETATM    5  C5  UNL     1       1.834  42.787  22.739  1.00  0.00    -0.068 C
HETATM    6  C6  UNL     1       0.806  41.877  22.168  1.00  0.00    -0.067 C
HETATM    7  C7  UNL     1      -0.173  42.672  21.308  1.00  0.00     0.035 C
HETATM    8  C8  UNL     1      -0.232  44.138  21.642  1.00  0.00     0.009 C
HETATM    9  C9  UNL     1       0.962  44.929  21.255  1.00  0.00    -0.013 C
HETATM   10  C10 UNL     1       1.715  45.578  22.384  1.00  0.00     0.005 C
HETATM   11  C11 UNL     1       3.073  44.863  22.489  1.00  0.00     0.014 C
HETATM   12  C12 UNL     1       2.719  43.522  21.803  1.00  0.00    -0.014 C
HETATM   13  C13 UNL     1       2.043  44.116  20.604  1.00  0.00     0.019 C
HETATM   14  C14 UNL     1       3.935  42.784  21.346  1.00  0.00     0.052 C
HETATM   15  C15 UNL     1       1.138  40.598  21.581  1.00  0.00     0.078 C
HETATM   16  C16 UNL     1       0.815  39.400  22.500  1.00  0.00     0.036 C
HETATM   17  C17 UNL     1       0.993  38.318  21.399  1.00  0.00     0.138 C
HETATM   18  C21 UNL     1       2.362  38.708  20.946  1.00  0.00     0.091 C
HETATM   19  C22 UNL     1       2.482  40.240  21.103  1.00  0.00     0.171 C
HETATM   20  O6  UNL     1       3.515  40.446  21.917  1.00  0.00    -0.344 OA
ENDROOT
BRANCH  17  21
HETATM   21  S1  UNL     1       0.846  36.721  22.068  1.00  0.00     0.258 S
HETATM   22  O1  UNL     1       2.189  36.355  22.698  1.00  0.00    -0.203 OA
HETATM   23  O2  UNL     1      -0.110  36.751  23.260  1.00  0.00    -0.203 OA
BRANCH  21  24
HETATM   24  N1  UNL     1       0.440  35.544  20.958  1.00  0.00    -0.161 N
BRANCH  24  25
HETATM   25  O3  UNL     1       0.762  35.740  19.700  1.00  0.00    -0.274 OA
ATOM     26  H3  UNL     1       1.561  36.218  19.511  1.00  0.00     0.246 HD
ENDBRANCH  24  25
BRANCH  24  27
HETATM   27  C18 UNL     1      -0.457  34.530  21.277  1.00  0.00     0.142 C
BRANCH  27  28
HETATM   28  C19 UNL     1      -0.026  33.365  22.077  1.00  0.00     0.187 A
HETATM   29  C20 UNL     1      -0.616  32.926  23.330  1.00  0.00     0.206 A
HETATM   30  O4  UNL     1       0.714  33.430  23.226  1.00  0.00    -0.376 OA
ENDBRANCH  27  28
ENDBRANCH  24  27
ENDBRANCH  21  24
ENDBRANCH  17  21
BRANCH  19  31
HETATM   31  O5  UNL     1       2.714  40.651  19.764  1.00  0.00    -0.365 OA
ATOM     32  H5  UNL     1       2.637  39.936  19.143  1.00  0.00     0.213 HD
ENDBRANCH  19  31
TORSDOF 6
ENDMDL