MODEL 1
REMARK VINA RESULT: -9.052310162      0.000      0.000
REMARK  9 active torsions:
REMARK  status: ('A' for Active; 'I' for Inactive)
REMARK    1  A    between atoms: C3_3  and  C4_4
REMARK    2  A    between atoms: C18_20  and  C19_21
REMARK    3  A    between atoms: C19_21  and  O2_22
REMARK    4  A    between atoms: C19_21  and  C20_24
REMARK    5  A    between atoms: C20_24  and  N2_25
REMARK    6  A    between atoms: N2_25  and  C21_26
REMARK    7  A    between atoms: C21_26  and  O3_27
REMARK    8  A    between atoms: C21_26  and  O4_29
REMARK    9  A    between atoms: C24_32  and  O5_33
ROOT
HETATM    1  C4  UNL     1      -0.216  34.700  21.022  1.00  0.00     0.163 C
HETATM    2  C5  UNL     1      -0.133  33.552  21.986  1.00  0.00     0.063 C
HETATM    3  N1  UNL     1      -0.079  32.657  22.733  1.00  0.00    -0.197 NA
ENDROOT
BRANCH   1   4
HETATM    4  C3  UNL     1       0.366  35.879  21.760  1.00  0.00    -0.032 C
HETATM    5  C2  UNL     1       0.648  37.157  21.098  1.00  0.00    -0.035 C
HETATM    6  C1  UNL     1       0.719  37.118  19.813  1.00  0.00     0.024 C
HETATM    7  C26 UNL     1       0.830  38.327  21.955  1.00  0.00    -0.053 C
HETATM    8  C8  UNL     1       1.631  38.035  23.221  1.00  0.00     0.090 C
HETATM    9  C13 UNL     1       1.222  39.621  21.334  1.00  0.00     0.025 C
HETATM   10  C7  UNL     1       1.140  36.826  23.848  1.00  0.00     0.158 C
HETATM   11  C9  UNL     1       3.048  37.947  22.776  1.00  0.00     0.018 C
HETATM   12  C6  UNL     1       0.608  35.738  23.067  1.00  0.00     0.059 C
HETATM   13  O1  UNL     1       1.185  36.729  25.142  1.00  0.00    -0.292 OA
HETATM   14  C10 UNL     1       3.477  39.420  22.523  1.00  0.00     0.011 C
HETATM   15  C11 UNL     1       2.663  40.045  21.450  1.00  0.00    -0.030 C
HETATM   16  C12 UNL     1       3.361  39.490  20.174  1.00  0.00     0.016 C
HETATM   17  C25 UNL     1       2.739  41.494  21.286  1.00  0.00     0.032 C
HETATM   18  C16 UNL     1       1.943  42.407  22.140  1.00  0.00    -0.031 C
HETATM   19  C24 UNL     1       4.042  42.208  21.160  1.00  0.00     0.124 C
HETATM   20  C15 UNL     1       0.515  42.027  21.981  1.00  0.00     0.011 C
HETATM   21  C17 UNL     1       2.290  42.461  23.609  1.00  0.00     0.016 C
HETATM   22  C18 UNL     1       2.273  43.799  21.583  1.00  0.00     0.028 C
HETATM   23  C14 UNL     1       0.257  40.610  21.944  1.00  0.00     0.010 C
HETATM   24  C23 UNL     1       3.532  43.627  20.829  1.00  0.00     0.040 C
BRANCH  22  25
HETATM   25  C19 UNL     1       1.191  44.411  20.834  1.00  0.00     0.153 C
BRANCH  25  26
HETATM   26  O2  UNL     1       1.112  43.939  19.616  1.00  0.00    -0.392 OA
ATOM     27  H2  UNL     1       0.738  44.572  19.014  1.00  0.00     0.210 HD
ENDBRANCH  25  26
BRANCH  25  28
HETATM   28  C20 UNL     1       0.183  45.388  21.159  1.00  0.00     0.255 C
BRANCH  28  29
HETATM   29  N2  UNL     1      -1.141  45.055  20.663  1.00  0.00    -0.401 NA
BRANCH  29  30
HETATM   30  C21 UNL     1      -2.299  44.762  20.229  1.00  0.00     0.335 C
BRANCH  30  31
HETATM   31  O3  UNL     1      -2.707  44.867  18.996  1.00  0.00    -0.316 OA
ATOM     32  H3  UNL     1      -2.919  44.149  18.413  1.00  0.00     0.222 HD
ENDBRANCH  30  31
BRANCH  30  33
HETATM   33  O4  UNL     1      -3.377  44.254  21.102  1.00  0.00    -0.311 OA
HETATM   34  C22 UNL     1      -4.231  45.173  21.771  1.00  0.00     0.215 C
ENDBRANCH  30  33
ENDBRANCH  29  30
ENDBRANCH  28  29
ENDBRANCH  25  28
ENDBRANCH  22  25
BRANCH  19  35
HETATM   35  O5  UNL     1       4.878  42.268  22.205  1.00  0.00    -0.395 OA
ATOM     36  H5  UNL     1       4.560  41.697  22.895  1.00  0.00     0.210 HD
ENDBRANCH  19  35
ENDBRANCH   1   4
TORSDOF 9
ENDMDL