MODEL 1
REMARK VINA RESULT: -8.981548731      0.000      0.000
REMARK  7 active torsions:
REMARK  status: ('A' for Active; 'I' for Inactive)
REMARK    1  A    between atoms: C3_3  and  O1_4
REMARK    2  A    between atoms: O1_4  and  C4_5
REMARK    3  A    between atoms: C4_5  and  C5_7
REMARK    4  A    between atoms: C22_26  and  C23_27
REMARK    5  A    between atoms: C23_27  and  C26_30
REMARK    6  A    between atoms: C26_30  and  O5_31
REMARK    7  A    between atoms: C27_33  and  O6_34
ROOT
HETATM    1  C1  UNL     1      -1.099  32.865  24.545  1.00  0.00     0.014 C
HETATM    2  C2  UNL     1      -0.368  33.205  23.635  1.00  0.00    -0.091 C
HETATM    3  C3  UNL     1       0.495  33.616  22.520  1.00  0.00     0.271 C
ENDROOT
BRANCH   3   4
HETATM    4  O1  UNL     1       0.479  35.027  22.472  1.00  0.00    -0.309 OA
BRANCH   4   5
HETATM    5  C4  UNL     1       0.265  35.693  21.271  1.00  0.00     0.272 C
HETATM    6  O2  UNL     1      -0.435  35.085  20.417  1.00  0.00    -0.264 OA
BRANCH   5   7
HETATM    7  C5  UNL     1       0.858  37.016  21.106  1.00  0.00     0.066 C
HETATM    8  C6  UNL     1       0.876  37.437  19.666  1.00  0.00     0.031 C
HETATM    9  C7  UNL     1       0.091  38.045  21.919  1.00  0.00    -0.011 C
HETATM   10  C8  UNL     1       0.207  39.339  22.212  1.00  0.00    -0.021 C
HETATM   11  C9  UNL     1       1.153  40.393  21.876  1.00  0.00     0.051 C
HETATM   12  C10 UNL     1       0.456  41.695  22.269  1.00  0.00     0.024 C
HETATM   13  C13 UNL     1       2.538  40.394  22.528  1.00  0.00     0.094 C
HETATM   14  C11 UNL     1      -0.341  41.640  23.518  1.00  0.00     0.013 C
HETATM   15  C12 UNL     1       1.752  42.380  22.578  1.00  0.00     0.156 C
HETATM   16  O3  UNL     1       2.201  41.349  23.472  1.00  0.00    -0.369 OA
HETATM   17  C27 UNL     1       2.564  42.323  21.351  1.00  0.00     0.160 C
HETATM   18  C22 UNL     1       3.564  41.204  21.799  1.00  0.00     0.030 C
HETATM   19  C21 UNL     1       3.960  40.343  20.628  1.00  0.00     0.016 C
HETATM   20  C20 UNL     1       4.054  38.834  20.781  1.00  0.00     0.007 C
HETATM   21  C19 UNL     1       2.829  38.361  21.451  1.00  0.00     0.010 C
HETATM   22  C14 UNL     1       2.902  39.047  22.824  1.00  0.00     0.053 C
HETATM   23  C18 UNL     1       2.313  37.062  21.714  1.00  0.00     0.019 C
HETATM   24  C15 UNL     1       4.139  38.511  23.384  1.00  0.00     0.027 C
HETATM   25  C16 UNL     1       2.021  38.252  23.761  1.00  0.00     0.139 C
HETATM   26  O4  UNL     1       1.538  38.688  24.753  1.00  0.00    -0.297 OA
HETATM   27  C17 UNL     1       1.920  36.918  23.194  1.00  0.00     0.085 C
BRANCH  17  28
HETATM   28  O6  UNL     1       2.089  42.255  20.117  1.00  0.00    -0.392 OA
ATOM     29  H6  UNL     1       1.706  41.486  19.714  1.00  0.00     0.210 HD
ENDBRANCH  17  28
BRANCH  18  30
HETATM   30  C23 UNL     1       4.612  42.011  22.391  1.00  0.00    -0.013 C
HETATM   31  C24 UNL     1       6.048  41.469  21.969  1.00  0.00     0.018 C
HETATM   32  C25 UNL     1       4.819  43.441  22.066  1.00  0.00     0.018 C
BRANCH  30  33
HETATM   33  C26 UNL     1       4.927  41.876  23.871  1.00  0.00     0.173 C
BRANCH  33  34
HETATM   34  O5  UNL     1       4.580  42.941  24.649  1.00  0.00    -0.400 OA
ATOM     35  H5  UNL     1       3.991  42.750  25.370  1.00  0.00     0.209 HD
ENDBRANCH  33  34
ENDBRANCH  30  33
ENDBRANCH  18  30
ENDBRANCH   5   7
ENDBRANCH   4   5
ENDBRANCH   3   4
TORSDOF 7
ENDMDL