MODEL 5
REMARK VINA RESULT: -6.675681104      2.170      2.887
REMARK  8 active torsions:
REMARK  status: ('A' for Active; 'I' for Inactive)
REMARK    1  A    between atoms: C2_2  and  N1_3
REMARK    2  A    between atoms: C2_2  and  C3_7
REMARK    3  A    between atoms: C2_2  and  C5_13
REMARK    4  A    between atoms: C3_7  and  C4_8
REMARK    5  A    between atoms: C4_8  and  N2_9
REMARK    6  A    between atoms: N3_17  and  C9_18
REMARK    7  A    between atoms: C9_18  and  C10_19
REMARK    8  A    between atoms: C10_19  and  N4_20
ROOT
HETATM    1  C5  UNL     1     -29.631 -52.305  18.721  1.00  0.00    -0.007 A
HETATM    2  C6  UNL     1     -28.815 -51.692  19.677  1.00  0.00     0.012 A
HETATM    3  C7  UNL     1     -27.474 -51.996  19.676  1.00  0.00     0.018 A
HETATM    4  C8  UNL     1     -26.927 -52.870  18.776  1.00  0.00     0.090 A
HETATM    5  N3  UNL     1     -27.724 -53.471  17.840  1.00  0.00    -0.364 N
HETATM    6  C16 UNL     1     -29.024 -53.170  17.849  1.00  0.00     0.100 A
ENDROOT
BRANCH   1   7
HETATM    7  C2  UNL     1     -31.074 -51.963  18.709  1.00  0.00     0.150 C
HETATM    8  C1  UNL     1     -31.683 -52.514  17.423  1.00  0.00     0.051 C
BRANCH   7   9
HETATM    9  N1  UNL     1     -31.208 -50.517  18.612  1.00  0.00    -0.066 N
ATOM     10  H13 UNL     1     -30.718 -50.112  17.814  1.00  0.00     0.275 HD
ATOM     11  H12 UNL     1     -32.144 -50.208  18.347  1.00  0.00     0.275 HD
ATOM     12  H11 UNL     1     -30.896 -50.155  19.513  1.00  0.00     0.275 HD
ENDBRANCH   7   9
BRANCH   7  13
HETATM   13  C3  UNL     1     -31.738 -52.527  19.916  1.00  0.00     0.070 C
BRANCH  13  14
HETATM   14  C4  UNL     1     -33.124 -53.071  19.612  1.00  0.00     0.232 C
BRANCH  14  15
HETATM   15  N2  UNL     1     -34.101 -52.157  20.123  1.00  0.00    -0.079 N
ATOM     16  H23 UNL     1     -33.800 -51.710  20.990  1.00  0.00     0.274 HD
ATOM     17  H22 UNL     1     -34.185 -51.316  19.552  1.00  0.00     0.274 HD
ATOM     18  H21 UNL     1     -34.988 -52.648  20.226  1.00  0.00     0.274 HD
ENDBRANCH  14  15
ENDBRANCH  13  14
ENDBRANCH   7  13
ENDBRANCH   1   7
BRANCH   5  19
HETATM   19  C9  UNL     1     -27.069 -54.383  16.928  1.00  0.00     0.148 C
BRANCH  19  20
HETATM   20  C10 UNL     1     -27.406 -54.090  15.504  1.00  0.00     0.148 C
BRANCH  20  21
HETATM   21  N4  UNL     1     -26.578 -54.742  14.529  1.00  0.00    -0.365 N
HETATM   22  C11 UNL     1     -26.987 -55.874  13.948  1.00  0.00     0.092 A
HETATM   23  C12 UNL     1     -26.238 -56.558  12.987  1.00  0.00     0.043 A
HETATM   24  C13 UNL     1     -25.019 -56.063  12.607  1.00  0.00     0.049 A
HETATM   25  N5  UNL     1     -24.187 -56.690  11.644  1.00  0.00    -0.102 NA
HETATM   26  C14 UNL     1     -24.596 -54.879  13.217  1.00  0.00     0.043 A
HETATM   27  C15 UNL     1     -25.383 -54.267  14.148  1.00  0.00     0.092 A
ENDBRANCH  20  21
ENDBRANCH  19  20
ENDBRANCH   5  19
TORSDOF 8
ENDMDL