MODEL 3
REMARK VINA RESULT: -6.806749002      2.704      3.608
REMARK  7 active torsions:
REMARK  status: ('A' for Active; 'I' for Inactive)
REMARK    1  A    between atoms: N1_1  and  C1_5
REMARK    2  A    between atoms: C1_5  and  C2_6
REMARK    3  A    between atoms: C1_5  and  C6_15
REMARK    4  A    between atoms: C2_6  and  C3_7
REMARK    5  A    between atoms: C6_15  and  S1_16
REMARK    6  A    between atoms: S1_16  and  C7_18
REMARK    7  A    between atoms: C7_18  and  C8_19
ROOT
HETATM    1  C1  UNL     1     -31.341 -52.169  18.207  1.00  0.00     0.200 C
ENDROOT
BRANCH   1   2
HETATM    2  N1  UNL     1     -31.865 -50.844  18.063  1.00  0.00    -0.074 N
ATOM      3  H13 UNL     1     -32.165 -50.636  17.110  1.00  0.00     0.274 HD
ATOM      4  H12 UNL     1     -32.770 -50.723  18.516  1.00  0.00     0.274 HD
ATOM      5  H11 UNL     1     -31.156 -50.196  18.407  1.00  0.00     0.274 HD
ENDBRANCH   1   2
BRANCH   1   6
HETATM    6  C2  UNL     1     -32.448 -53.036  18.770  1.00  0.00     0.092 C
BRANCH   6   7
HETATM    7  C3  UNL     1     -32.197 -53.448  20.162  1.00  0.00     0.031 A
HETATM    8  C4  UNL     1     -32.261 -52.576  21.235  1.00  0.00     0.118 A
HETATM    9  N2  UNL     1     -31.984 -53.260  22.356  1.00  0.00    -0.317 N
HETATM   10  C5  UNL     1     -31.756 -54.519  21.988  1.00  0.00     0.324 A
ATOM     11  H2  UNL     1     -31.954 -52.887  23.305  1.00  0.00     0.170 HD
HETATM   12  O1  UNL     1     -31.459 -55.452  22.811  1.00  0.00    -0.247 OA
HETATM   13  N3  UNL     1     -31.885 -54.630  20.659  1.00  0.00    -0.311 N
ATOM     14  H3  UNL     1     -31.762 -55.487  20.120  1.00  0.00     0.170 HD
ENDBRANCH   6   7
ENDBRANCH   1   6
BRANCH   1  15
HETATM   15  C6  UNL     1     -30.856 -52.783  16.942  1.00  0.00     0.142 C
BRANCH  15  16
HETATM   16  S1  UNL     1     -29.236 -53.437  17.119  1.00  0.00     0.021 S
HETATM   17  O2  UNL     1     -28.691 -54.245  15.786  1.00  0.00    -0.258 OA
BRANCH  16  18
HETATM   18  C7  UNL     1     -28.991 -54.293  18.633  1.00  0.00     0.147 C
BRANCH  18  19
HETATM   19  C8  UNL     1     -27.863 -53.806  19.425  1.00  0.00    -0.047 A
HETATM   20  C9  UNL     1     -26.708 -54.555  19.485  1.00  0.00     0.008 A
HETATM   21  C10 UNL     1     -25.618 -54.149  20.211  1.00  0.00     0.001 A
HETATM   22  C11 UNL     1     -25.643 -52.967  20.913  1.00  0.00     0.000 A
HETATM   23  C12 UNL     1     -26.803 -52.229  20.845  1.00  0.00     0.001 A
HETATM   24  C13 UNL     1     -27.911 -52.617  20.121  1.00  0.00     0.008 A
ENDBRANCH  18  19
ENDBRANCH  16  18
ENDBRANCH  15  16
ENDBRANCH   1  15
TORSDOF 7
ENDMDL