MODEL 2
REMARK VINA RESULT: -6.849182597      1.162      1.573
REMARK  8 active torsions:
REMARK  status: ('A' for Active; 'I' for Inactive)
REMARK    1  A    between atoms: C2_2  and  C3_3
REMARK    2  A    between atoms: C3_3  and  N1_4
REMARK    3  A    between atoms: N1_4  and  C4_6
REMARK    4  A    between atoms: C5_11  and  N4_12
REMARK    5  A    between atoms: N4_12  and  C6_14
REMARK    6  A    between atoms: C6_14  and  C7_15
REMARK    7  A    between atoms: C7_15  and  C8_16
REMARK    8  A    between atoms: C8_16  and  N5_17
ROOT
HETATM    1  C4  UNL     1     -32.807 -53.017  20.279  1.00  0.00     0.708 A
HETATM    2  N2  UNL     1     -32.373 -52.189  21.242  1.00  0.00    -0.117 N
ATOM      3  H2  UNL     1     -32.425 -51.171  21.219  1.00  0.00     0.206 HD
HETATM    4  N3  UNL     1     -31.869 -52.912  22.222  1.00  0.00    -0.117 N
ATOM      5  H3  UNL     1     -31.466 -52.538  23.081  1.00  0.00     0.206 HD
HETATM    6  C5  UNL     1     -31.966 -54.214  21.915  1.00  0.00     0.707 A
HETATM    7  N6  UNL     1     -32.553 -54.260  20.701  1.00  0.00    -0.020 N
ATOM      8  H6  UNL     1     -32.769 -55.113  20.185  1.00  0.00     0.203 HD
ENDROOT
BRANCH   6   9
HETATM    9  N4  UNL     1     -31.593 -55.220  22.599  1.00  0.00    -0.224 N
ATOM     10  H4  UNL     1     -31.945 -55.355  23.546  1.00  0.00     0.177 HD
BRANCH   9  11
HETATM   11  C6  UNL     1     -30.664 -56.173  22.024  1.00  0.00     0.139 C
BRANCH  11  12
HETATM   12  C7  UNL     1     -29.301 -55.519  21.818  1.00  0.00     0.040 C
BRANCH  12  13
HETATM   13  C8  UNL     1     -28.945 -55.435  20.363  1.00  0.00     0.128 C
BRANCH  13  14
HETATM   14  N5  UNL     1     -28.072 -54.352  20.028  1.00  0.00    -0.348 N
HETATM   15  C9  UNL     1     -28.516 -52.981  19.993  1.00  0.00     0.220 C
HETATM   16  O1  UNL     1     -29.695 -52.552  19.894  1.00  0.00    -0.273 OA
HETATM   17  C10 UNL     1     -27.338 -52.079  20.092  1.00  0.00     0.105 C
HETATM   18  C11 UNL     1     -26.229 -53.055  20.454  1.00  0.00     0.034 C
HETATM   19  C12 UNL     1     -26.681 -54.297  19.675  1.00  0.00     0.083 C
HETATM   20  C13 UNL     1     -25.885 -55.471  20.193  1.00  0.00     0.032 C
ENDBRANCH  13  14
ENDBRANCH  12  13
ENDBRANCH  11  12
ENDBRANCH   9  11
ENDBRANCH   6   9
BRANCH   1  21
HETATM   21  N1  UNL     1     -33.363 -52.724  19.159  1.00  0.00    -0.221 N
ATOM     22  H1  UNL     1     -34.209 -52.155  19.151  1.00  0.00     0.178 HD
BRANCH  21  23
HETATM   23  C3  UNL     1     -32.808 -53.186  17.918  1.00  0.00     0.164 C
BRANCH  23  24
HETATM   24  C2  UNL     1     -32.202 -52.083  17.132  1.00  0.00    -0.017 C
HETATM   25  C1  UNL     1     -30.928 -52.127  16.745  1.00  0.00     0.008 C
ENDBRANCH  23  24
ENDBRANCH  21  23
ENDBRANCH   1  21
TORSDOF 8
ENDMDL