MODEL 1
REMARK VINA RESULT: -6.848337436      0.000      0.000
REMARK  8 active torsions:
REMARK  status: ('A' for Active; 'I' for Inactive)
REMARK    1  A    between atoms: C2_2  and  C3_3
REMARK    2  A    between atoms: C6_8  and  N2_9
REMARK    3  A    between atoms: N3_13  and  C8_14
REMARK    4  A    between atoms: C8_14  and  C9_15
REMARK    5  A    between atoms: C9_15  and  C10_16
REMARK    6  A    between atoms: C10_16  and  C11_17
REMARK    7  A    between atoms: C11_17  and  N4_18
REMARK    8  A    between atoms: N4_18  and  C12_20
ROOT
HETATM    1  C8  UNL     1     -27.159 -52.817  19.414  1.00  0.00     0.128 C
ENDROOT
BRANCH   1   2
HETATM    2  N3  UNL     1     -28.403 -52.187  19.059  1.00  0.00    -0.355 N
HETATM    3  C3  UNL     1     -29.200 -52.739  18.143  1.00  0.00     0.033 A
HETATM    4  C4  UNL     1     -30.394 -52.070  17.847  1.00  0.00     0.029 A
HETATM    5  C5  UNL     1     -31.313 -52.623  16.849  1.00  0.00     0.070 C
HETATM    6  N1  UNL     1     -30.716 -50.924  18.463  1.00  0.00    -0.344 N
HETATM    7  C6  UNL     1     -29.908 -50.376  19.383  1.00  0.00     0.114 A
ATOM      8  H1  UNL     1     -31.593 -50.459  18.227  1.00  0.00     0.167 HD
HETATM    9  C7  UNL     1     -28.736 -51.013  19.688  1.00  0.00     0.139 A
BRANCH   3  10
HETATM   10  C2  UNL     1     -28.944 -53.978  17.403  1.00  0.00     0.055 C
HETATM   11  C1  UNL     1     -28.038 -53.815  16.201  1.00  0.00     0.011 C
ENDBRANCH   3  10
BRANCH   7  12
HETATM   12  N2  UNL     1     -30.218 -49.259  19.987  1.00  0.00    -0.384 N
ATOM     13  H22 UNL     1     -30.807 -48.572  19.515  1.00  0.00     0.157 HD
ATOM     14  H21 UNL     1     -29.882 -49.050  20.928  1.00  0.00     0.157 HD
ENDBRANCH   7  12
ENDBRANCH   1   2
BRANCH   1  15
HETATM   15  C9  UNL     1     -27.244 -53.335  20.834  1.00  0.00     0.022 C
BRANCH  15  16
HETATM   16  C10 UNL     1     -27.521 -54.837  20.844  1.00  0.00     0.022 C
BRANCH  16  17
HETATM   17  C11 UNL     1     -28.792 -55.104  21.647  1.00  0.00     0.138 C
BRANCH  17  18
HETATM   18  N4  UNL     1     -29.950 -55.158  20.831  1.00  0.00    -0.226 N
ATOM     19  H4  UNL     1     -29.991 -55.955  20.195  1.00  0.00     0.177 HD
BRANCH  18  20
HETATM   20  C12 UNL     1     -30.939 -54.374  20.765  1.00  0.00     0.677 A
HETATM   21  N5  UNL     1     -31.916 -54.604  19.871  1.00  0.00    -0.202 N
HETATM   22  C13 UNL     1     -32.993 -53.817  19.745  1.00  0.00     0.107 A
ATOM     23  H5  UNL     1     -31.834 -55.416  19.260  1.00  0.00     0.183 HD
HETATM   24  C14 UNL     1     -33.119 -52.709  20.569  1.00  0.00     0.035 A
HETATM   25  C15 UNL     1     -32.127 -52.469  21.482  1.00  0.00     0.107 A
HETATM   26  N6  UNL     1     -31.057 -53.311  21.558  1.00  0.00    -0.202 N
ATOM     27  H6  UNL     1     -30.325 -53.121  22.243  1.00  0.00     0.183 HD
ENDBRANCH  18  20
ENDBRANCH  17  18
ENDBRANCH  16  17
ENDBRANCH  15  16
ENDBRANCH   1  15
TORSDOF 8
ENDMDL