MODEL 3
REMARK VINA RESULT: -6.964988511      1.874      1.993
REMARK  6 active torsions:
REMARK  status: ('A' for Active; 'I' for Inactive)
REMARK    1  A    between atoms: C1_2  and  N1_3
REMARK    2  A    between atoms: N2_6  and  C4_7
REMARK    3  A    between atoms: C4_7  and  C5_8
REMARK    4  A    between atoms: C5_8  and  C6_9
REMARK    5  A    between atoms: C8_11  and  C9_12
REMARK    6  A    between atoms: C9_12  and  C10_13
ROOT
HETATM    1  C6  UNL     1     -27.620 -52.407  19.351  1.00  0.00     0.011 A
HETATM    2  C7  UNL     1     -28.847 -52.720  18.763  1.00  0.00     0.033 A
HETATM    3  C8  UNL     1     -29.721 -51.666  18.938  1.00  0.00    -0.035 A
HETATM    4  C13 UNL     1     -29.008 -50.711  19.641  1.00  0.00     0.095 A
HETATM    5  N5  UNL     1     -27.771 -51.188  19.865  1.00  0.00    -0.369 N
ATOM      6  H5  UNL     1     -27.041 -50.680  20.364  1.00  0.00     0.165 HD
ENDROOT
BRANCH   1   7
HETATM    7  C5  UNL     1     -26.439 -53.312  19.358  1.00  0.00     0.087 C
BRANCH   7   8
HETATM    8  C4  UNL     1     -26.677 -54.480  18.464  1.00  0.00     0.280 C
BRANCH   8   9
HETATM    9  N2  UNL     1     -26.836 -55.736  19.099  1.00  0.00     0.107 N
HETATM   10  C3  UNL     1     -26.412 -56.876  18.362  1.00  0.00     0.294 C
HETATM   11  C2  UNL     1     -26.548 -57.993  19.377  1.00  0.00     0.157 C
HETATM   12  N1  UNL     1     -26.057 -57.325  20.567  1.00  0.00    -0.332 N
HETATM   13  C14 UNL     1     -26.255 -55.897  20.386  1.00  0.00     0.399 C
BRANCH  12  14
HETATM   14  C1  UNL     1     -25.490 -57.981  21.688  1.00  0.00     0.352 C
HETATM   15  O1  UNL     1     -24.399 -57.600  22.180  1.00  0.00    -0.283 OA
ENDBRANCH  12  14
ENDBRANCH   8   9
ENDBRANCH   7   8
ENDBRANCH   1   7
BRANCH   3  16
HETATM   16  C9  UNL     1     -31.146 -51.558  18.474  1.00  0.00     0.098 C
BRANCH  16  17
HETATM   17  C10 UNL     1     -32.036 -52.428  19.259  1.00  0.00     0.033 A
HETATM   18  C11 UNL     1     -31.853 -52.931  20.507  1.00  0.00     0.118 A
HETATM   19  N3  UNL     1     -32.910 -53.685  20.871  1.00  0.00    -0.317 N
HETATM   20  C12 UNL     1     -33.761 -53.637  19.809  1.00  0.00     0.324 A
ATOM     21  H3  UNL     1     -33.043 -54.184  21.751  1.00  0.00     0.170 HD
HETATM   22  O2  UNL     1     -34.877 -54.217  19.744  1.00  0.00    -0.247 OA
HETATM   23  N4  UNL     1     -33.235 -52.880  18.839  1.00  0.00    -0.311 N
ATOM     24  H4  UNL     1     -33.667 -52.680  17.937  1.00  0.00     0.170 HD
ENDBRANCH  16  17
ENDBRANCH   3  16
TORSDOF 6
ENDMDL