MODEL 4
REMARK VINA RESULT: -6.272923333      2.039      3.961
REMARK  9 active torsions:
REMARK  status: ('A' for Active; 'I' for Inactive)
REMARK    1  A    between atoms: N1_2  and  C3_4
REMARK    2  A    between atoms: C3_4  and  C4_5
REMARK    3  A    between atoms: C5_6  and  C6_7
REMARK    4  A    between atoms: C9_10  and  N2_11
REMARK    5  A    between atoms: N2_11  and  C10_13
REMARK    6  A    between atoms: C10_13  and  C11_14
REMARK    7  A    between atoms: C11_14  and  C12_15
REMARK    8  A    between atoms: C12_15  and  C13_16
REMARK    9  A    between atoms: C13_16  and  N3_17
ROOT
HETATM    1  C6  UNL     1     -27.723 -54.136  17.598  1.00  0.00     0.033 A
HETATM    2  C7  UNL     1     -28.756 -55.009  17.858  1.00  0.00     0.026 A
HETATM    3  C8  UNL     1     -29.361 -54.985  19.107  1.00  0.00     0.050 A
HETATM    4  C9  UNL     1     -28.955 -54.114  20.092  1.00  0.00     0.100 A
HETATM    5  N6  UNL     1     -27.946 -53.277  19.810  1.00  0.00    -0.351 N
ATOM      6  H6  UNL     1     -27.631 -52.623  20.527  1.00  0.00     0.166 HD
HETATM    7  C15 UNL     1     -27.340 -53.275  18.609  1.00  0.00     0.110 A
ENDROOT
BRANCH   4   8
HETATM    8  N2  UNL     1     -29.522 -54.103  21.237  1.00  0.00    -0.376 N
ATOM      9  H2  UNL     1     -29.025 -53.641  21.999  1.00  0.00     0.161 HD
BRANCH   8  10
HETATM   10  C10 UNL     1     -30.806 -54.687  21.546  1.00  0.00     0.121 C
BRANCH  10  11
HETATM   11  C11 UNL     1     -31.920 -53.661  21.453  1.00  0.00     0.021 C
BRANCH  11  12
HETATM   12  C12 UNL     1     -32.744 -53.832  20.220  1.00  0.00     0.021 C
BRANCH  12  13
HETATM   13  C13 UNL     1     -32.684 -52.586  19.395  1.00  0.00     0.122 C
BRANCH  13  14
HETATM   14  N3  UNL     1     -31.634 -51.675  19.749  1.00  0.00    -0.367 N
HETATM   15  C14 UNL     1     -30.692 -51.332  18.947  1.00  0.00     0.196 C
HETATM   16  N4  UNL     1     -30.657 -51.865  17.632  1.00  0.00    -0.067 NA
HETATM   17  N5  UNL     1     -29.661 -50.424  19.313  1.00  0.00    -0.067 NA
ATOM     18  H3  UNL     1     -31.636 -51.278  20.688  1.00  0.00     0.161 HD
ENDBRANCH  13  14
ENDBRANCH  12  13
ENDBRANCH  11  12
ENDBRANCH  10  11
ENDBRANCH   8  10
ENDBRANCH   4   8
BRANCH   1  19
HETATM   19  C5  UNL     1     -27.056 -54.117  16.310  1.00  0.00    -0.064 C
HETATM   20  C4  UNL     1     -26.491 -54.118  15.240  1.00  0.00    -0.071 C
BRANCH  20  21
HETATM   21  C3  UNL     1     -25.791 -54.136  13.953  1.00  0.00     0.365 C
BRANCH  21  22
HETATM   22  N1  UNL     1     -25.254 -55.461  13.720  1.00  0.00     0.090 N
HETATM   23  C1  UNL     1     -26.272 -56.304  13.129  1.00  0.00     0.310 C
HETATM   24  C2  UNL     1     -24.040 -55.448  12.952  1.00  0.00     0.310 C
ENDBRANCH  21  22
ENDBRANCH  20  21
ENDBRANCH   1  19
TORSDOF 9
ENDMDL