MODEL 2
REMARK VINA RESULT: -7.200501096      3.132      6.021
REMARK  6 active torsions:
REMARK  status: ('A' for Active; 'I' for Inactive)
REMARK    1  A    between atoms: C3_5  and  C4_6
REMARK    2  A    between atoms: C4_6  and  C5_7
REMARK    3  A    between atoms: C5_7  and  C6_8
REMARK    4  A    between atoms: N4_14  and  C8_16
REMARK    5  A    between atoms: C8_16  and  C9_17
REMARK    6  A    between atoms: C9_17  and  C10_18
ROOT
HETATM    1  C1  UNL     1     -25.483 -53.128  20.727  1.00  0.00     0.064 C
HETATM    2  C2  UNL     1     -26.680 -53.543  20.385  1.00  0.00     0.112 A
HETATM    3  N1  UNL     1     -26.901 -54.011  19.070  1.00  0.00    -0.332 N
ATOM      4  H1  UNL     1     -26.119 -54.014  18.414  1.00  0.00     0.168 HD
HETATM    5  C3  UNL     1     -28.174 -54.480  18.620  1.00  0.00     0.099 A
HETATM    6  N3  UNL     1     -29.133 -54.457  19.482  1.00  0.00    -0.181 N
ATOM      7  H3  UNL     1     -30.047 -54.787  19.175  1.00  0.00     0.185 HD
HETATM    8  C7  UNL     1     -29.018 -54.013  20.808  1.00  0.00     0.680 A
HETATM    9  N4  UNL     1     -30.001 -54.002  21.653  1.00  0.00    -0.226 N
ATOM     10  H4  UNL     1     -29.854 -53.666  22.605  1.00  0.00     0.177 HD
HETATM   11  N5  UNL     1     -27.754 -53.534  21.303  1.00  0.00    -0.178 N
ATOM     12  H5  UNL     1     -27.641 -53.205  22.262  1.00  0.00     0.185 HD
ENDROOT
BRANCH   9  13
HETATM   13  C8  UNL     1     -31.298 -54.463  21.248  1.00  0.00     0.142 C
BRANCH  13  14
HETATM   14  C9  UNL     1     -32.244 -53.308  21.019  1.00  0.00     0.058 C
BRANCH  14  15
HETATM   15  C10 UNL     1     -32.053 -52.819  19.622  1.00  0.00    -0.057 A
HETATM   16  C11 UNL     1     -32.574 -53.536  18.538  1.00  0.00     0.007 A
HETATM   17  C12 UNL     1     -32.405 -53.094  17.244  1.00  0.00     0.001 A
HETATM   18  C13 UNL     1     -31.716 -51.935  16.995  1.00  0.00     0.000 A
HETATM   19  C14 UNL     1     -31.183 -51.197  18.050  1.00  0.00     0.001 A
HETATM   20  C15 UNL     1     -31.367 -51.660  19.336  1.00  0.00     0.007 A
ENDBRANCH  14  15
ENDBRANCH  13  14
ENDBRANCH   9  13
BRANCH   5  21
HETATM   21  C4  UNL     1     -28.326 -54.957  17.220  1.00  0.00     0.086 C
BRANCH  21  22
HETATM   22  C5  UNL     1     -27.816 -53.836  16.306  1.00  0.00     0.107 C
BRANCH  22  23
HETATM   23  C6  UNL     1     -27.261 -54.397  15.051  1.00  0.00     0.231 C
HETATM   24  N2  UNL     1     -27.815 -55.601  14.566  1.00  0.00    -0.062 NA
HETATM   25  O1  UNL     1     -26.328 -53.776  14.480  1.00  0.00    -0.277 OA
ENDBRANCH  22  23
ENDBRANCH  21  22
ENDBRANCH   5  21
TORSDOF 6
ENDMDL