MODEL 4
REMARK VINA RESULT: -7.086079830      1.028      1.028
REMARK  7 active torsions:
REMARK  status: ('A' for Active; 'I' for Inactive)
REMARK    1  A    between atoms: C2_2  and  C3_3
REMARK    2  A    between atoms: C3_3  and  N1_4
REMARK    3  A    between atoms: N1_4  and  C4_6
REMARK    4  A    between atoms: C6_8  and  C7_9
REMARK    5  A    between atoms: N3_11  and  C8_13
REMARK    6  A    between atoms: C8_13  and  C9_14
REMARK    7  A    between atoms: C9_14  and  C10_15
ROOT
HETATM    1  C4  UNL     1     -27.196 -54.151  18.469  1.00  0.00     0.107 A
HETATM    2  C5  UNL     1     -28.457 -53.961  19.033  1.00  0.00     0.081 A
HETATM    3  C6  UNL     1     -28.713 -54.445  20.292  1.00  0.00     0.081 A
HETATM    4  N5  UNL     1     -27.709 -55.085  20.916  1.00  0.00    -0.305 N
ATOM      5  H5  UNL     1     -27.887 -55.450  21.852  1.00  0.00     0.171 HD
HETATM    6  C14 UNL     1     -26.497 -55.278  20.399  1.00  0.00     0.326 A
HETATM    7  O1  UNL     1     -25.603 -55.894  21.055  1.00  0.00    -0.247 OA
HETATM    8  N6  UNL     1     -26.244 -54.800  19.153  1.00  0.00    -0.295 N
ATOM      9  H6  UNL     1     -25.324 -54.935  18.734  1.00  0.00     0.172 HD
ENDROOT
BRANCH   3  10
HETATM   10  C7  UNL     1     -30.012 -54.284  20.947  1.00  0.00     0.139 C
HETATM   11  N2  UNL     1     -30.458 -55.262  21.875  1.00  0.00    -0.081 NA
HETATM   12  N3  UNL     1     -30.767 -53.282  20.709  1.00  0.00    -0.376 N
ATOM     13  H3  UNL     1     -30.438 -52.586  20.041  1.00  0.00     0.160 HD
BRANCH  12  14
HETATM   14  C8  UNL     1     -32.052 -53.070  21.321  1.00  0.00     0.127 C
BRANCH  14  15
HETATM   15  C9  UNL     1     -33.174 -53.172  20.281  1.00  0.00     0.076 C
BRANCH  15  16
HETATM   16  C10 UNL     1     -32.661 -52.732  18.982  1.00  0.00     0.010 A
HETATM   17  C11 UNL     1     -32.247 -53.515  17.924  1.00  0.00     0.026 A
HETATM   18  C12 UNL     1     -31.834 -52.697  16.886  1.00  0.00     0.019 A
HETATM   19  C13 UNL     1     -32.009 -51.403  17.345  1.00  0.00     0.088 A
HETATM   20  N4  UNL     1     -32.495 -51.460  18.577  1.00  0.00    -0.369 N
ATOM     21  H4  UNL     1     -32.716 -50.643  19.146  1.00  0.00     0.165 HD
ENDBRANCH  15  16
ENDBRANCH  14  15
ENDBRANCH  12  14
ENDBRANCH   3  10
BRANCH   1  22
HETATM   22  N1  UNL     1     -26.955 -53.700  17.294  1.00  0.00    -0.373 N
ATOM     23  H1  UNL     1     -26.061 -53.230  17.158  1.00  0.00     0.161 HD
BRANCH  22  24
HETATM   24  C3  UNL     1     -27.820 -53.790  16.145  1.00  0.00     0.147 C
BRANCH  24  25
HETATM   25  C2  UNL     1     -27.248 -54.583  15.048  1.00  0.00    -0.018 C
HETATM   26  C1  UNL     1     -26.056 -54.279  14.563  1.00  0.00     0.008 C
ENDBRANCH  24  25
ENDBRANCH  22  24
ENDBRANCH   1  22
TORSDOF 7
ENDMDL