MODEL 1
REMARK VINA RESULT: -6.020223024      0.000      0.000
REMARK  7 active torsions:
REMARK  status: ('A' for Active; 'I' for Inactive)
REMARK    1  A    between atoms: N2_13  and  C9_14
REMARK    2  A    between atoms: C9_14  and  C10_15
REMARK    3  A    between atoms: C10_15  and  C11_16
REMARK    4  A    between atoms: C11_16  and  N3_17
REMARK    5  A    between atoms: N3_17  and  C12_20
REMARK    6  A    between atoms: C12_20  and  C13_21
REMARK    7  A    between atoms: C13_21  and  O2_22
ROOT
HETATM    1  O1  UNL     1     -29.309 -53.975  16.480  1.00  0.00    -0.273 OA
HETATM    2  C1  UNL     1     -29.381 -53.511  17.622  1.00  0.00     0.228 C
HETATM    3  C2  UNL     1     -28.774 -54.295  18.750  1.00  0.00     0.134 C
HETATM    4  C3  UNL     1     -27.854 -53.408  19.568  1.00  0.00     0.040 C
HETATM    5  C4  UNL     1     -27.585 -54.105  20.897  1.00  0.00     0.031 C
HETATM    6  C5  UNL     1     -26.252 -54.759  20.775  1.00  0.00     0.002 C
HETATM    7  C6  UNL     1     -25.857 -54.627  19.328  1.00  0.00     0.002 C
HETATM    8  C7  UNL     1     -26.496 -53.326  18.877  1.00  0.00     0.031 C
HETATM    9  N1  UNL     1     -28.422 -52.133  19.857  1.00  0.00    -0.357 N
ATOM     10  H1  UNL     1     -28.035 -51.584  20.625  1.00  0.00     0.162 HD
HETATM   11  C8  UNL     1     -29.491 -51.610  19.124  1.00  0.00     0.177 C
HETATM   12  S1  UNL     1     -30.187 -50.179  19.582  1.00  0.00    -0.041 SA
HETATM   13  N2  UNL     1     -29.997 -52.287  17.986  1.00  0.00    -0.295 N
ENDROOT
BRANCH  13  14
HETATM   14  C9  UNL     1     -31.082 -51.734  17.214  1.00  0.00     0.136 C
BRANCH  14  15
HETATM   15  C10 UNL     1     -32.348 -52.517  17.201  1.00  0.00     0.048 C
BRANCH  15  16
HETATM   16  C11 UNL     1     -32.759 -53.212  18.436  1.00  0.00     0.234 C
BRANCH  16  17
HETATM   17  N3  UNL     1     -33.269 -52.292  19.456  1.00  0.00    -0.073 N
ATOM     18  H32 UNL     1     -33.001 -51.333  19.235  1.00  0.00     0.277 HD
ATOM     19  H31 UNL     1     -34.283 -52.210  19.387  1.00  0.00     0.277 HD
BRANCH  17  20
HETATM   20  C12 UNL     1     -32.887 -52.621  20.787  1.00  0.00     0.258 C
BRANCH  20  21
HETATM   21  C13 UNL     1     -31.935 -53.826  20.765  1.00  0.00     0.191 C
BRANCH  21  22
HETATM   22  O2  UNL     1     -30.843 -53.570  21.580  1.00  0.00    -0.399 OA
ATOM     23  H2  UNL     1     -30.237 -54.300  21.537  1.00  0.00     0.209 HD
ENDBRANCH  21  22
ENDBRANCH  20  21
ENDBRANCH  17  20
ENDBRANCH  16  17
ENDBRANCH  15  16
ENDBRANCH  14  15
ENDBRANCH  13  14
TORSDOF 7
ENDMDL