MODEL 4
REMARK VINA RESULT: -6.856815871      3.617      4.931
REMARK  7 active torsions:
REMARK  status: ('A' for Active; 'I' for Inactive)
REMARK    1  A    between atoms: C1_2  and  C2_4
REMARK    2  A    between atoms: C5_7  and  C6_8
REMARK    3  A    between atoms: C6_8  and  C7_9
REMARK    4  A    between atoms: C7_9  and  C8_10
REMARK    5  A    between atoms: C10_14  and  C11_15
REMARK    6  A    between atoms: C11_15  and  C12_16
REMARK    7  A    between atoms: C12_16  and  N3_17
ROOT
HETATM    1  C8  UNL     1     -28.906 -55.534  20.174  1.00  0.00     0.026 A
HETATM    2  C9  UNL     1     -28.352 -54.741  21.139  1.00  0.00     0.114 A
HETATM    3  N2  UNL     1     -29.319 -54.003  21.706  1.00  0.00    -0.354 N
ATOM      4  H2  UNL     1     -29.211 -53.320  22.456  1.00  0.00     0.166 HD
HETATM    5  C10 UNL     1     -30.471 -54.350  21.078  1.00  0.00     0.085 A
HETATM    6  N5  UNL     1     -30.206 -55.293  20.138  1.00  0.00    -0.348 N
ATOM      7  H5  UNL     1     -30.885 -55.734  19.519  1.00  0.00     0.167 HD
ENDROOT
BRANCH   1   8
HETATM    8  C7  UNL     1     -28.162 -56.491  19.325  1.00  0.00     0.063 C
BRANCH   8   9
HETATM    9  C6  UNL     1     -28.702 -56.574  17.930  1.00  0.00     0.044 C
BRANCH   9  10
HETATM   10  C5  UNL     1     -27.829 -56.055  16.882  1.00  0.00    -0.058 A
HETATM   11  C4  UNL     1     -27.113 -56.832  15.993  1.00  0.00     0.008 A
HETATM   12  C3  UNL     1     -26.303 -56.303  15.020  1.00  0.00     0.017 A
HETATM   13  C2  UNL     1     -26.177 -54.934  14.899  1.00  0.00     0.029 A
HETATM   14  C15 UNL     1     -26.872 -54.147  15.762  1.00  0.00     0.017 A
HETATM   15  C14 UNL     1     -27.696 -54.687  16.752  1.00  0.00     0.008 A
BRANCH  13  16
HETATM   16  C1  UNL     1     -25.307 -54.400  13.852  1.00  0.00     0.264 C
HETATM   17  N1  UNL     1     -24.068 -54.998  13.551  1.00  0.00    -0.057 NA
HETATM   18  O1  UNL     1     -25.662 -53.384  13.200  1.00  0.00    -0.271 OA
ENDBRANCH  13  16
ENDBRANCH   9  10
ENDBRANCH   8   9
ENDBRANCH   1   8
BRANCH   5  19
HETATM   19  C11 UNL     1     -31.832 -53.829  21.327  1.00  0.00     0.143 C
BRANCH  19  20
HETATM   20  C12 UNL     1     -32.096 -52.719  20.313  1.00  0.00     0.234 A
HETATM   21  C13 UNL     1     -32.975 -53.016  19.168  1.00  0.00     0.119 A
HETATM   22  N4  UNL     1     -33.467 -52.396  20.157  1.00  0.00    -0.362 N
ATOM     23  H4  UNL     1     -34.292 -51.960  20.566  1.00  0.00     0.161 HD
BRANCH  20  24
HETATM   24  N3  UNL     1     -31.148 -51.627  20.239  1.00  0.00    -0.047 N
ATOM     25  H33 UNL     1     -30.477 -51.815  19.494  1.00  0.00     0.277 HD
ATOM     26  H32 UNL     1     -31.619 -50.800  19.873  1.00  0.00     0.277 HD
ATOM     27  H31 UNL     1     -30.642 -51.376  21.088  1.00  0.00     0.277 HD
ENDBRANCH  20  24
ENDBRANCH  19  20
ENDBRANCH   5  19
TORSDOF 7
ENDMDL