MODEL 3
REMARK VINA RESULT: -6.562315034      1.977      5.240
REMARK  6 active torsions:
REMARK  status: ('A' for Active; 'I' for Inactive)
REMARK    1  A    between atoms: N2_8  and  C5_10
REMARK    2  A    between atoms: C5_10  and  C6_11
REMARK    3  A    between atoms: C6_11  and  C7_12
REMARK    4  A    between atoms: C7_12  and  C8_13
REMARK    5  A    between atoms: C8_13  and  C9_14
REMARK    6  A    between atoms: C9_14  and  C10_15
ROOT
HETATM    1  C1  UNL     1     -25.215 -52.708  20.942  1.00  0.00     0.064 C
HETATM    2  C2  UNL     1     -26.300 -52.565  20.211  1.00  0.00     0.101 A
HETATM    3  N1  UNL     1     -26.550 -53.440  19.119  1.00  0.00    -0.308 N
ATOM      4  H1  UNL     1     -25.897 -54.188  18.886  1.00  0.00     0.170 HD
HETATM    5  C3  UNL     1     -27.726 -53.243  18.369  1.00  0.00     0.279 A
HETATM    6  O1  UNL     1     -27.954 -54.011  17.404  1.00  0.00    -0.265 OA
HETATM    7  C4  UNL     1     -28.715 -52.186  18.645  1.00  0.00     0.165 A
HETATM    8  N2  UNL     1     -29.754 -52.080  17.912  1.00  0.00    -0.381 N
ATOM      9  H2  UNL     1     -29.799 -52.776  17.169  1.00  0.00     0.160 HD
HETATM   10  C14 UNL     1     -28.420 -51.313  19.769  1.00  0.00     0.279 A
HETATM   11  O2  UNL     1     -29.194 -50.361  20.111  1.00  0.00    -0.265 OA
HETATM   12  N4  UNL     1     -27.215 -51.536  20.517  1.00  0.00    -0.308 N
ATOM     13  H4  UNL     1     -27.011 -50.922  21.305  1.00  0.00     0.170 HD
ENDROOT
BRANCH   8  14
HETATM   14  C5  UNL     1     -30.842 -51.204  17.922  1.00  0.00     0.120 C
BRANCH  14  15
HETATM   15  C6  UNL     1     -32.198 -51.929  17.894  1.00  0.00     0.020 C
BRANCH  15  16
HETATM   16  C7  UNL     1     -32.055 -53.174  18.700  1.00  0.00     0.002 C
BRANCH  16  17
HETATM   17  C8  UNL     1     -32.693 -53.087  20.055  1.00  0.00     0.006 C
BRANCH  17  18
HETATM   18  C9  UNL     1     -31.707 -52.700  21.132  1.00  0.00     0.057 C
BRANCH  18  19
HETATM   19  C10 UNL     1     -31.020 -53.902  21.671  1.00  0.00     0.009 A
HETATM   20  C11 UNL     1     -29.833 -54.475  21.219  1.00  0.00     0.026 A
HETATM   21  C12 UNL     1     -29.577 -55.570  22.018  1.00  0.00     0.019 A
HETATM   22  C13 UNL     1     -30.600 -55.653  22.940  1.00  0.00     0.088 A
HETATM   23  N3  UNL     1     -31.450 -54.642  22.707  1.00  0.00    -0.369 N
ATOM     24  H3  UNL     1     -32.300 -54.460  23.241  1.00  0.00     0.165 HD
ENDBRANCH  18  19
ENDBRANCH  17  18
ENDBRANCH  16  17
ENDBRANCH  15  16
ENDBRANCH  14  15
ENDBRANCH   8  14
TORSDOF 6
ENDMDL