MODEL 5
REMARK VINA RESULT: -6.996314086      2.551      4.904
REMARK  7 active torsions:
REMARK  status: ('A' for Active; 'I' for Inactive)
REMARK    1  A    between atoms: C7_12  and  C8_13
REMARK    2  A    between atoms: C8_13  and  C9_14
REMARK    3  A    between atoms: C10_19  and  C11_20
REMARK    4  A    between atoms: C11_20  and  C12_21
REMARK    5  A    between atoms: C12_21  and  C13_22
REMARK    6  A    between atoms: C13_22  and  C14_23
REMARK    7  A    between atoms: C14_23  and  O2_24
ROOT
HETATM    1  C8  UNL     1     -30.131 -52.573  18.968  1.00  0.00     0.106 C
ENDROOT
BRANCH   1   2
HETATM    2  C7  UNL     1     -30.671 -53.274  20.155  1.00  0.00     0.029 A
HETATM    3  C1  UNL     1     -31.977 -53.081  20.772  1.00  0.00     0.254 A
HETATM    4  O1  UNL     1     -32.843 -52.266  20.361  1.00  0.00    -0.268 OA
HETATM    5  N1  UNL     1     -32.016 -53.976  21.866  1.00  0.00    -0.308 N
HETATM    6  C2  UNL     1     -30.896 -54.619  21.906  1.00  0.00     0.118 A
ATOM      7  H1  UNL     1     -32.795 -54.093  22.512  1.00  0.00     0.170 HD
HETATM    8  N2  UNL     1     -30.492 -55.582  22.794  1.00  0.00    -0.352 N
HETATM    9  C6  UNL     1     -30.084 -54.202  20.881  1.00  0.00     0.020 A
HETATM   10  C3  UNL     1     -29.268 -56.110  22.631  1.00  0.00     0.090 A
ATOM     11  H2  UNL     1     -31.101 -55.889  23.552  1.00  0.00     0.166 HD
HETATM   12  C4  UNL     1     -28.420 -55.723  21.618  1.00  0.00     0.018 A
HETATM   13  C5  UNL     1     -28.813 -54.762  20.724  1.00  0.00     0.017 A
ENDBRANCH   1   2
BRANCH   1  14
HETATM   14  C9  UNL     1     -29.551 -51.293  19.447  1.00  0.00     0.054 A
HETATM   15  N3  UNL     1     -29.925 -50.066  19.784  1.00  0.00    -0.302 N
HETATM   16  N4  UNL     1     -28.706 -49.687  20.083  1.00  0.00    -0.303 N
ATOM     17  H3  UNL     1     -30.828 -49.593  19.803  1.00  0.00     0.186 HD
HETATM   18  C10 UNL     1     -28.249 -50.908  19.760  1.00  0.00     0.050 A
ATOM     19  H4  UNL     1     -28.282 -48.823  20.421  1.00  0.00     0.186 HD
BRANCH  18  20
HETATM   20  C11 UNL     1     -26.955 -51.601  19.775  1.00  0.00     0.061 C
BRANCH  20  21
HETATM   21  C12 UNL     1     -26.360 -51.945  21.065  1.00  0.00     0.008 C
BRANCH  21  22
HETATM   22  C13 UNL     1     -25.278 -52.931  21.151  1.00  0.00     0.026 C
BRANCH  22  23
HETATM   23  C14 UNL     1     -25.291 -54.087  20.232  1.00  0.00     0.164 C
BRANCH  23  24
HETATM   24  O2  UNL     1     -24.983 -55.296  20.874  1.00  0.00    -0.401 OA
ATOM     25  H2  UNL     1     -24.566 -55.925  20.295  1.00  0.00     0.209 HD
ENDBRANCH  23  24
ENDBRANCH  22  23
ENDBRANCH  21  22
ENDBRANCH  20  21
ENDBRANCH  18  20
ENDBRANCH   1  14
TORSDOF 7
ENDMDL