MODEL 3
REMARK VINA RESULT: -6.949941022      2.362      4.645
REMARK  9 active torsions:
REMARK  status: ('A' for Active; 'I' for Inactive)
REMARK    1  A    between atoms: C3_6  and  N3_7
REMARK    2  A    between atoms: N3_7  and  C4_9
REMARK    3  A    between atoms: C4_9  and  C5_10
REMARK    4  A    between atoms: C5_10  and  C6_11
REMARK    5  A    between atoms: C6_11  and  O1_12
REMARK    6  A    between atoms: C7_16  and  N5_17
REMARK    7  A    between atoms: N5_17  and  C8_19
REMARK    8  A    between atoms: C8_19  and  C9_20
REMARK    9  A    between atoms: C9_20  and  C10_21
ROOT
HETATM    1  C1  UNL     1     -26.415 -56.225  21.091  1.00  0.00     0.176 C
HETATM    2  N1  UNL     1     -27.697 -55.644  21.433  1.00  0.00    -0.182 N
HETATM    3  C2  UNL     1     -28.753 -56.469  21.701  1.00  0.00     0.217 A
HETATM    4  N2  UNL     1     -29.949 -55.994  22.019  1.00  0.00    -0.187 N
ATOM      5  H2  UNL     1     -30.727 -56.624  22.215  1.00  0.00     0.185 HD
HETATM    6  C3  UNL     1     -30.108 -54.679  22.075  1.00  0.00     0.693 A
HETATM    7  N4  UNL     1     -29.088 -53.871  21.815  1.00  0.00    -0.022 N
ATOM      8  H4  UNL     1     -29.246 -52.864  21.867  1.00  0.00     0.203 HD
HETATM    9  C7  UNL     1     -27.834 -54.310  21.483  1.00  0.00     0.699 A
ENDROOT
BRANCH   9  10
HETATM   10  N5  UNL     1     -26.986 -53.424  21.269  1.00  0.00    -0.204 N
ATOM     11  H5  UNL     1     -26.217 -53.474  21.938  1.00  0.00     0.183 HD
BRANCH  10  12
HETATM   12  C8  UNL     1     -26.804 -52.378  20.357  1.00  0.00     0.083 C
BRANCH  12  13
HETATM   13  C9  UNL     1     -27.298 -52.814  18.987  1.00  0.00     0.083 C
BRANCH  13  14
HETATM   14  C10 UNL     1     -28.575 -52.238  18.612  1.00  0.00    -0.053 A
HETATM   15  C11 UNL     1     -29.124 -51.213  19.337  1.00  0.00     0.007 A
HETATM   16  C12 UNL     1     -30.334 -50.635  19.019  1.00  0.00     0.001 A
HETATM   17  C13 UNL     1     -31.006 -51.140  17.902  1.00  0.00     0.000 A
HETATM   18  C14 UNL     1     -30.487 -52.169  17.149  1.00  0.00     0.001 A
HETATM   19  C15 UNL     1     -29.264 -52.710  17.520  1.00  0.00     0.007 A
ENDBRANCH  13  14
ENDBRANCH  12  13
ENDBRANCH  10  12
ENDBRANCH   9  10
BRANCH   6  20
HETATM   20  N3  UNL     1     -31.264 -54.185  22.382  1.00  0.00    -0.225 N
ATOM     21  H3  UNL     1     -31.804 -54.637  23.119  1.00  0.00     0.177 HD
BRANCH  20  22
HETATM   22  C4  UNL     1     -31.824 -53.029  21.735  1.00  0.00     0.140 C
BRANCH  22  23
HETATM   23  C5  UNL     1     -32.248 -53.459  20.326  1.00  0.00     0.046 C
BRANCH  23  24
HETATM   24  C6  UNL     1     -33.707 -53.105  20.109  1.00  0.00     0.165 C
BRANCH  24  25
HETATM   25  O1  UNL     1     -34.449 -54.232  20.519  1.00  0.00    -0.401 OA
ATOM     26  H1  UNL     1     -35.003 -53.939  21.233  1.00  0.00     0.209 HD
ENDBRANCH  24  25
ENDBRANCH  23  24
ENDBRANCH  22  23
ENDBRANCH  20  22
ENDBRANCH   6  20
TORSDOF 9
ENDMDL