MODEL 4
REMARK VINA RESULT: -5.774034229      1.795      4.173
REMARK  7 active torsions:
REMARK  status: ('A' for Active; 'I' for Inactive)
REMARK    1  A    between atoms: C2_2  and  C3_3
REMARK    2  A    between atoms: C3_3  and  N1_4
REMARK    3  A    between atoms: N2_7  and  C6_8
REMARK    4  A    between atoms: C6_8  and  C7_9
REMARK    5  A    between atoms: C7_9  and  C8_10
REMARK    6  A    between atoms: C8_10  and  N3_11
REMARK    7  A    between atoms: N3_11  and  C9_13
ROOT
HETATM    1  N3  UNL     1     -31.600 -53.980  21.156  1.00  0.00    -0.370 N
ATOM      2  H3  UNL     1     -32.601 -54.169  21.204  1.00  0.00     0.161 HD
ENDROOT
BRANCH   1   3
HETATM    3  C8  UNL     1     -30.720 -54.590  22.113  1.00  0.00     0.123 C
BRANCH   3   4
HETATM    4  C7  UNL     1     -29.553 -55.307  21.466  1.00  0.00     0.040 C
BRANCH   4   5
HETATM    5  C6  UNL     1     -28.262 -54.679  22.000  1.00  0.00     0.131 C
BRANCH   5   6
HETATM    6  N2  UNL     1     -27.632 -53.926  20.911  1.00  0.00    -0.351 N
HETATM    7  C5  UNL     1     -27.028 -52.725  21.006  1.00  0.00     0.109 A
HETATM    8  C4  UNL     1     -26.565 -52.358  19.760  1.00  0.00     0.109 A
HETATM    9  N1  UNL     1     -26.889 -53.345  18.899  1.00  0.00    -0.352 N
HETATM   10  C12 UNL     1     -27.533 -54.280  19.619  1.00  0.00     0.185 A
BRANCH   9  11
HETATM   11  C3  UNL     1     -26.584 -53.360  17.472  1.00  0.00     0.129 C
BRANCH  11  12
HETATM   12  C2  UNL     1     -27.549 -54.274  16.743  1.00  0.00     0.016 C
HETATM   13  C1  UNL     1     -26.818 -55.498  16.255  1.00  0.00     0.006 C
ENDBRANCH  11  12
ENDBRANCH   9  11
ENDBRANCH   5   6
ENDBRANCH   4   5
ENDBRANCH   3   4
ENDBRANCH   1   3
BRANCH   1  14
HETATM   14  C9  UNL     1     -31.146 -53.198  20.238  1.00  0.00     0.160 A
HETATM   15  N4  UNL     1     -30.612 -52.002  20.537  1.00  0.00    -0.171 N
HETATM   16  C10 UNL     1     -30.118 -51.122  19.680  1.00  0.00     0.678 A
ATOM     17  H4  UNL     1     -30.583 -51.746  21.524  1.00  0.00     0.186 HD
HETATM   18  N5  UNL     1     -29.648 -50.016  20.213  1.00  0.00    -0.234 N
HETATM   19  N6  UNL     1     -30.041 -51.224  18.347  1.00  0.00    -0.196 N
ATOM     20  H52 UNL     1     -29.705 -49.938  21.229  1.00  0.00     0.174 HD
ATOM     21  H51 UNL     1     -29.267 -49.338  19.553  1.00  0.00     0.174 HD
HETATM   22  C11 UNL     1     -30.471 -52.279  17.635  1.00  0.00     0.159 A
ATOM     23  H6  UNL     1     -29.627 -50.445  17.835  1.00  0.00     0.184 HD
HETATM   24  S1  UNL     1     -31.148 -53.536  18.555  1.00  0.00    -0.048 SA
ENDBRANCH   1  14
TORSDOF 7
ENDMDL