MODEL 2
REMARK VINA RESULT: -6.811507538      0.057      1.030
REMARK  7 active torsions:
REMARK  status: ('A' for Active; 'I' for Inactive)
REMARK    1  A    between atoms: N1_1  and  C1_5
REMARK    2  A    between atoms: C1_5  and  C2_6
REMARK    3  A    between atoms: C2_6  and  C3_7
REMARK    4  A    between atoms: N2_11  and  C7_12
REMARK    5  A    between atoms: C7_12  and  C8_13
REMARK    6  A    between atoms: C11_16  and  C12_17
REMARK    7  A    between atoms: C12_17  and  N3_18
ROOT
HETATM    1  C7  UNL     1     -28.485 -53.845  17.715  1.00  0.00     0.166 C
ENDROOT
BRANCH   1   2
HETATM    2  N2  UNL     1     -29.714 -53.063  17.916  1.00  0.00    -0.362 N
HETATM    3  C6  UNL     1     -30.022 -52.028  17.130  1.00  0.00     0.090 A
HETATM    4  C5  UNL     1     -31.198 -51.335  17.376  1.00  0.00     0.018 A
HETATM    5  C4  UNL     1     -32.045 -51.687  18.399  1.00  0.00     0.010 A
HETATM    6  C3  UNL     1     -31.713 -52.752  19.196  1.00  0.00    -0.041 A
HETATM    7  C16 UNL     1     -30.533 -53.403  18.905  1.00  0.00     0.098 A
BRANCH   6   8
HETATM    8  C2  UNL     1     -32.576 -53.193  20.322  1.00  0.00     0.067 C
BRANCH   8   9
HETATM    9  C1  UNL     1     -31.748 -53.700  21.476  1.00  0.00     0.234 C
BRANCH   9  10
HETATM   10  N1  UNL     1     -31.500 -52.647  22.445  1.00  0.00    -0.079 N
ATOM     11  H13 UNL     1     -30.512 -52.394  22.479  1.00  0.00     0.274 HD
ATOM     12  H12 UNL     1     -31.879 -51.753  22.133  1.00  0.00     0.274 HD
ATOM     13  H11 UNL     1     -31.853 -52.903  23.366  1.00  0.00     0.274 HD
ENDBRANCH   9  10
ENDBRANCH   8   9
ENDBRANCH   6   8
ENDBRANCH   1   2
BRANCH   1  14
HETATM   14  C8  UNL     1     -28.135 -54.617  18.919  1.00  0.00    -0.040 A
HETATM   15  C9  UNL     1     -28.203 -55.994  18.910  1.00  0.00     0.009 A
HETATM   16  C10 UNL     1     -27.879 -56.748  20.027  1.00  0.00     0.009 A
HETATM   17  C11 UNL     1     -27.476 -56.142  21.194  1.00  0.00    -0.041 A
HETATM   18  C14 UNL     1     -27.405 -54.764  21.211  1.00  0.00     0.009 A
HETATM   19  C15 UNL     1     -27.729 -54.013  20.092  1.00  0.00     0.009 A
BRANCH  17  20
HETATM   20  C12 UNL     1     -27.124 -56.951  22.408  1.00  0.00     0.160 C
BRANCH  20  21
HETATM   21  N3  UNL     1     -28.292 -57.518  23.018  1.00  0.00    -0.363 N
HETATM   22  C13 UNL     1     -28.809 -56.950  24.040  1.00  0.00     0.197 C
HETATM   23  N4  UNL     1     -28.233 -55.774  24.565  1.00  0.00    -0.067 NA
HETATM   24  N5  UNL     1     -29.957 -57.507  24.640  1.00  0.00    -0.067 NA
ATOM     25  H3  UNL     1     -28.708 -58.369  22.638  1.00  0.00     0.162 HD
ENDBRANCH  20  21
ENDBRANCH  17  20
ENDBRANCH   1  14
TORSDOF 7
ENDMDL