MODEL 2
REMARK VINA RESULT: -6.735043728      3.108      4.481
REMARK  8 active torsions:
REMARK  status: ('A' for Active; 'I' for Inactive)
REMARK    1  A    between atoms: N1_1  and  C1_5
REMARK    2  A    between atoms: C1_5  and  C2_6
REMARK    3  A    between atoms: C1_5  and  C9_13
REMARK    4  A    between atoms: C2_6  and  C3_7
REMARK    5  A    between atoms: C9_13  and  S1_14
REMARK    6  A    between atoms: S1_14  and  C10_16
REMARK    7  A    between atoms: C10_16  and  C11_17
REMARK    8  A    between atoms: N3_22  and  O2_23
ROOT
HETATM    1  C1  UNL     1     -31.105 -54.153  21.866  1.00  0.00     0.199 C
ENDROOT
BRANCH   1   2
HETATM    2  N1  UNL     1     -31.482 -52.971  22.579  1.00  0.00    -0.074 N
ATOM      3  H13 UNL     1     -31.252 -53.063  23.568  1.00  0.00     0.274 HD
ATOM      4  H12 UNL     1     -30.871 -52.194  22.329  1.00  0.00     0.274 HD
ATOM      5  H11 UNL     1     -32.461 -52.707  22.464  1.00  0.00     0.274 HD
ENDBRANCH   1   2
BRANCH   1   6
HETATM    6  C2  UNL     1     -30.198 -53.910  20.726  1.00  0.00     0.072 C
BRANCH   6   7
HETATM    7  C3  UNL     1     -30.580 -52.990  19.685  1.00  0.00    -0.056 A
HETATM    8  C4  UNL     1     -30.027 -51.708  19.561  1.00  0.00     0.007 A
HETATM    9  C5  UNL     1     -30.412 -50.839  18.573  1.00  0.00     0.001 A
HETATM   10  C6  UNL     1     -31.369 -51.215  17.665  1.00  0.00     0.000 A
HETATM   11  C7  UNL     1     -31.941 -52.465  17.749  1.00  0.00     0.001 A
HETATM   12  C8  UNL     1     -31.536 -53.337  18.762  1.00  0.00     0.007 A
ENDBRANCH   6   7
ENDBRANCH   1   6
BRANCH   1  13
HETATM   13  C9  UNL     1     -30.695 -55.243  22.787  1.00  0.00     0.142 C
BRANCH  13  14
HETATM   14  S1  UNL     1     -28.985 -55.713  22.621  1.00  0.00     0.024 S
HETATM   15  O1  UNL     1     -28.180 -55.516  24.090  1.00  0.00    -0.258 OA
BRANCH  14  16
HETATM   16  C10 UNL     1     -28.811 -57.411  22.129  1.00  0.00     0.187 C
BRANCH  16  17
HETATM   17  C11 UNL     1     -29.789 -58.236  22.872  1.00  0.00     0.120 A
HETATM   18  N2  UNL     1     -30.930 -58.744  22.444  1.00  0.00    -0.352 N
HETATM   19  C12 UNL     1     -31.527 -59.440  23.450  1.00  0.00     0.109 A
ATOM     20  H2  UNL     1     -31.308 -58.632  21.503  1.00  0.00     0.166 HD
HETATM   21  C13 UNL     1     -30.704 -59.353  24.547  1.00  0.00     0.141 A
HETATM   22  N3  UNL     1     -29.644 -58.610  24.172  1.00  0.00    -0.221 N
BRANCH  22  23
HETATM   23  O2  UNL     1     -28.602 -58.298  24.991  1.00  0.00    -0.282 OA
ATOM     24  H2  UNL     1     -28.654 -57.828  25.815  1.00  0.00     0.245 HD
ENDBRANCH  22  23
ENDBRANCH  16  17
ENDBRANCH  14  16
ENDBRANCH  13  14
ENDBRANCH   1  13
TORSDOF 8
ENDMDL