MODEL 4
REMARK VINA RESULT: -6.057329120      1.767      2.514
REMARK  9 active torsions:
REMARK  status: ('A' for Active; 'I' for Inactive)
REMARK    1  A    between atoms: N1_1  and  C1_4
REMARK    2  A    between atoms: N3_10  and  C5_11
REMARK    3  A    between atoms: C5_11  and  C6_12
REMARK    4  A    between atoms: C6_12  and  O1_13
REMARK    5  A    between atoms: O1_13  and  C7_14
REMARK    6  A    between atoms: C7_14  and  C8_15
REMARK    7  A    between atoms: C9_16  and  C10_17
REMARK    8  A    between atoms: C14_21  and  C15_22
REMARK    9  A    between atoms: C15_22  and  N4_23
ROOT
HETATM    1  C7  UNL     1     -28.983 -55.918  22.522  1.00  0.00     0.261 C
ENDROOT
BRANCH   1   2
HETATM    2  O1  UNL     1     -27.604 -55.852  22.540  1.00  0.00    -0.378 OA
BRANCH   2   3
HETATM    3  C6  UNL     1     -26.996 -56.532  21.516  1.00  0.00     0.189 C
BRANCH   3   4
HETATM    4  C5  UNL     1     -25.817 -55.785  20.932  1.00  0.00     0.173 C
BRANCH   4   5
HETATM    5  N3  UNL     1     -26.224 -54.906  19.855  1.00  0.00    -0.192 N
HETATM    6  C1  UNL     1     -25.851 -53.615  19.881  1.00  0.00     0.677 A
HETATM    7  N2  UNL     1     -26.243 -52.824  18.870  1.00  0.00    -0.202 N
HETATM    8  C2  UNL     1     -26.995 -53.261  17.827  1.00  0.00     0.107 A
ATOM      9  H2  UNL     1     -25.960 -51.844  18.886  1.00  0.00     0.183 HD
HETATM   10  C3  UNL     1     -27.380 -54.583  17.793  1.00  0.00     0.035 A
HETATM   11  C4  UNL     1     -26.977 -55.393  18.831  1.00  0.00     0.110 A
BRANCH   6  12
HETATM   12  N1  UNL     1     -25.129 -53.139  20.859  1.00  0.00    -0.234 N
ATOM     13  H12 UNL     1     -24.121 -53.020  20.761  1.00  0.00     0.174 HD
ATOM     14  H11 UNL     1     -25.561 -52.875  21.745  1.00  0.00     0.174 HD
ENDBRANCH   6  12
ENDBRANCH   4   5
ENDBRANCH   3   4
ENDBRANCH   2   3
ENDBRANCH   1   2
BRANCH   1  15
HETATM   15  C8  UNL     1     -29.443 -54.965  21.491  1.00  0.00    -0.075 C
HETATM   16  C9  UNL     1     -29.813 -54.171  20.658  1.00  0.00    -0.065 C
BRANCH  16  17
HETATM   17  C10 UNL     1     -30.250 -53.211  19.679  1.00  0.00     0.018 A
HETATM   18  C11 UNL     1     -30.987 -53.629  18.566  1.00  0.00     0.020 A
HETATM   19  C12 UNL     1     -31.402 -52.704  17.633  1.00  0.00     0.002 A
HETATM   20  C13 UNL     1     -31.085 -51.360  17.805  1.00  0.00     0.009 A
HETATM   21  C14 UNL     1     -30.362 -50.924  18.890  1.00  0.00    -0.032 A
HETATM   22  C16 UNL     1     -29.959 -51.857  19.806  1.00  0.00     0.029 A
BRANCH  21  23
HETATM   23  C15 UNL     1     -29.996 -49.503  19.124  1.00  0.00     0.268 C
BRANCH  23  24
HETATM   24  N4  UNL     1     -29.669 -49.248  20.520  1.00  0.00    -0.075 N
ATOM     25  H43 UNL     1     -30.492 -48.949  21.045  1.00  0.00     0.274 HD
ATOM     26  H42 UNL     1     -29.468 -50.115  21.018  1.00  0.00     0.274 HD
ATOM     27  H41 UNL     1     -28.905 -48.579  20.617  1.00  0.00     0.274 HD
ENDBRANCH  23  24
ENDBRANCH  21  23
ENDBRANCH  16  17
ENDBRANCH   1  15
TORSDOF 9
ENDMDL