MODEL 3
REMARK VINA RESULT: -6.067891311      1.788      2.560
REMARK  9 active torsions:
REMARK  status: ('A' for Active; 'I' for Inactive)
REMARK    1  A    between atoms: C2_2  and  C3_3
REMARK    2  A    between atoms: C3_3  and  C4_4
REMARK    3  A    between atoms: C5_7  and  C6_8
REMARK    4  A    between atoms: C6_8  and  C7_9
REMARK    5  A    between atoms: N2_17  and  C14_18
REMARK    6  A    between atoms: C14_18  and  C15_19
REMARK    7  A    between atoms: C15_19  and  C16_20
REMARK    8  A    between atoms: C16_20  and  C17_21
REMARK    9  A    between atoms: C17_21  and  N3_22
ROOT
HETATM    1  C4  UNL     1     -31.052 -53.690  21.505  1.00  0.00     0.114 A
HETATM    2  N1  UNL     1     -31.106 -54.606  22.465  1.00  0.00    -0.338 N
ATOM      3  H1  UNL     1     -31.847 -54.668  23.163  1.00  0.00     0.167 HD
HETATM    4  C5  UNL     1     -30.030 -55.457  22.390  1.00  0.00     0.103 A
HETATM    5  C13 UNL     1     -29.320 -55.006  21.327  1.00  0.00     0.279 A
HETATM    6  O1  UNL     1     -28.254 -55.482  20.888  1.00  0.00    -0.265 OA
HETATM    7  N2  UNL     1     -29.920 -53.936  20.773  1.00  0.00    -0.277 N
ENDROOT
BRANCH   7   8
HETATM    8  C14 UNL     1     -29.513 -53.219  19.638  1.00  0.00     0.075 C
BRANCH   8   9
HETATM    9  C15 UNL     1     -30.157 -53.420  18.346  1.00  0.00     0.047 C
BRANCH   9  10
HETATM   10  C16 UNL     1     -30.183 -52.219  17.446  1.00  0.00     0.032 C
BRANCH  10  11
HETATM   11  C17 UNL     1     -31.424 -51.400  17.590  1.00  0.00     0.230 C
BRANCH  11  12
HETATM   12  N3  UNL     1     -31.141 -50.348  18.569  1.00  0.00    -0.079 N
ATOM     13  H33 UNL     1     -31.174 -50.680  19.533  1.00  0.00     0.274 HD
ATOM     14  H32 UNL     1     -30.164 -50.052  18.564  1.00  0.00     0.274 HD
ATOM     15  H31 UNL     1     -31.791 -49.582  18.388  1.00  0.00     0.274 HD
ENDBRANCH  11  12
ENDBRANCH  10  11
ENDBRANCH   9  10
ENDBRANCH   8   9
ENDBRANCH   7   8
BRANCH   1  16
HETATM   16  C3  UNL     1     -31.923 -52.720  21.313  1.00  0.00     0.048 C
BRANCH  16  17
HETATM   17  C2  UNL     1     -33.122 -52.608  20.588  1.00  0.00    -0.007 C
HETATM   18  C1  UNL     1     -33.785 -53.463  19.901  1.00  0.00     0.011 C
ENDBRANCH  16  17
ENDBRANCH   1  16
BRANCH   4  19
HETATM   19  C6  UNL     1     -29.772 -56.469  23.178  1.00  0.00     0.046 C
BRANCH  19  20
HETATM   20  C7  UNL     1     -29.971 -57.857  22.803  1.00  0.00    -0.034 A
HETATM   21  C8  UNL     1     -29.032 -58.622  22.144  1.00  0.00     0.011 A
HETATM   22  C9  UNL     1     -29.254 -59.938  21.802  1.00  0.00     0.001 A
HETATM   23  C10 UNL     1     -30.452 -60.549  22.115  1.00  0.00     0.000 A
HETATM   24  C11 UNL     1     -31.403 -59.801  22.774  1.00  0.00     0.001 A
HETATM   25  C12 UNL     1     -31.161 -58.477  23.110  1.00  0.00     0.011 A
ENDBRANCH  19  20
ENDBRANCH   4  19
TORSDOF 9
ENDMDL