MODEL 5
REMARK VINA RESULT: -6.758537726      1.216      1.811
REMARK  6 active torsions:
REMARK  status: ('A' for Active; 'I' for Inactive)
REMARK    1  A    between atoms: N3_4  and  C2_6
REMARK    2  A    between atoms: C2_6  and  C3_7
REMARK    3  A    between atoms: C3_7  and  C4_8
REMARK    4  A    between atoms: C4_8  and  C5_9
REMARK    5  A    between atoms: C5_9  and  C6_10
REMARK    6  A    between atoms: C6_10  and  N4_11
ROOT
HETATM    1  N4  UNL     1     -28.409 -53.466  18.552  1.00  0.00     0.126 N
HETATM    2  C7  UNL     1     -27.903 -54.562  17.663  1.00  0.00     0.378 C
HETATM    3  C8  UNL     1     -26.653 -53.946  17.167  1.00  0.00     0.248 C
HETATM    4  O1  UNL     1     -26.130 -54.109  16.027  1.00  0.00    -0.272 OA
HETATM    5  N5  UNL     1     -26.165 -53.137  18.230  1.00  0.00    -0.325 N
ATOM      6  H5  UNL     1     -25.272 -52.646  18.275  1.00  0.00     0.165 HD
HETATM    7  C9  UNL     1     -27.226 -53.160  19.254  1.00  0.00     0.235 C
HETATM    8  C10 UNL     1     -26.914 -54.257  20.275  1.00  0.00     0.064 C
HETATM    9  C11 UNL     1     -25.414 -54.187  20.484  1.00  0.00     0.004 C
HETATM   10  C12 UNL     1     -25.040 -52.816  21.000  1.00  0.00     0.000 C
HETATM   11  C13 UNL     1     -26.245 -51.947  21.234  1.00  0.00     0.004 C
HETATM   12  C14 UNL     1     -27.198 -51.892  20.056  1.00  0.00     0.064 C
ENDROOT
BRANCH   1  13
HETATM   13  C6  UNL     1     -28.969 -52.538  17.650  1.00  0.00     0.276 C
BRANCH  13  14
HETATM   14  C5  UNL     1     -30.338 -52.739  17.125  1.00  0.00     0.030 C
BRANCH  14  15
HETATM   15  C4  UNL     1     -31.226 -51.519  17.434  1.00  0.00     0.003 C
BRANCH  15  16
HETATM   16  C3  UNL     1     -30.656 -50.787  18.628  1.00  0.00     0.020 C
BRANCH  16  17
HETATM   17  C2  UNL     1     -31.185 -51.419  19.897  1.00  0.00     0.122 C
BRANCH  17  18
HETATM   18  N3  UNL     1     -32.522 -51.933  19.709  1.00  0.00    -0.367 N
HETATM   19  C1  UNL     1     -32.812 -53.058  20.274  1.00  0.00     0.196 C
HETATM   20  N1  UNL     1     -31.894 -53.785  21.046  1.00  0.00    -0.067 NA
HETATM   21  N2  UNL     1     -34.135 -53.563  20.084  1.00  0.00    -0.067 NA
ATOM     22  H3  UNL     1     -33.211 -51.427  19.151  1.00  0.00     0.161 HD
ENDBRANCH  17  18
ENDBRANCH  16  17
ENDBRANCH  15  16
ENDBRANCH  14  15
ENDBRANCH  13  14
ENDBRANCH   1  13
TORSDOF 6
ENDMDL