MODEL 1
REMARK VINA RESULT: -6.814742087      0.000      0.000
REMARK  7 active torsions:
REMARK  status: ('A' for Active; 'I' for Inactive)
REMARK    1  A    between atoms: C1_4  and  C2_6
REMARK    2  A    between atoms: N3_8  and  C4_9
REMARK    3  A    between atoms: C4_9  and  C5_10
REMARK    4  A    between atoms: C5_10  and  C6_11
REMARK    5  A    between atoms: C6_11  and  C7_12
REMARK    6  A    between atoms: C7_12  and  N4_13
REMARK    7  A    between atoms: N5_22  and  N6_23
ROOT
HETATM    1  C2  UNL     1     -31.481 -53.487  20.315  1.00  0.00     0.113 A
HETATM    2  C3  UNL     1     -30.635 -54.238  19.488  1.00  0.00     0.127 A
HETATM    3  N3  UNL     1     -29.656 -54.719  20.265  1.00  0.00    -0.349 N
HETATM    4  C15 UNL     1     -29.877 -54.293  21.499  1.00  0.00     0.209 A
HETATM    5  N5  UNL     1     -31.002 -53.523  21.572  1.00  0.00    -0.254 N
ENDROOT
BRANCH   3   6
HETATM    6  C4  UNL     1     -28.540 -55.566  19.816  1.00  0.00     0.129 C
BRANCH   6   7
HETATM    7  C5  UNL     1     -28.422 -55.542  18.318  1.00  0.00     0.022 C
BRANCH   7   8
HETATM    8  C6  UNL     1     -27.007 -55.375  17.875  1.00  0.00     0.022 C
BRANCH   8   9
HETATM    9  C7  UNL     1     -26.650 -53.933  17.593  1.00  0.00     0.128 C
BRANCH   9  10
HETATM   10  N4  UNL     1     -26.437 -53.246  18.862  1.00  0.00    -0.356 N
HETATM   11  C8  UNL     1     -25.424 -53.533  19.689  1.00  0.00     0.091 A
HETATM   12  C9  UNL     1     -25.201 -52.898  20.893  1.00  0.00     0.018 A
HETATM   13  C10 UNL     1     -26.069 -51.891  21.299  1.00  0.00     0.015 A
HETATM   14  C11 UNL     1     -27.107 -51.602  20.446  1.00  0.00    -0.009 A
HETATM   15  C12 UNL     1     -27.289 -52.263  19.252  1.00  0.00     0.044 A
HETATM   16  C14 UNL     1     -28.292 -50.829  20.118  1.00  0.00     0.016 A
HETATM   17  C13 UNL     1     -28.469 -51.474  18.955  1.00  0.00     0.031 A
ENDBRANCH   9  10
ENDBRANCH   8   9
ENDBRANCH   7   8
ENDBRANCH   6   7
ENDBRANCH   3   6
BRANCH   1  18
HETATM   18  C1  UNL     1     -32.669 -52.805  19.815  1.00  0.00     0.140 C
HETATM   19  N1  UNL     1     -32.677 -51.674  19.257  1.00  0.00    -0.386 N
ATOM     20  H12 UNL     1     -33.508 -51.197  18.908  1.00  0.00     0.157 HD
ATOM     21  H11 UNL     1     -31.780 -51.202  19.149  1.00  0.00     0.157 HD
HETATM   22  N2  UNL     1     -33.946 -53.477  19.969  1.00  0.00    -0.081 NA
ENDBRANCH   1  18
BRANCH   5  23
HETATM   23  N6  UNL     1     -31.498 -52.931  22.731  1.00  0.00    -0.337 N
ATOM     24  H62 UNL     1     -32.055 -52.077  22.764  1.00  0.00     0.177 HD
ATOM     25  H61 UNL     1     -31.402 -53.222  23.703  1.00  0.00     0.177 HD
ENDBRANCH   5  23
TORSDOF 7
ENDMDL