MODEL 1
REMARK VINA RESULT: -6.658144995      0.000      0.000
REMARK  7 active torsions:
REMARK  status: ('A' for Active; 'I' for Inactive)
REMARK       I    between atoms: C1_2  and  N3_10
REMARK    1  A    between atoms: N2_3  and  C2_5
REMARK    2  A    between atoms: C2_5  and  C3_6
REMARK    3  A    between atoms: C3_6  and  C4_7
REMARK    4  A    between atoms: C4_7  and  O1_8
REMARK    5  A    between atoms: N3_10  and  C5_12
REMARK    6  A    between atoms: C5_12  and  C6_13
REMARK    7  A    between atoms: C6_13  and  N4_14
ROOT
HETATM    1  C5  UNL     1      44.255  -0.831  20.122  1.00  0.00     0.166 C
ENDROOT
BRANCH   1   2
HETATM    2  N3  UNL     1      44.548  -0.566  18.742  1.00  0.00    -0.360 N
HETATM    3  C1  UNL     1      44.006  -1.381  17.712  1.00  0.00     0.184 C
HETATM    4  N1  UNL     1      42.774  -2.071  17.842  1.00  0.00    -0.064 NA
HETATM    5  N2  UNL     1      44.619  -1.535  16.583  1.00  0.00    -0.365 N
ATOM      6  H2  UNL     1      44.213  -2.124  15.854  1.00  0.00     0.162 HD
ATOM      7  H3  UNL     1      45.154   0.217  18.498  1.00  0.00     0.162 HD
BRANCH   5   8
HETATM    8  C2  UNL     1      45.868  -0.875  16.362  1.00  0.00     0.124 C
BRANCH   8   9
HETATM    9  C3  UNL     1      45.772   0.198  15.291  1.00  0.00     0.046 C
BRANCH   9  10
HETATM   10  C4  UNL     1      45.777   1.578  15.912  1.00  0.00     0.165 C
BRANCH  10  11
HETATM   11  O1  UNL     1      44.633   1.726  16.732  1.00  0.00    -0.401 OA
ATOM     12  H1  UNL     1      43.851   1.653  16.197  1.00  0.00     0.209 HD
ENDBRANCH  10  11
ENDBRANCH   9  10
ENDBRANCH   8   9
ENDBRANCH   5   8
ENDBRANCH   1   2
BRANCH   1  13
HETATM   13  C6  UNL     1      43.500   0.308  20.778  1.00  0.00     0.078 C
BRANCH  13  14
HETATM   14  N4  UNL     1      43.082   0.047  22.092  1.00  0.00    -0.382 N
HETATM   15  C7  UNL     1      43.741  -0.984  22.811  1.00  0.00     0.123 C
HETATM   16  C8  UNL     1      42.687  -1.796  23.518  1.00  0.00     0.020 C
HETATM   17  C9  UNL     1      41.726  -0.863  24.172  1.00  0.00     0.004 C
HETATM   18  C10 UNL     1      42.150   0.567  24.211  1.00  0.00     0.031 C
HETATM   19  C11 UNL     1      42.587   1.112  22.872  1.00  0.00     0.032 C
HETATM   20  C12 UNL     1      43.713   2.086  23.145  1.00  0.00     0.031 C
HETATM   21  C15 UNL     1      41.519   1.939  22.262  1.00  0.00     0.031 C
HETATM   22  C13 UNL     1      43.534   3.267  22.244  1.00  0.00     0.002 C
HETATM   23  C14 UNL     1      42.031   3.349  22.114  1.00  0.00     0.002 C
ENDBRANCH  13  14
ENDBRANCH   1  13
TORSDOF 7
ENDMDL