MODEL 2
REMARK VINA RESULT: -6.522211268      3.833      6.129
REMARK  8 active torsions:
REMARK  status: ('A' for Active; 'I' for Inactive)
REMARK    1  A    between atoms: N1_1  and  C1_5
REMARK    2  A    between atoms: C1_5  and  C2_6
REMARK    3  A    between atoms: C2_6  and  C3_7
REMARK    4  A    between atoms: C3_7  and  N2_8
REMARK    5  A    between atoms: C8_13  and  C9_14
REMARK    6  A    between atoms: C9_14  and  N3_15
REMARK    7  A    between atoms: C13_19  and  C14_20
REMARK    8  A    between atoms: N5_22  and  O1_24
ROOT
HETATM    1  N2  UNL     1      43.444   0.373  22.473  1.00  0.00    -0.359 N
HETATM    2  C4  UNL     1      43.279   1.729  22.537  1.00  0.00     0.091 A
HETATM    3  C5  UNL     1      43.619   2.442  23.656  1.00  0.00     0.017 A
HETATM    4  C6  UNL     1      44.141   1.782  24.746  1.00  0.00     0.003 A
HETATM    5  C7  UNL     1      44.293   0.401  24.640  1.00  0.00     0.027 A
HETATM    6  C8  UNL     1      43.949  -0.325  23.507  1.00  0.00     0.029 A
ENDROOT
BRANCH   6   7
HETATM    7  C9  UNL     1      44.211  -1.768  23.545  1.00  0.00     0.184 C
BRANCH   7   8
HETATM    8  N3  UNL     1      45.561  -2.212  23.533  1.00  0.00    -0.360 N
HETATM    9  C10 UNL     1      46.282  -2.009  22.418  1.00  0.00     0.091 A
HETATM   10  C11 UNL     1      47.582  -2.432  22.366  1.00  0.00     0.018 A
HETATM   11  C12 UNL     1      48.199  -3.069  23.420  1.00  0.00     0.017 A
HETATM   12  C13 UNL     1      47.469  -3.280  24.561  1.00  0.00     0.022 A
HETATM   13  C15 UNL     1      46.145  -2.827  24.560  1.00  0.00     0.105 A
BRANCH  12  14
HETATM   14  C14 UNL     1      48.027  -3.946  25.737  1.00  0.00     0.147 C
HETATM   15  N4  UNL     1      49.003  -4.958  25.571  1.00  0.00    -0.080 NA
HETATM   16  N5  UNL     1      47.616  -3.595  26.897  1.00  0.00    -0.255 N
ATOM     17  H5  UNL     1      46.911  -2.861  26.962  1.00  0.00     0.195 HD
BRANCH  16  18
HETATM   18  O1  UNL     1      48.079  -4.159  28.052  1.00  0.00    -0.288 OA
ATOM     19  H1  UNL     1      47.657  -4.033  28.894  1.00  0.00     0.244 HD
ENDBRANCH  16  18
ENDBRANCH  12  14
ENDBRANCH   7   8
ENDBRANCH   6   7
BRANCH   1  20
HETATM   20  C3  UNL     1      43.010  -0.235  21.264  1.00  0.00     0.130 C
BRANCH  20  21
HETATM   21  C2  UNL     1      43.981  -0.303  20.149  1.00  0.00     0.047 C
BRANCH  21  22
HETATM   22  C1  UNL     1      43.449   0.143  18.847  1.00  0.00     0.231 C
BRANCH  22  23
HETATM   23  N1  UNL     1      42.525   1.239  18.939  1.00  0.00    -0.079 N
ATOM     24  H13 UNL     1      41.849   1.075  19.685  1.00  0.00     0.274 HD
ATOM     25  H12 UNL     1      42.989   2.069  19.307  1.00  0.00     0.274 HD
ATOM     26  H11 UNL     1      42.048   1.453  18.064  1.00  0.00     0.274 HD
ENDBRANCH  22  23
ENDBRANCH  21  22
ENDBRANCH  20  21
ENDBRANCH   1  20
TORSDOF 8
ENDMDL