MODEL 5
REMARK VINA RESULT: -6.367825645      2.045      3.199
REMARK  8 active torsions:
REMARK  status: ('A' for Active; 'I' for Inactive)
REMARK    1  A    between atoms: C2_5  and  C3_6
REMARK    2  A    between atoms: C2_5  and  N5_14
REMARK    3  A    between atoms: C3_6  and  C4_7
REMARK    4  A    between atoms: N5_14  and  C7_16
REMARK    5  A    between atoms: C7_16  and  C8_17
REMARK    6  A    between atoms: C8_17  and  C9_18
REMARK    7  A    between atoms: C9_18  and  N6_19
REMARK    8  A    between atoms: N6_19  and  C10_21
ROOT
HETATM    1  N1  UNL     1      42.751  -0.376  17.528  1.00  0.00    -0.172 NA
HETATM    2  C1  UNL     1      43.396  -0.135  18.483  1.00  0.00     0.183 C
HETATM    3  N2  UNL     1      44.173   0.128  19.615  1.00  0.00    -0.283 N
ATOM      4  H2  UNL     1      44.974   0.755  19.538  1.00  0.00     0.179 HD
HETATM    5  C2  UNL     1      43.891  -0.418  20.779  1.00  0.00     0.093 C
ENDROOT
BRANCH   5   6
HETATM    6  C3  UNL     1      44.737  -0.106  21.926  1.00  0.00     0.153 C
BRANCH   6   7
HETATM    7  C4  UNL     1      43.930   0.601  22.953  1.00  0.00     0.087 A
HETATM    8  N3  UNL     1      43.513   0.087  24.107  1.00  0.00    -0.354 N
HETATM    9  C5  UNL     1      42.810   1.048  24.754  1.00  0.00     0.106 A
ATOM     10  H3  UNL     1      43.692  -0.860  24.445  1.00  0.00     0.166 HD
HETATM   11  C6  UNL     1      42.824   2.159  23.935  1.00  0.00     0.106 A
HETATM   12  N4  UNL     1      43.526   1.884  22.805  1.00  0.00    -0.354 N
ATOM     13  H4  UNL     1      43.708   2.507  22.018  1.00  0.00     0.166 HD
ENDBRANCH   6   7
ENDBRANCH   5   6
BRANCH   5  14
HETATM   14  N5  UNL     1      42.781  -1.281  20.847  1.00  0.00    -0.379 N
ATOM     15  H5  UNL     1      41.882  -0.984  20.469  1.00  0.00     0.160 HD
BRANCH  14  16
HETATM   16  C7  UNL     1      42.910  -2.579  21.447  1.00  0.00     0.122 C
BRANCH  16  17
HETATM   17  C8  UNL     1      44.095  -3.374  20.967  1.00  0.00     0.039 C
BRANCH  17  18
HETATM   18  C9  UNL     1      44.408  -4.356  22.108  1.00  0.00     0.123 C
BRANCH  18  19
HETATM   19  N6  UNL     1      44.730  -3.598  23.257  1.00  0.00    -0.376 N
ATOM     20  H6  UNL     1      43.938  -3.350  23.849  1.00  0.00     0.161 HD
BRANCH  19  21
HETATM   21  C10 UNL     1      45.857  -3.179  23.661  1.00  0.00     0.100 A
HETATM   22  C11 UNL     1      46.073  -2.394  24.760  1.00  0.00     0.048 A
HETATM   23  C12 UNL     1      47.349  -1.998  25.109  1.00  0.00     0.005 A
HETATM   24  C13 UNL     1      48.453  -2.375  24.366  1.00  0.00     0.017 A
HETATM   25  C14 UNL     1      48.203  -3.166  23.265  1.00  0.00     0.089 A
HETATM   26  N7  UNL     1      46.955  -3.543  22.940  1.00  0.00    -0.353 N
ATOM     27  H7  UNL     1      46.824  -4.127  22.114  1.00  0.00     0.166 HD
ENDBRANCH  19  21
ENDBRANCH  18  19
ENDBRANCH  17  18
ENDBRANCH  16  17
ENDBRANCH  14  16
ENDBRANCH   5  14
TORSDOF 8
ENDMDL