MODEL 5
REMARK VINA RESULT: -6.187440174      2.437      7.427
REMARK  9 active torsions:
REMARK  status: ('A' for Active; 'I' for Inactive)
REMARK    1  A    between atoms: C2_2  and  C3_3
REMARK    2  A    between atoms: C3_3  and  N1_4
REMARK    3  A    between atoms: N2_7  and  C6_8
REMARK    4  A    between atoms: C6_8  and  C7_9
REMARK    5  A    between atoms: C10_12  and  C11_13
REMARK    6  A    between atoms: C11_13  and  N3_14
REMARK    7  A    between atoms: C11_13  and  N4_18
REMARK    8  A    between atoms: C15_25  and  C16_26
REMARK    9  A    between atoms: C16_26  and  O1_27
ROOT
HETATM    1  C7  UNL     1      46.444  -2.993  23.443  1.00  0.00    -0.040 A
HETATM    2  C8  UNL     1      47.769  -3.154  23.122  1.00  0.00     0.009 A
HETATM    3  C9  UNL     1      48.706  -3.431  24.103  1.00  0.00     0.011 A
HETATM    4  C10 UNL     1      48.331  -3.552  25.424  1.00  0.00    -0.001 A
HETATM    5  C12 UNL     1      47.012  -3.396  25.770  1.00  0.00     0.011 A
HETATM    6  C13 UNL     1      46.083  -3.117  24.767  1.00  0.00     0.009 A
ENDROOT
BRANCH   1   7
HETATM    7  C6  UNL     1      45.423  -2.699  22.440  1.00  0.00     0.166 C
BRANCH   7   8
HETATM    8  N2  UNL     1      44.732  -1.446  22.662  1.00  0.00    -0.359 N
HETATM    9  C5  UNL     1      45.203  -0.247  22.278  1.00  0.00     0.108 A
HETATM   10  C4  UNL     1      44.540   0.931  22.494  1.00  0.00     0.108 A
HETATM   11  N1  UNL     1      43.352   0.927  23.124  1.00  0.00    -0.352 N
HETATM   12  C15 UNL     1      42.836  -0.266  23.533  1.00  0.00     0.051 A
HETATM   13  C14 UNL     1      43.545  -1.445  23.292  1.00  0.00     0.118 A
BRANCH  11  14
HETATM   14  C3  UNL     1      42.666   2.181  23.342  1.00  0.00     0.155 C
BRANCH  14  15
HETATM   15  C2  UNL     1      42.498   2.879  22.035  1.00  0.00    -0.017 C
HETATM   16  C1  UNL     1      43.123   4.015  21.765  1.00  0.00     0.008 C
ENDBRANCH  14  15
ENDBRANCH  11  14
BRANCH  12  17
HETATM   17  C16 UNL     1      41.530  -0.283  24.229  1.00  0.00     0.222 C
BRANCH  17  18
HETATM   18  O1  UNL     1      41.120  -1.615  24.360  1.00  0.00    -0.395 OA
ATOM     19  H1  UNL     1      40.976  -1.794  25.282  1.00  0.00     0.209 HD
ENDBRANCH  17  18
ENDBRANCH  12  17
ENDBRANCH   7   8
ENDBRANCH   1   7
BRANCH   4  20
HETATM   20  C11 UNL     1      49.363  -3.850  26.446  1.00  0.00     0.411 C
BRANCH  20  21
HETATM   21  N3  UNL     1      50.586  -4.187  25.729  1.00  0.00    -0.046 N
ATOM     22  H33 UNL     1      50.618  -3.799  24.786  1.00  0.00     0.277 HD
ATOM     23  H32 UNL     1      51.410  -3.708  26.093  1.00  0.00     0.277 HD
ATOM     24  H31 UNL     1      50.672  -5.203  25.748  1.00  0.00     0.277 HD
ENDBRANCH  20  21
BRANCH  20  25
HETATM   25  N4  UNL     1      48.971  -4.917  27.324  1.00  0.00    -0.046 N
ATOM     26  H43 UNL     1      49.668  -5.068  28.054  1.00  0.00     0.277 HD
ATOM     27  H42 UNL     1      48.181  -4.642  27.907  1.00  0.00     0.277 HD
ATOM     28  H41 UNL     1      48.774  -5.781  26.819  1.00  0.00     0.277 HD
ENDBRANCH  20  25
ENDBRANCH   4  20
TORSDOF 9
ENDMDL