MODEL 3
REMARK VINA RESULT: -7.076635299      1.460      2.071
REMARK  8 active torsions:
REMARK  status: ('A' for Active; 'I' for Inactive)
REMARK    1  A    between atoms: C1_2  and  C2_7
REMARK    2  A    between atoms: N2_3  and  O1_5
REMARK    3  A    between atoms: N3_10  and  C5_11
REMARK    4  A    between atoms: C5_11  and  C6_12
REMARK    5  A    between atoms: C6_12  and  C7_13
REMARK    6  A    between atoms: C7_13  and  C8_14
REMARK    7  A    between atoms: C8_14  and  N4_15
REMARK    8  A    between atoms: C13_20  and  O2_21
ROOT
HETATM    1  C2  UNL     1      46.736  -2.651  24.293  1.00  0.00     0.009 A
HETATM    2  C3  UNL     1      46.623  -3.280  23.085  1.00  0.00     0.032 A
HETATM    3  C4  UNL     1      45.452  -3.164  22.318  1.00  0.00     0.091 A
HETATM    4  N3  UNL     1      44.417  -2.437  22.743  1.00  0.00    -0.366 N
HETATM    5  C14 UNL     1      44.481  -1.800  23.923  1.00  0.00     0.091 A
HETATM    6  C15 UNL     1      45.607  -1.905  24.674  1.00  0.00     0.032 A
ENDROOT
BRANCH   4   7
HETATM    7  C5  UNL     1      43.217  -2.323  21.948  1.00  0.00     0.128 C
BRANCH   7   8
HETATM    8  C6  UNL     1      43.526  -1.762  20.563  1.00  0.00     0.022 C
BRANCH   8   9
HETATM    9  C7  UNL     1      43.791  -0.291  20.740  1.00  0.00     0.022 C
BRANCH   9  10
HETATM   10  C8  UNL     1      42.579   0.453  21.252  1.00  0.00     0.130 C
BRANCH  10  11
HETATM   11  N4  UNL     1      42.927   0.997  22.547  1.00  0.00    -0.338 N
HETATM   12  C9  UNL     1      44.100   1.630  22.687  1.00  0.00     0.093 A
HETATM   13  C10 UNL     1      44.508   2.179  23.901  1.00  0.00     0.017 A
HETATM   14  C11 UNL     1      43.663   2.055  24.974  1.00  0.00     0.006 A
HETATM   15  C12 UNL     1      42.455   1.396  24.805  1.00  0.00     0.056 A
HETATM   16  C13 UNL     1      42.106   0.871  23.576  1.00  0.00     0.141 A
BRANCH  16  17
HETATM   17  O2  UNL     1      40.868   0.222  23.499  1.00  0.00    -0.346 OA
ATOM     18  H2  UNL     1      40.093   0.520  23.959  1.00  0.00     0.219 HD
ENDBRANCH  16  17
ENDBRANCH  10  11
ENDBRANCH   9  10
ENDBRANCH   8   9
ENDBRANCH   7   8
ENDBRANCH   4   7
BRANCH   1  19
HETATM   19  C1  UNL     1      47.865  -2.676  25.187  1.00  0.00     0.146 C
HETATM   20  N1  UNL     1      48.953  -1.782  24.920  1.00  0.00    -0.080 NA
HETATM   21  N2  UNL     1      47.995  -3.406  26.186  1.00  0.00    -0.255 N
ATOM     22  H2  UNL     1      48.866  -3.285  26.703  1.00  0.00     0.195 HD
BRANCH  21  23
HETATM   23  O1  UNL     1      47.167  -4.318  26.674  1.00  0.00    -0.288 OA
ATOM     24  H1  UNL     1      46.469  -4.219  27.310  1.00  0.00     0.244 HD
ENDBRANCH  21  23
ENDBRANCH   1  19
TORSDOF 8
ENDMDL