MODEL 1
REMARK VINA RESULT: -7.123585718      0.000      0.000
REMARK  8 active torsions:
REMARK  status: ('A' for Active; 'I' for Inactive)
REMARK    1  A    between atoms: C1_2  and  C2_4
REMARK    2  A    between atoms: C2_4  and  C3_5
REMARK    3  A    between atoms: C3_5  and  N2_6
REMARK    4  A    between atoms: N2_6  and  C4_8
REMARK    5  A    between atoms: C7_13  and  N4_14
REMARK    6  A    between atoms: N4_14  and  C8_16
REMARK    7  A    between atoms: C8_16  and  C9_17
REMARK    8  A    between atoms: C9_17  and  C10_18
ROOT
HETATM    1  C4  UNL     1      43.525  -2.153  20.868  1.00  0.00     0.118 A
HETATM    2  C5  UNL     1      44.690  -2.733  21.326  1.00  0.00     0.066 A
HETATM    3  C6  UNL     1      44.876  -2.980  22.678  1.00  0.00     0.110 A
HETATM    4  N3  UNL     1      43.867  -2.628  23.516  1.00  0.00    -0.202 N
ATOM      5  H3  UNL     1      43.973  -2.798  24.516  1.00  0.00     0.183 HD
HETATM    6  C7  UNL     1      42.734  -2.064  23.066  1.00  0.00     0.679 A
HETATM    7  N5  UNL     1      42.562  -1.827  21.750  1.00  0.00    -0.177 N
ATOM      8  H5  UNL     1      41.697  -1.398  21.421  1.00  0.00     0.185 HD
ENDROOT
BRANCH   6   9
HETATM    9  N4  UNL     1      41.808  -1.747  23.889  1.00  0.00    -0.226 N
ATOM     10  H4  UNL     1      41.266  -2.505  24.306  1.00  0.00     0.177 HD
BRANCH   9  11
HETATM   11  C8  UNL     1      41.475  -0.407  24.270  1.00  0.00     0.142 C
BRANCH  11  12
HETATM   12  C9  UNL     1      42.714   0.400  24.639  1.00  0.00     0.058 C
BRANCH  12  13
HETATM   13  C10 UNL     1      42.896   1.520  23.681  1.00  0.00    -0.057 A
HETATM   14  C11 UNL     1      43.954   2.418  23.803  1.00  0.00     0.007 A
HETATM   15  C12 UNL     1      44.120   3.458  22.910  1.00  0.00     0.001 A
HETATM   16  C13 UNL     1      43.232   3.640  21.859  1.00  0.00     0.000 A
HETATM   17  C14 UNL     1      42.178   2.753  21.730  1.00  0.00     0.001 A
HETATM   18  C15 UNL     1      42.036   1.729  22.630  1.00  0.00     0.007 A
ENDBRANCH  12  13
ENDBRANCH  11  12
ENDBRANCH   9  11
ENDBRANCH   6   9
BRANCH   1  19
HETATM   19  N2  UNL     1      43.403  -1.945  19.604  1.00  0.00    -0.375 N
ATOM     20  H2  UNL     1      42.469  -1.755  19.239  1.00  0.00     0.161 HD
BRANCH  19  21
HETATM   21  C3  UNL     1      44.492  -1.963  18.680  1.00  0.00     0.130 C
BRANCH  21  22
HETATM   22  C2  UNL     1      44.515  -0.747  17.781  1.00  0.00     0.119 C
BRANCH  22  23
HETATM   23  C1  UNL     1      43.142  -0.223  17.643  1.00  0.00     0.232 C
HETATM   24  N1  UNL     1      42.638   0.837  18.437  1.00  0.00    -0.062 NA
HETATM   25  O1  UNL     1      42.384  -0.730  16.790  1.00  0.00    -0.277 OA
ENDBRANCH  22  23
ENDBRANCH  21  22
ENDBRANCH  19  21
ENDBRANCH   1  19
TORSDOF 8
ENDMDL