MODEL 3
REMARK VINA RESULT: -6.310949917      2.600      5.351
REMARK  7 active torsions:
REMARK  status: ('A' for Active; 'I' for Inactive)
REMARK    1  A    between atoms: N1_2  and  C2_4
REMARK    2  A    between atoms: N3_10  and  C6_12
REMARK    3  A    between atoms: C6_12  and  C7_13
REMARK    4  A    between atoms: C7_13  and  O1_14
REMARK    5  A    between atoms: O1_14  and  C8_15
REMARK    6  A    between atoms: C9_16  and  C10_17
REMARK    7  A    between atoms: C10_17  and  C11_18
ROOT
HETATM    1  C2  UNL     1      43.049   1.724  22.189  1.00  0.00     0.679 A
HETATM    2  N2  UNL     1      41.973   1.451  22.961  1.00  0.00    -0.202 N
ATOM      3  H2  UNL     1      41.118   1.990  22.829  1.00  0.00     0.183 HD
HETATM    4  C3  UNL     1      42.000   0.487  23.898  1.00  0.00     0.110 A
HETATM    5  C4  UNL     1      43.191  -0.231  24.048  1.00  0.00     0.066 A
HETATM    6  C5  UNL     1      44.276   0.056  23.256  1.00  0.00     0.118 A
HETATM    7  N3  UNL     1      45.378  -0.589  23.376  1.00  0.00    -0.374 N
ATOM      8  H3  UNL     1      46.155  -0.338  22.765  1.00  0.00     0.161 HD
HETATM    9  N6  UNL     1      44.203   1.046  22.316  1.00  0.00    -0.177 N
ATOM     10  H6  UNL     1      45.005   1.265  21.725  1.00  0.00     0.185 HD
ENDROOT
BRANCH   7  11
HETATM   11  C6  UNL     1      45.571  -1.636  24.318  1.00  0.00     0.148 C
BRANCH  11  12
HETATM   12  C7  UNL     1      46.990  -2.185  24.136  1.00  0.00     0.194 C
BRANCH  12  13
HETATM   13  O1  UNL     1      46.948  -3.462  23.526  1.00  0.00    -0.362 OA
BRANCH  13  14
HETATM   14  C8  UNL     1      47.432  -3.561  22.229  1.00  0.00     0.131 C
HETATM   15  C9  UNL     1      46.580  -3.946  21.281  1.00  0.00     0.002 C
BRANCH  15  16
HETATM   16  C10 UNL     1      45.161  -4.262  21.580  1.00  0.00     0.070 C
BRANCH  16  17
HETATM   17  C11 UNL     1      44.341  -3.143  21.046  1.00  0.00    -0.021 A
HETATM   18  C12 UNL     1      43.060  -2.838  21.435  1.00  0.00     0.116 A
HETATM   19  N4  UNL     1      42.668  -1.767  20.724  1.00  0.00    -0.310 N
HETATM   20  N5  UNL     1      43.620  -1.364  19.901  1.00  0.00    -0.308 N
ATOM     21  H4  UNL     1      41.754  -1.323  20.809  1.00  0.00     0.186 HD
HETATM   22  C13 UNL     1      43.554  -0.227  18.970  1.00  0.00     0.177 C
HETATM   23  C14 UNL     1      44.654  -2.202  20.089  1.00  0.00     0.118 A
ENDBRANCH  16  17
ENDBRANCH  15  16
ENDBRANCH  13  14
ENDBRANCH  12  13
ENDBRANCH  11  12
ENDBRANCH   7  11
BRANCH   1  24
HETATM   24  N1  UNL     1      42.955   2.649  21.322  1.00  0.00    -0.230 N
HETATM   25  C1  UNL     1      43.190   4.030  21.664  1.00  0.00     0.165 C
ATOM     26  H1  UNL     1      42.708   2.409  20.362  1.00  0.00     0.177 HD
ENDBRANCH   1  24
TORSDOF 7
ENDMDL