MODEL 2
REMARK VINA RESULT: -6.360401154      2.686      5.770
REMARK  6 active torsions:
REMARK  status: ('A' for Active; 'I' for Inactive)
REMARK    1  A    between atoms: N3_11  and  C6_12
REMARK    2  A    between atoms: C6_12  and  C7_13
REMARK    3  A    between atoms: C7_13  and  C8_17
REMARK    4  A    between atoms: C8_17  and  O1_18
REMARK    5  A    between atoms: O1_18  and  C9_19
REMARK    6  A    between atoms: C9_19  and  C10_20
ROOT
HETATM    1  C1  UNL     1      42.610   2.645  21.703  1.00  0.00     0.018 C
HETATM    2  C2  UNL     1      42.832   1.710  20.970  1.00  0.00    -0.075 C
HETATM    3  C3  UNL     1      43.109   0.619  20.089  1.00  0.00     0.049 A
HETATM    4  C4  UNL     1      42.757   0.705  18.767  1.00  0.00     0.128 A
HETATM    5  N1  UNL     1      43.028  -0.336  17.955  1.00  0.00    -0.201 N
ATOM      6  H1  UNL     1      42.769  -0.283  16.969  1.00  0.00     0.183 HD
HETATM    7  C5  UNL     1      43.642  -1.461  18.429  1.00  0.00     0.678 A
HETATM    8  N2  UNL     1      43.884  -2.434  17.617  1.00  0.00    -0.234 N
ATOM      9  H21 UNL     1      44.342  -3.274  17.971  1.00  0.00     0.174 HD
ATOM     10  H22 UNL     1      43.615  -2.355  16.636  1.00  0.00     0.174 HD
HETATM   11  N3  UNL     1      43.995  -1.565  19.717  1.00  0.00    -0.187 N
HETATM   12  C16 UNL     1      43.731  -0.536  20.537  1.00  0.00     0.131 A
ENDROOT
BRANCH  11  13
HETATM   13  C6  UNL     1      44.634  -2.730  20.219  1.00  0.00     0.201 C
BRANCH  13  14
HETATM   14  C7  UNL     1      44.081  -3.203  21.512  1.00  0.00     0.023 C
HETATM   15  N4  UNL     1      42.838  -3.362  21.739  1.00  0.00    -0.403 N
ATOM     16  H42 UNL     1      42.177  -3.151  20.990  1.00  0.00     0.155 HD
ATOM     17  H41 UNL     1      42.458  -3.687  22.628  1.00  0.00     0.155 HD
BRANCH  14  18
HETATM   18  C8  UNL     1      45.043  -3.510  22.602  1.00  0.00     0.221 C
BRANCH  18  19
HETATM   19  O1  UNL     1      44.621  -2.787  23.715  1.00  0.00    -0.381 OA
BRANCH  19  20
HETATM   20  C9  UNL     1      45.146  -1.518  23.794  1.00  0.00     0.206 C
BRANCH  20  21
HETATM   21  C10 UNL     1      44.199  -0.472  24.189  1.00  0.00    -0.035 A
HETATM   22  C11 UNL     1      42.854  -0.607  24.071  1.00  0.00     0.009 A
HETATM   23  C12 UNL     1      42.000   0.405  24.455  1.00  0.00     0.001 A
HETATM   24  C13 UNL     1      42.474   1.602  24.978  1.00  0.00     0.000 A
HETATM   25  C14 UNL     1      43.835   1.752  25.102  1.00  0.00     0.001 A
HETATM   26  C15 UNL     1      44.676   0.732  24.714  1.00  0.00     0.009 A
ENDBRANCH  20  21
ENDBRANCH  19  20
ENDBRANCH  18  19
ENDBRANCH  14  18
ENDBRANCH  13  14
ENDBRANCH  11  13
TORSDOF 6
ENDMDL