MODEL 3
REMARK VINA RESULT: -6.213420579      3.065      4.104
REMARK  6 active torsions:
REMARK  status: ('A' for Active; 'I' for Inactive)
REMARK       I    between atoms: N2_3  and  C2_5
REMARK       I    between atoms: C2_5  and  N5_11
REMARK    1  A    between atoms: N3_6  and  C3_8
REMARK    2  A    between atoms: N5_11  and  C4_13
REMARK    3  A    between atoms: C4_13  and  C5_14
REMARK    4  A    between atoms: C5_14  and  C6_15
REMARK    5  A    between atoms: C6_15  and  C7_16
REMARK    6  A    between atoms: C7_16  and  N6_17
ROOT
HETATM    1  N1  UNL     1      44.967  -5.084  20.640  1.00  0.00    -0.171 NA
HETATM    2  C1  UNL     1      45.959  -4.629  21.020  1.00  0.00     0.196 C
HETATM    3  N2  UNL     1      47.168  -4.090  21.463  1.00  0.00    -0.126 N
ATOM      4  H2  UNL     1      48.051  -4.224  20.970  1.00  0.00     0.197 HD
HETATM    5  C2  UNL     1      47.050  -3.317  22.693  1.00  0.00     0.689 C
HETATM    6  N3  UNL     1      47.761  -3.540  23.677  1.00  0.00    -0.168 N
ATOM      7  H3  UNL     1      48.425  -4.304  23.547  1.00  0.00     0.186 HD
HETATM    8  N5  UNL     1      46.056  -2.321  22.652  1.00  0.00    -0.225 N
ATOM      9  H5  UNL     1      45.227  -2.393  23.242  1.00  0.00     0.177 HD
ENDROOT
BRANCH   6  10
HETATM   10  C3  UNL     1      47.824  -2.948  24.920  1.00  0.00     0.199 C
HETATM   11  N4  UNL     1      48.075  -1.536  25.037  1.00  0.00    -0.069 NA
HETATM   12  S1  UNL     1      47.627  -3.821  26.300  1.00  0.00    -0.044 SA
ENDBRANCH   6  10
BRANCH   8  13
HETATM   13  C4  UNL     1      46.227  -1.201  21.765  1.00  0.00     0.138 C
BRANCH  13  14
HETATM   14  C5  UNL     1      45.158  -1.220  20.691  1.00  0.00     0.022 C
BRANCH  14  15
HETATM   15  C6  UNL     1      43.820  -1.288  21.426  1.00  0.00     0.021 C
BRANCH  15  16
HETATM   16  C7  UNL     1      43.130   0.024  21.208  1.00  0.00     0.117 C
BRANCH  16  17
HETATM   17  N6  UNL     1      42.856   0.725  22.411  1.00  0.00    -0.412 N
HETATM   18  C8  UNL     1      43.526   1.999  22.414  1.00  0.00     0.117 C
HETATM   19  C9  UNL     1      44.476   2.017  23.600  1.00  0.00     0.019 C
HETATM   20  C10 UNL     1      43.565   2.050  24.824  1.00  0.00     0.003 C
HETATM   21  C11 UNL     1      42.514   0.985  24.755  1.00  0.00     0.019 C
HETATM   22  C12 UNL     1      42.871   0.009  23.628  1.00  0.00     0.117 C
ENDBRANCH  16  17
ENDBRANCH  15  16
ENDBRANCH  14  15
ENDBRANCH  13  14
ENDBRANCH   8  13
TORSDOF 6
ENDMDL