MODEL 4
REMARK VINA RESULT: -7.257729125      3.103      5.214
REMARK  7 active torsions:
REMARK  status: ('A' for Active; 'I' for Inactive)
REMARK    1  A    between atoms: C1_2  and  C2_4
REMARK    2  A    between atoms: C2_4  and  N2_5
REMARK    3  A    between atoms: N2_5  and  C3_7
REMARK    4  A    between atoms: N4_13  and  C7_15
REMARK    5  A    between atoms: C7_15  and  C8_16
REMARK    6  A    between atoms: C8_16  and  C9_17
REMARK    7  A    between atoms: C9_17  and  C10_18
ROOT
HETATM    1  C3  UNL     1      44.979  -1.329  20.114  1.00  0.00     0.679 A
HETATM    2  N3  UNL     1      46.063  -0.997  20.824  1.00  0.00    -0.202 N
ATOM      3  H3  UNL     1      46.957  -0.833  20.361  1.00  0.00     0.183 HD
HETATM    4  C4  UNL     1      45.952  -0.882  22.155  1.00  0.00     0.110 A
HETATM    5  C5  UNL     1      44.712  -1.111  22.773  1.00  0.00     0.066 A
HETATM    6  C6  UNL     1      43.606  -1.451  22.041  1.00  0.00     0.118 A
HETATM    7  N4  UNL     1      42.466  -1.667  22.557  1.00  0.00    -0.376 N
ATOM      8  H4  UNL     1      41.684  -1.917  21.953  1.00  0.00     0.161 HD
HETATM    9  N5  UNL     1      43.782  -1.552  20.689  1.00  0.00    -0.177 N
ATOM     10  H5  UNL     1      42.986  -1.802  20.102  1.00  0.00     0.185 HD
ENDROOT
BRANCH   7  11
HETATM   11  C7  UNL     1      42.256  -1.567  23.975  1.00  0.00     0.121 C
BRANCH  11  12
HETATM   12  C8  UNL     1      41.374  -0.418  24.339  1.00  0.00     0.024 C
BRANCH  12  13
HETATM   13  C9  UNL     1      42.147   0.735  24.838  1.00  0.00     0.040 C
BRANCH  13  14
HETATM   14  C10 UNL     1      42.601   1.724  23.862  1.00  0.00    -0.058 A
HETATM   15  C11 UNL     1      43.775   2.402  24.080  1.00  0.00     0.007 A
HETATM   16  C12 UNL     1      44.272   3.354  23.178  1.00  0.00     0.001 A
HETATM   17  C13 UNL     1      43.514   3.576  22.050  1.00  0.00     0.000 A
HETATM   18  C14 UNL     1      42.336   2.905  21.818  1.00  0.00     0.001 A
HETATM   19  C15 UNL     1      41.860   1.979  22.704  1.00  0.00     0.007 A
ENDBRANCH  13  14
ENDBRANCH  12  13
ENDBRANCH  11  12
ENDBRANCH   7  11
BRANCH   1  20
HETATM   20  N2  UNL     1      45.058  -1.444  18.848  1.00  0.00    -0.218 N
ATOM     21  H2  UNL     1      45.610  -2.217  18.477  1.00  0.00     0.178 HD
BRANCH  20  22
HETATM   22  C2  UNL     1      44.426  -0.562  17.904  1.00  0.00     0.237 C
BRANCH  22  23
HETATM   23  C1  UNL     1      43.137  -1.107  17.419  1.00  0.00     0.249 C
HETATM   24  N1  UNL     1      42.795  -2.453  17.612  1.00  0.00    -0.061 NA
HETATM   25  O1  UNL     1      42.346  -0.337  16.824  1.00  0.00    -0.275 OA
ENDBRANCH  22  23
ENDBRANCH  20  22
ENDBRANCH   1  20
TORSDOF 7
ENDMDL