MODEL 5
REMARK VINA RESULT: -6.168879630      2.030      4.277
REMARK  6 active torsions:
REMARK  status: ('A' for Active; 'I' for Inactive)
REMARK    1  A    between atoms: N4_13  and  C5_14
REMARK    2  A    between atoms: C5_14  and  C6_15
REMARK    3  A    between atoms: C6_15  and  C7_16
REMARK    4  A    between atoms: C7_16  and  C8_17
REMARK    5  A    between atoms: C8_17  and  C9_18
REMARK    6  A    between atoms: C9_18  and  N5_19
ROOT
HETATM    1  C1  UNL     1      41.883  -1.357  24.272  1.00  0.00     0.065 C
HETATM    2  C2  UNL     1      42.350  -0.285  23.717  1.00  0.00     0.121 A
HETATM    3  N1  UNL     1      41.461   0.548  22.984  1.00  0.00    -0.177 N
ATOM      4  H1  UNL     1      40.477   0.290  22.905  1.00  0.00     0.185 HD
HETATM    5  C3  UNL     1      41.928   1.729  22.365  1.00  0.00     0.681 A
HETATM    6  N2  UNL     1      41.143   2.513  21.687  1.00  0.00    -0.234 N
ATOM      7  H21 UNL     1      41.481   3.366  21.241  1.00  0.00     0.174 HD
ATOM      8  H22 UNL     1      40.155   2.279  21.592  1.00  0.00     0.174 HD
HETATM    9  N3  UNL     1      43.305   2.055  22.498  1.00  0.00    -0.141 N
ATOM     10  H3  UNL     1      43.667   2.902  22.060  1.00  0.00     0.189 HD
HETATM   11  C4  UNL     1      44.173   1.225  23.224  1.00  0.00     0.346 A
HETATM   12  O1  UNL     1      45.391   1.574  23.305  1.00  0.00    -0.246 OA
HETATM   13  N4  UNL     1      43.719   0.011  23.868  1.00  0.00    -0.264 N
ENDROOT
BRANCH  13  14
HETATM   14  C5  UNL     1      44.682  -0.727  24.560  1.00  0.00     0.076 C
BRANCH  14  15
HETATM   15  C6  UNL     1      45.624  -1.578  23.791  1.00  0.00     0.045 C
BRANCH  15  16
HETATM   16  C7  UNL     1      45.033  -2.983  23.848  1.00  0.00     0.007 C
BRANCH  16  17
HETATM   17  C8  UNL     1      45.154  -3.683  22.502  1.00  0.00     0.021 C
BRANCH  17  18
HETATM   18  C9  UNL     1      43.912  -3.305  21.733  1.00  0.00     0.128 C
BRANCH  18  19
HETATM   19  N5  UNL     1      44.184  -2.470  20.595  1.00  0.00    -0.366 N
HETATM   20  C10 UNL     1      43.640  -1.249  20.450  1.00  0.00     0.091 A
HETATM   21  C11 UNL     1      43.897  -0.442  19.360  1.00  0.00     0.024 A
HETATM   22  C12 UNL     1      44.739  -0.857  18.350  1.00  0.00    -0.059 A
HETATM   23  C13 UNL     1      45.034  -0.006  17.162  1.00  0.00     0.048 C
HETATM   24  C14 UNL     1      45.294  -2.112  18.507  1.00  0.00     0.024 A
HETATM   25  C15 UNL     1      45.007  -2.885  19.615  1.00  0.00     0.091 A
ENDBRANCH  18  19
ENDBRANCH  17  18
ENDBRANCH  16  17
ENDBRANCH  15  16
ENDBRANCH  14  15
ENDBRANCH  13  14
TORSDOF 6
ENDMDL