MODEL 5
REMARK VINA RESULT: -6.101506100      1.520      1.939
REMARK  10 active torsions:
REMARK  status: ('A' for Active; 'I' for Inactive)
REMARK    1  A    between atoms: C2_2  and  C3_3
REMARK    2  A    between atoms: C3_3  and  O1_4
REMARK    3  A    between atoms: O1_4  and  C4_5
REMARK    4  A    between atoms: C7_8  and  C8_9
REMARK    5  A    between atoms: C8_9  and  C9_10
REMARK    6  A    between atoms: C12_15  and  C13_16
REMARK    7  A    between atoms: C13_16  and  C14_17
REMARK    8  A    between atoms: C14_17  and  N2_18
REMARK    9  A    between atoms: C14_17  and  C15_22
REMARK   10  A    between atoms: C15_22  and  O2_23
ROOT
HETATM    1  C9  UNL     1      43.176  -0.270  22.435  1.00  0.00    -0.008 A
HETATM    2  C10 UNL     1      43.126  -1.352  23.319  1.00  0.00     0.030 A
HETATM    3  C11 UNL     1      41.954  -1.175  24.023  1.00  0.00     0.089 A
HETATM    4  N1  UNL     1      41.339  -0.060  23.591  1.00  0.00    -0.365 N
ATOM      5  H1  UNL     1      40.454   0.296  23.950  1.00  0.00     0.165 HD
HETATM    6  C12 UNL     1      42.064   0.520  22.615  1.00  0.00     0.040 A
ENDROOT
BRANCH   1   7
HETATM    7  C8  UNL     1      44.157  -0.068  21.571  1.00  0.00     0.025 C
BRANCH   7   8
HETATM    8  C7  UNL     1      44.084  -0.561  20.209  1.00  0.00    -0.035 A
HETATM    9  C6  UNL     1      43.585   0.213  19.167  1.00  0.00     0.014 A
HETATM   10  C5  UNL     1      43.514  -0.253  17.869  1.00  0.00     0.037 A
HETATM   11  C4  UNL     1      43.952  -1.522  17.601  1.00  0.00     0.069 A
HETATM   12  C17 UNL     1      44.454  -2.326  18.601  1.00  0.00     0.037 A
HETATM   13  C16 UNL     1      44.510  -1.827  19.892  1.00  0.00     0.014 A
BRANCH  11  14
HETATM   14  O1  UNL     1      43.906  -2.046  16.316  1.00  0.00    -0.348 OA
BRANCH  14  15
HETATM   15  C3  UNL     1      45.014  -2.123  15.461  1.00  0.00     0.202 C
BRANCH  15  16
HETATM   16  C2  UNL     1      45.071  -3.469  14.856  1.00  0.00    -0.011 C
HETATM   17  C1  UNL     1      45.047  -4.580  15.612  1.00  0.00     0.009 C
ENDBRANCH  15  16
ENDBRANCH  14  15
ENDBRANCH  11  14
ENDBRANCH   7   8
ENDBRANCH   1   7
BRANCH   6  18
HETATM   18  C13 UNL     1      41.773   1.629  21.953  1.00  0.00     0.038 C
BRANCH  18  19
HETATM   19  C14 UNL     1      42.137   2.975  22.430  1.00  0.00     0.231 C
BRANCH  19  20
HETATM   20  N2  UNL     1      42.487   2.932  23.857  1.00  0.00    -0.070 N
ATOM     21  H23 UNL     1      43.153   3.662  24.107  1.00  0.00     0.275 HD
ATOM     22  H22 UNL     1      41.709   3.228  24.448  1.00  0.00     0.275 HD
ATOM     23  H21 UNL     1      42.826   2.004  24.109  1.00  0.00     0.275 HD
ENDBRANCH  19  20
BRANCH  19  24
HETATM   24  C15 UNL     1      43.295   3.564  21.669  1.00  0.00     0.201 C
BRANCH  24  25
HETATM   25  O2  UNL     1      43.206   4.955  21.779  1.00  0.00    -0.399 OA
ATOM     26  H2  UNL     1      43.011   5.158  22.687  1.00  0.00     0.209 HD
ENDBRANCH  24  25
ENDBRANCH  19  24
ENDBRANCH  18  19
ENDBRANCH   6  18
TORSDOF 10
ENDMDL