MODEL 2
REMARK VINA RESULT: -5.691804486      1.792      2.358
REMARK  8 active torsions:
REMARK  status: ('A' for Active; 'I' for Inactive)
REMARK    1  A    between atoms: N1_1  and  C1_5
REMARK    2  A    between atoms: C1_5  and  C2_6
REMARK    3  A    between atoms: C2_6  and  C3_7
REMARK    4  A    between atoms: C3_7  and  N2_8
REMARK    5  A    between atoms: N2_8  and  C4_9
REMARK    6  A    between atoms: N2_8  and  C12_21
REMARK    7  A    between atoms: C4_9  and  C5_10
REMARK    8  A    between atoms: C5_10  and  N3_11
REMARK       I    between atoms: C6_13  and  N5_15
ROOT
HETATM    1  C4  UNL     1      47.235  -2.318  19.940  1.00  0.00     0.150 C
ENDROOT
BRANCH   1   2
HETATM    2  N2  UNL     1      46.878  -3.374  20.971  1.00  0.00    -0.335 N
BRANCH   2   3
HETATM    3  C3  UNL     1      47.164  -2.979  22.274  1.00  0.00     0.090 C
BRANCH   3   4
HETATM    4  C2  UNL     1      46.231  -2.465  23.270  1.00  0.00     0.017 C
BRANCH   4   5
HETATM    5  C1  UNL     1      45.224  -3.304  23.927  1.00  0.00     0.258 C
BRANCH   5   6
HETATM    6  N1  UNL     1      43.958  -3.098  23.144  1.00  0.00    -0.076 N
ATOM      7  H13 UNL     1      43.770  -2.122  22.918  1.00  0.00     0.274 HD
ATOM      8  H12 UNL     1      44.010  -3.436  22.183  1.00  0.00     0.274 HD
ATOM      9  H11 UNL     1      43.223  -3.541  23.694  1.00  0.00     0.274 HD
ENDBRANCH   5   6
ENDBRANCH   4   5
ENDBRANCH   3   4
ENDBRANCH   2   3
BRANCH   2  10
HETATM   10  C12 UNL     1      46.210  -4.455  20.415  1.00  0.00     0.187 C
HETATM   11  N6  UNL     1      44.890  -4.827  20.652  1.00  0.00    -0.070 NA
HETATM   12  S1  UNL     1      47.015  -5.449  19.351  1.00  0.00    -0.044 SA
ENDBRANCH   2  10
ENDBRANCH   1   2
BRANCH   1  13
HETATM   13  C5  UNL     1      45.975  -1.850  19.240  1.00  0.00     0.142 C
BRANCH  13  14
HETATM   14  N3  UNL     1      45.345  -0.882  20.088  1.00  0.00    -0.363 N
HETATM   15  C6  UNL     1      44.147  -0.841  20.507  1.00  0.00     0.186 C
HETATM   16  N4  UNL     1      43.123  -1.756  20.238  1.00  0.00    -0.064 NA
HETATM   17  N5  UNL     1      43.823   0.283  21.334  1.00  0.00    -0.356 N
HETATM   18  C7  UNL     1      42.635   1.050  21.148  1.00  0.00     0.125 C
HETATM   19  C11 UNL     1      44.765   0.630  22.370  1.00  0.00     0.125 C
HETATM   20  C8  UNL     1      42.901   2.536  21.382  1.00  0.00     0.020 C
HETATM   21  C9  UNL     1      43.391   2.722  22.770  1.00  0.00     0.003 C
HETATM   22  C10 UNL     1      44.312   1.687  23.310  1.00  0.00     0.020 C
ATOM     23  H3  UNL     1      45.943  -0.117  20.398  1.00  0.00     0.162 HD
ENDBRANCH  13  14
ENDBRANCH   1  13
TORSDOF 8
ENDMDL