MODEL 1
REMARK VINA RESULT: -6.809491595      0.000      0.000
REMARK  9 active torsions:
REMARK  status: ('A' for Active; 'I' for Inactive)
REMARK    1  A    between atoms: C3_3  and  N1_4
REMARK    2  A    between atoms: N1_4  and  C4_6
REMARK    3  A    between atoms: C5_9  and  N3_10
REMARK    4  A    between atoms: C7_15  and  N5_16
REMARK    5  A    between atoms: N5_16  and  C8_18
REMARK    6  A    between atoms: C8_18  and  C9_19
REMARK    7  A    between atoms: C9_19  and  C10_20
REMARK    8  A    between atoms: C10_20  and  C11_21
REMARK    9  A    between atoms: C11_21  and  C12_22
ROOT
HETATM    1  C1  UNL     1      45.137  -3.125  23.946  1.00  0.00     0.014 C
HETATM    2  C2  UNL     1      44.543  -3.381  22.927  1.00  0.00    -0.097 C
HETATM    3  C3  UNL     1      43.810  -3.673  21.680  1.00  0.00     0.231 C
ENDROOT
BRANCH   3   4
HETATM    4  N1  UNL     1      42.889  -2.589  21.423  1.00  0.00    -0.215 N
ATOM      5  H1  UNL     1      41.980  -2.574  21.884  1.00  0.00     0.178 HD
BRANCH   4   6
HETATM    6  C4  UNL     1      43.213  -1.647  20.619  1.00  0.00     0.708 A
HETATM    7  N2  UNL     1      43.962  -1.918  19.513  1.00  0.00    -0.022 N
HETATM    8  C5  UNL     1      44.307  -0.934  18.664  1.00  0.00     0.706 A
ATOM      9  H2  UNL     1      44.265  -2.874  19.329  1.00  0.00     0.203 HD
HETATM   10  N4  UNL     1      43.877   0.305  18.963  1.00  0.00    -0.022 N
HETATM   11  C7  UNL     1      43.139   0.585  20.045  1.00  0.00     0.707 A
ATOM     12  H4  UNL     1      44.125   1.069  18.334  1.00  0.00     0.203 HD
HETATM   13  N6  UNL     1      42.793  -0.399  20.898  1.00  0.00    -0.021 N
ATOM     14  H6  UNL     1      42.233  -0.205  21.728  1.00  0.00     0.203 HD
BRANCH   8  15
HETATM   15  N3  UNL     1      45.018  -1.135  17.597  1.00  0.00    -0.229 N
HETATM   16  C6  UNL     1      45.536  -0.086  16.779  1.00  0.00     0.165 C
ATOM     17  H3  UNL     1      45.219  -2.098  17.327  1.00  0.00     0.177 HD
ENDBRANCH   8  15
BRANCH  11  18
HETATM   18  N5  UNL     1      42.759   1.802  20.271  1.00  0.00    -0.225 N
ATOM     19  H5  UNL     1      42.759   2.466  19.497  1.00  0.00     0.177 HD
BRANCH  18  20
HETATM   20  C8  UNL     1      42.340   2.253  21.561  1.00  0.00     0.138 C
BRANCH  20  21
HETATM   21  C9  UNL     1      43.336   3.316  22.027  1.00  0.00     0.020 C
BRANCH  21  22
HETATM   22  C10 UNL     1      44.116   2.707  23.166  1.00  0.00     0.003 C
BRANCH  22  23
HETATM   23  C11 UNL     1      43.247   2.329  24.327  1.00  0.00     0.017 C
BRANCH  23  24
HETATM   24  C12 UNL     1      43.601   0.982  24.908  1.00  0.00     0.060 C
HETATM   25  C13 UNL     1      44.867   0.474  24.285  1.00  0.00     0.023 C
HETATM   26  C14 UNL     1      42.517   0.057  24.535  1.00  0.00    -0.113 C
HETATM   27  C15 UNL     1      41.617  -0.691  24.216  1.00  0.00     0.012 C
ENDBRANCH  23  24
ENDBRANCH  22  23
ENDBRANCH  21  22
ENDBRANCH  20  21
ENDBRANCH  18  20
ENDBRANCH  11  18
ENDBRANCH   4   6
ENDBRANCH   3   4
TORSDOF 9
ENDMDL