MODEL 3
REMARK VINA RESULT: -6.780441540      1.581      3.076
REMARK  9 active torsions:
REMARK  status: ('A' for Active; 'I' for Inactive)
REMARK    1  A    between atoms: N1_1  and  C1_5
REMARK    2  A    between atoms: C1_5  and  C2_6
REMARK    3  A    between atoms: C4_8  and  N2_9
REMARK    4  A    between atoms: N2_9  and  C5_11
REMARK    5  A    between atoms: C6_15  and  N4_16
REMARK    6  A    between atoms: N4_16  and  C7_18
REMARK    7  A    between atoms: C7_18  and  C8_19
REMARK    8  A    between atoms: C8_19  and  C9_20
REMARK    9  A    between atoms: C9_20  and  C10_21
ROOT
HETATM    1  C2  UNL     1      44.365  -0.560  18.499  1.00  0.00     0.055 A
HETATM    2  C3  UNL     1      44.261  -1.641  19.335  1.00  0.00     0.076 A
HETATM    3  C4  UNL     1      43.417  -1.633  20.420  1.00  0.00     0.124 A
HETATM    4  N3  UNL     1      42.683  -0.538  20.656  1.00  0.00    -0.177 N
ATOM      5  H3  UNL     1      42.052  -0.521  21.458  1.00  0.00     0.186 HD
HETATM    6  C6  UNL     1      42.764   0.555  19.843  1.00  0.00     0.679 A
HETATM    7  N5  UNL     1      43.588   0.525  18.797  1.00  0.00    -0.194 N
ATOM      8  H5  UNL     1      43.642   1.345  18.194  1.00  0.00     0.184 HD
ENDROOT
BRANCH   6   9
HETATM    9  N4  UNL     1      42.028   1.545  20.149  1.00  0.00    -0.226 N
ATOM     10  H4  UNL     1      41.744   2.195  19.416  1.00  0.00     0.177 HD
BRANCH   9  11
HETATM   11  C7  UNL     1      41.585   1.775  21.491  1.00  0.00     0.138 C
BRANCH  11  12
HETATM   12  C8  UNL     1      42.033   3.138  21.970  1.00  0.00     0.025 C
BRANCH  12  13
HETATM   13  C9  UNL     1      43.510   3.099  22.240  1.00  0.00     0.040 C
BRANCH  13  14
HETATM   14  C10 UNL     1      43.932   2.062  23.204  1.00  0.00    -0.058 A
HETATM   15  C11 UNL     1      44.729   0.987  22.790  1.00  0.00     0.007 A
HETATM   16  C12 UNL     1      45.129  -0.010  23.652  1.00  0.00     0.001 A
HETATM   17  C13 UNL     1      44.759   0.004  24.979  1.00  0.00     0.000 A
HETATM   18  C14 UNL     1      43.974   1.058  25.400  1.00  0.00     0.001 A
HETATM   19  C15 UNL     1      43.569   2.059  24.542  1.00  0.00     0.007 A
ENDBRANCH  13  14
ENDBRANCH  12  13
ENDBRANCH  11  12
ENDBRANCH   9  11
ENDBRANCH   6   9
BRANCH   3  20
HETATM   20  N2  UNL     1      43.359  -2.672  21.169  1.00  0.00    -0.320 N
ATOM     21  H2  UNL     1      42.536  -2.842  21.748  1.00  0.00     0.169 HD
BRANCH  20  22
HETATM   22  C5  UNL     1      44.437  -3.576  21.189  1.00  0.00     0.354 C
HETATM   23  O1  UNL     1      44.204  -4.803  21.229  1.00  0.00    -0.283 OA
ENDBRANCH  20  22
ENDBRANCH   3  20
BRANCH   1  24
HETATM   24  C1  UNL     1      45.257  -0.514  17.318  1.00  0.00     0.287 C
BRANCH  24  25
HETATM   25  N1  UNL     1      45.440   0.857  16.887  1.00  0.00    -0.074 N
ATOM     26  H13 UNL     1      45.221   1.524  17.628  1.00  0.00     0.274 HD
ATOM     27  H12 UNL     1      46.425   1.090  16.764  1.00  0.00     0.274 HD
ATOM     28  H11 UNL     1      44.897   1.034  16.041  1.00  0.00     0.274 HD
ENDBRANCH  24  25
ENDBRANCH   1  24
TORSDOF 9
ENDMDL