MODEL 2
REMARK VINA RESULT: -6.813815853      2.420      3.293
REMARK  6 active torsions:
REMARK  status: ('A' for Active; 'I' for Inactive)
REMARK    1  A    between atoms: C4_4  and  C5_5
REMARK    2  A    between atoms: C5_5  and  N1_6
REMARK    3  A    between atoms: N1_6  and  C6_8
REMARK    4  A    between atoms: C6_8  and  C7_9
REMARK    5  A    between atoms: C7_9  and  C8_10
REMARK    6  A    between atoms: N2_18  and  N3_19
REMARK       I    between atoms: N3_19  and  C16_20
ROOT
HETATM    1  C1  UNL     1      44.961  -2.368  18.806  1.00  0.00     0.071 C
HETATM    2  C2  UNL     1      44.754  -2.885  20.188  1.00  0.00     0.043 A
HETATM    3  C3  UNL     1      44.182  -2.045  21.131  1.00  0.00     0.040 A
HETATM    4  C4  UNL     1      43.996  -2.454  22.404  1.00  0.00    -0.018 A
HETATM    5  C14 UNL     1      44.432  -3.775  22.666  1.00  0.00     0.033 A
HETATM    6  C15 UNL     1      44.976  -4.566  21.754  1.00  0.00     0.131 A
HETATM    7  N2  UNL     1      45.163  -4.147  20.440  1.00  0.00    -0.205 N
ENDROOT
BRANCH   4   8
HETATM    8  C5  UNL     1      43.384  -1.781  23.513  1.00  0.00     0.094 C
BRANCH   8   9
HETATM    9  N1  UNL     1      42.020  -1.808  23.837  1.00  0.00    -0.395 N
ATOM     10  H1  UNL     1      41.438  -2.642  23.768  1.00  0.00     0.159 HD
BRANCH   9  11
HETATM   11  C6  UNL     1      41.526  -0.513  24.283  1.00  0.00     0.147 C
BRANCH  11  12
HETATM   12  C7  UNL     1      42.538   0.481  24.613  1.00  0.00     0.004 C
BRANCH  12  13
HETATM   13  C8  UNL     1      42.908   1.568  23.757  1.00  0.00    -0.038 A
HETATM   14  C9  UNL     1      42.084   1.724  22.612  1.00  0.00     0.011 A
HETATM   15  C10 UNL     1      42.314   2.695  21.685  1.00  0.00     0.001 A
HETATM   16  C11 UNL     1      43.359   3.566  21.821  1.00  0.00     0.000 A
HETATM   17  C12 UNL     1      44.174   3.448  22.911  1.00  0.00     0.001 A
HETATM   18  C13 UNL     1      43.939   2.463  23.850  1.00  0.00     0.011 A
ENDBRANCH  12  13
ENDBRANCH  11  12
ENDBRANCH   9  11
ENDBRANCH   8   9
ENDBRANCH   4   8
BRANCH   7  19
HETATM   19  N3  UNL     1      45.665  -5.006  19.573  1.00  0.00    -0.288 NA
HETATM   20  C16 UNL     1      46.119  -5.768  18.811  1.00  0.00     0.299 C
HETATM   21  N4  UNL     1      45.601  -6.112  17.495  1.00  0.00    -0.051 NA
HETATM   22  N5  UNL     1      47.324  -6.529  19.134  1.00  0.00    -0.051 NA
ENDBRANCH   7  19
TORSDOF 6
ENDMDL