MODEL 4
REMARK VINA RESULT: -6.572620177      2.693      3.918
REMARK  6 active torsions:
REMARK  status: ('A' for Active; 'I' for Inactive)
REMARK    1  A    between atoms: N1_1  and  C1_4
REMARK    2  A    between atoms: N2_6  and  C3_7
REMARK    3  A    between atoms: C3_7  and  C4_8
REMARK    4  A    between atoms: C4_8  and  C5_9
REMARK    5  A    between atoms: C5_9  and  N3_10
REMARK    6  A    between atoms: C8_13  and  C9_14
ROOT
HETATM    1  N3  UNL     1      44.361  -1.811  23.441  1.00  0.00    -0.366 N
HETATM    2  C6  UNL     1      45.282  -0.902  23.106  1.00  0.00     0.091 A
HETATM    3  C7  UNL     1      44.983   0.397  22.804  1.00  0.00     0.029 A
HETATM    4  C8  UNL     1      43.678   0.818  22.838  1.00  0.00    -0.021 A
HETATM    5  C12 UNL     1      42.709  -0.099  23.180  1.00  0.00     0.029 A
HETATM    6  C13 UNL     1      43.068  -1.397  23.475  1.00  0.00     0.091 A
ENDROOT
BRANCH   1   7
HETATM    7  C5  UNL     1      44.734  -3.171  23.747  1.00  0.00     0.129 C
BRANCH   7   8
HETATM    8  C4  UNL     1      45.367  -3.820  22.542  1.00  0.00     0.040 C
BRANCH   8   9
HETATM    9  C3  UNL     1      44.439  -3.960  21.381  1.00  0.00     0.129 C
BRANCH   9  10
HETATM   10  N2  UNL     1      44.779  -2.919  20.414  1.00  0.00    -0.361 N
HETATM   11  C2  UNL     1      43.837  -2.077  19.946  1.00  0.00     0.138 A
HETATM   12  C1  UNL     1      44.183  -1.104  19.035  1.00  0.00     0.114 A
HETATM   13  N6  UNL     1      45.455  -0.974  18.595  1.00  0.00    -0.350 N
HETATM   14  C15 UNL     1      46.403  -1.811  19.056  1.00  0.00     0.107 A
ATOM     15  H6  UNL     1      45.694  -0.249  17.919  1.00  0.00     0.166 HD
HETATM   16  C14 UNL     1      46.037  -2.777  19.968  1.00  0.00     0.107 A
BRANCH  12  17
HETATM   17  N1  UNL     1      43.303  -0.298  18.581  1.00  0.00    -0.384 N
ATOM     18  H12 UNL     1      42.401  -0.252  19.055  1.00  0.00     0.157 HD
ATOM     19  H11 UNL     1      43.503   0.283  17.767  1.00  0.00     0.157 HD
ENDBRANCH  12  17
ENDBRANCH   9  10
ENDBRANCH   8   9
ENDBRANCH   7   8
ENDBRANCH   1   7
BRANCH   4  20
HETATM   20  C9  UNL     1      43.356   2.198  22.514  1.00  0.00     0.008 A
HETATM   21  C10 UNL     1      44.241   3.251  22.637  1.00  0.00     0.120 A
HETATM   22  N4  UNL     1      43.582   4.367  22.248  1.00  0.00    -0.311 N
HETATM   23  N5  UNL     1      42.361   4.095  21.895  1.00  0.00    -0.311 N
ATOM     24  H4  UNL     1      43.991   5.301  22.234  1.00  0.00     0.186 HD
HETATM   25  C11 UNL     1      42.191   2.772  22.047  1.00  0.00     0.120 A
ATOM     26  H5  UNL     1      41.663   4.762  21.565  1.00  0.00     0.186 HD
ENDBRANCH   4  20
TORSDOF 6
ENDMDL