MODEL 4
REMARK VINA RESULT: -6.642745223      2.241      3.109
REMARK  8 active torsions:
REMARK  status: ('A' for Active; 'I' for Inactive)
REMARK    1  A    between atoms: C3_7  and  C4_8
REMARK    2  A    between atoms: C4_8  and  C5_9
REMARK    3  A    between atoms: C5_9  and  C6_10
REMARK    4  A    between atoms: C6_10  and  C7_11
REMARK    5  A    between atoms: C7_11  and  C8_12
REMARK    6  A    between atoms: C8_12  and  O3_13
REMARK    7  A    between atoms: C9_15  and  C10_16
REMARK    8  A    between atoms: C10_16  and  C11_17
ROOT
HETATM    1  O1  UNL     1      43.194  -2.055  19.061  1.00  0.00    -0.247 OA
HETATM    2  C1  UNL     1      43.606  -2.385  20.229  1.00  0.00     0.327 A
HETATM    3  N1  UNL     1      44.605  -3.270  20.350  1.00  0.00    -0.275 N
ATOM      4  H1  UNL     1      45.037  -3.680  19.522  1.00  0.00     0.173 HD
HETATM    5  C2  UNL     1      45.026  -3.605  21.575  1.00  0.00     0.261 A
HETATM    6  O2  UNL     1      45.960  -4.433  21.646  1.00  0.00    -0.267 OA
HETATM    7  C3  UNL     1      44.431  -3.040  22.683  1.00  0.00     0.055 A
HETATM    8  C9  UNL     1      43.406  -2.132  22.563  1.00  0.00     0.052 A
HETATM    9  N2  UNL     1      43.016  -1.827  21.285  1.00  0.00    -0.308 N
ATOM     10  H2  UNL     1      42.258  -1.159  21.139  1.00  0.00     0.170 HD
ENDROOT
BRANCH   7  11
HETATM   11  C4  UNL     1      44.843  -3.370  23.907  1.00  0.00    -0.007 C
BRANCH  11  12
HETATM   12  C5  UNL     1      46.045  -2.828  24.570  1.00  0.00     0.028 C
BRANCH  12  13
HETATM   13  C6  UNL     1      46.598  -1.683  23.736  1.00  0.00     0.006 C
BRANCH  13  14
HETATM   14  C7  UNL     1      47.970  -2.014  23.225  1.00  0.00     0.026 C
BRANCH  14  15
HETATM   15  C8  UNL     1      48.140  -1.517  21.810  1.00  0.00     0.164 C
BRANCH  15  16
HETATM   16  O3  UNL     1      47.187  -0.558  21.498  1.00  0.00    -0.401 OA
ATOM     17  H3  UNL     1      46.928  -0.616  20.586  1.00  0.00     0.209 HD
ENDBRANCH  15  16
ENDBRANCH  14  15
ENDBRANCH  13  14
ENDBRANCH  12  13
ENDBRANCH  11  12
ENDBRANCH   7  11
BRANCH   8  18
HETATM   18  C10 UNL     1      42.777  -1.541  23.573  1.00  0.00     0.042 C
BRANCH  18  19
HETATM   19  C11 UNL     1      43.042  -0.109  23.857  1.00  0.00    -0.034 A
HETATM   20  C12 UNL     1      42.428   0.891  23.141  1.00  0.00     0.011 A
HETATM   21  C13 UNL     1      42.671   2.239  23.403  1.00  0.00     0.001 A
HETATM   22  C14 UNL     1      43.554   2.579  24.407  1.00  0.00     0.000 A
HETATM   23  C15 UNL     1      44.183   1.597  25.140  1.00  0.00     0.001 A
HETATM   24  C16 UNL     1      43.916   0.262  24.852  1.00  0.00     0.011 A
ENDBRANCH  18  19
ENDBRANCH   8  18
TORSDOF 8
ENDMDL