MODEL 5
REMARK VINA RESULT: -6.815841446      1.013      1.220
REMARK  6 active torsions:
REMARK  status: ('A' for Active; 'I' for Inactive)
REMARK    1  A    between atoms: N3_4  and  C2_6
REMARK    2  A    between atoms: C2_6  and  C3_7
REMARK    3  A    between atoms: C3_7  and  C4_8
REMARK    4  A    between atoms: C8_12  and  C9_13
REMARK    5  A    between atoms: C9_13  and  C10_14
REMARK    6  A    between atoms: C10_14  and  N4_15
ROOT
HETATM    1  C4  UNL     1      43.275   1.671  22.631  1.00  0.00    -0.056 A
HETATM    2  C5  UNL     1      43.519   2.385  23.802  1.00  0.00     0.007 A
HETATM    3  C6  UNL     1      43.931   1.779  24.960  1.00  0.00     0.001 A
HETATM    4  C7  UNL     1      44.117   0.422  24.988  1.00  0.00     0.007 A
HETATM    5  C8  UNL     1      43.889  -0.327  23.854  1.00  0.00    -0.056 A
HETATM    6  C16 UNL     1      43.474   0.299  22.696  1.00  0.00     0.014 A
ENDROOT
BRANCH   5   7
HETATM    7  C9  UNL     1      44.088  -1.796  23.878  1.00  0.00     0.068 C
BRANCH   7   8
HETATM    8  C10 UNL     1      45.566  -2.059  23.886  1.00  0.00     0.277 C
BRANCH   8   9
HETATM    9  N4  UNL     1      45.994  -2.893  22.778  1.00  0.00     0.090 N
HETATM   10  C11 UNL     1      46.234  -2.040  21.639  1.00  0.00     0.274 C
HETATM   11  C12 UNL     1      47.250  -2.542  20.690  1.00  0.00     0.049 C
HETATM   12  C13 UNL     1      47.514  -3.992  20.691  1.00  0.00     0.115 C
HETATM   13  N5  UNL     1      46.482  -4.838  21.149  1.00  0.00    -0.419 N
HETATM   14  C14 UNL     1      45.157  -4.321  21.074  1.00  0.00     0.144 C
ATOM     15  H5  UNL     1      46.674  -5.771  21.515  1.00  0.00     0.153 HD
HETATM   16  C15 UNL     1      44.826  -3.719  22.423  1.00  0.00     0.291 C
ENDBRANCH   8   9
ENDBRANCH   7   8
ENDBRANCH   5   7
BRANCH   1  17
HETATM   17  C3  UNL     1      42.828   2.342  21.383  1.00  0.00     0.058 C
BRANCH  17  18
HETATM   18  C2  UNL     1      42.232   1.288  20.476  1.00  0.00     0.126 C
BRANCH  18  19
HETATM   19  N3  UNL     1      42.777   1.352  19.141  1.00  0.00    -0.367 N
HETATM   20  C1  UNL     1      43.341   0.317  18.647  1.00  0.00     0.196 C
HETATM   21  N1  UNL     1      43.875   0.377  17.344  1.00  0.00    -0.067 NA
HETATM   22  N2  UNL     1      43.424  -0.873  19.407  1.00  0.00    -0.067 NA
ATOM     23  H3  UNL     1      42.714   2.213  18.599  1.00  0.00     0.161 HD
ENDBRANCH  18  19
ENDBRANCH  17  18
ENDBRANCH   1  17
TORSDOF 6
ENDMDL