MODEL 5
REMARK VINA RESULT: -6.690578442      1.171      1.266
REMARK  7 active torsions:
REMARK  status: ('A' for Active; 'I' for Inactive)
REMARK    1  A    between atoms: N3_4  and  C2_6
REMARK    2  A    between atoms: C2_6  and  C3_7
REMARK    3  A    between atoms: C3_7  and  C4_8
REMARK    4  A    between atoms: C4_8  and  N4_9
REMARK    5  A    between atoms: C7_12  and  C8_13
REMARK    6  A    between atoms: C8_13  and  N5_14
REMARK    7  A    between atoms: N5_14  and  C9_16
ROOT
HETATM    1  N4  UNL     1      46.338  -3.047  22.262  1.00  0.00    -0.370 N
HETATM    2  C5  UNL     1      45.261  -3.945  22.236  1.00  0.00     0.090 C
HETATM    3  C6  UNL     1      43.922  -3.262  22.411  1.00  0.00     0.021 C
HETATM    4  C7  UNL     1      43.858  -2.301  23.316  1.00  0.00    -0.059 C
HETATM    5  C14 UNL     1      45.105  -1.978  24.058  1.00  0.00     0.056 C
HETATM    6  C15 UNL     1      46.195  -1.859  23.010  1.00  0.00     0.131 C
ENDROOT
BRANCH   4   7
HETATM    7  C8  UNL     1      42.581  -1.563  23.564  1.00  0.00     0.155 C
BRANCH   7   8
HETATM    8  N5  UNL     1      42.858  -0.246  24.030  1.00  0.00    -0.372 N
ATOM      9  H5  UNL     1      43.137  -0.161  25.007  1.00  0.00     0.161 HD
BRANCH   8  10
HETATM   10  C9  UNL     1      42.796   0.848  23.359  1.00  0.00     0.100 A
HETATM   11  C10 UNL     1      43.900   1.701  23.391  1.00  0.00     0.048 A
HETATM   12  C11 UNL     1      43.856   2.872  22.675  1.00  0.00     0.005 A
HETATM   13  C12 UNL     1      42.710   3.148  21.950  1.00  0.00     0.017 A
HETATM   14  C13 UNL     1      41.642   2.276  21.945  1.00  0.00     0.089 A
HETATM   15  N6  UNL     1      41.701   1.130  22.655  1.00  0.00    -0.353 N
ATOM     16  H6  UNL     1      40.911   0.484  22.652  1.00  0.00     0.166 HD
ENDBRANCH   8  10
ENDBRANCH   7   8
ENDBRANCH   4   7
BRANCH   1  17
HETATM   17  C4  UNL     1      47.323  -3.066  21.262  1.00  0.00     0.065 C
BRANCH  17  18
HETATM   18  C3  UNL     1      47.311  -1.974  20.254  1.00  0.00     0.064 C
BRANCH  18  19
HETATM   19  C2  UNL     1      46.163  -1.952  19.296  1.00  0.00     0.127 C
BRANCH  19  20
HETATM   20  N3  UNL     1      45.223  -0.870  19.652  1.00  0.00    -0.367 N
HETATM   21  C1  UNL     1      43.972  -0.981  19.480  1.00  0.00     0.196 C
HETATM   22  N1  UNL     1      43.415  -2.164  18.935  1.00  0.00    -0.067 NA
HETATM   23  N2  UNL     1      43.097   0.078  19.834  1.00  0.00    -0.067 NA
ATOM     24  H3  UNL     1      45.592  -0.006  20.048  1.00  0.00     0.161 HD
ENDBRANCH  19  20
ENDBRANCH  18  19
ENDBRANCH  17  18
ENDBRANCH   1  17
TORSDOF 7
ENDMDL