MODEL 1
REMARK VINA RESULT: -5.715634562      0.000      0.000
REMARK  4 active torsions:
REMARK  status: ('A' for Active; 'I' for Inactive)
REMARK    1  A    between atoms: S1_3  and  C2_4
REMARK    2  A    between atoms: C2_4  and  C3_5
REMARK    3  A    between atoms: N2_6  and  N3_8
REMARK       I    between atoms: N3_8  and  C4_10
REMARK       I    between atoms: C4_10  and  N4_12
REMARK    4  A    between atoms: N4_12  and  N5_14
ROOT
HETATM    1  N1  UNL     1      -7.524   5.956   7.727  1.00  0.00    -0.184 NA
HETATM    2  C1  UNL     1      -6.752   6.553   8.374  1.00  0.00     0.133 C
HETATM    3  S1  UNL     1      -5.621   7.463   9.357  1.00  0.00    -0.046 SA
ENDROOT
BRANCH   3   4
HETATM    4  C2  UNL     1      -5.354   6.695  10.967  1.00  0.00     0.136 C
BRANCH   4   5
HETATM    5  C3  UNL     1      -6.504   7.001  11.845  1.00  0.00     0.091 C
HETATM    6  N2  UNL     1      -7.033   6.205  12.696  1.00  0.00    -0.311 N
ATOM      7  H2  UNL     1      -7.824   6.554  13.236  1.00  0.00     0.185 HD
BRANCH   6   8
HETATM    8  N3  UNL     1      -6.616   4.906  12.941  1.00  0.00    -0.251 N
HETATM    9  C4  UNL     1      -6.226   4.505  14.270  1.00  0.00     0.349 C
HETATM   10  O1  UNL     1      -6.270   5.342  15.187  1.00  0.00    -0.244 OA
HETATM   11  N4  UNL     1      -5.807   3.150  14.436  1.00  0.00    -0.270 N
ATOM     12  H4  UNL     1      -5.802   2.516  13.637  1.00  0.00     0.185 HD
ATOM     13  H3  UNL     1      -6.586   4.230  12.178  1.00  0.00     0.191 HD
BRANCH  11  14
HETATM   14  N5  UNL     1      -5.408   2.700  15.680  1.00  0.00    -0.223 NA
HETATM   15  C5  UNL     1      -6.368   1.951  16.419  1.00  0.00     0.140 C
HETATM   16  C6  UNL     1      -5.711   0.920  17.326  1.00  0.00     0.183 C
HETATM   17  O2  UNL     1      -4.963   0.006  16.608  1.00  0.00    -0.389 OA
HETATM   18  C7  UNL     1      -4.571   0.489  15.362  1.00  0.00     0.183 C
HETATM   19  C8  UNL     1      -4.183   1.936  15.545  1.00  0.00     0.140 C
ENDBRANCH  11  14
ENDBRANCH   6   8
ENDBRANCH   4   5
ENDBRANCH   3   4
TORSDOF 4
ENDMDL