MODEL 3
REMARK VINA RESULT: -6.635109002      1.050      1.263
REMARK  6 active torsions:
REMARK  status: ('A' for Active; 'I' for Inactive)
REMARK    1  A    between atoms: C3_3  and  C4_4
REMARK    2  A    between atoms: C4_4  and  C5_5
REMARK    3  A    between atoms: C5_5  and  O1_6
REMARK    4  A    between atoms: C5_5  and  C6_8
REMARK    5  A    between atoms: C7_10  and  C8_11
REMARK    6  A    between atoms: C8_11  and  N1_12
ROOT
HETATM    1  C1  UNL     1      -7.302   1.298  17.053  1.00  0.00     0.096 C
HETATM    2  C2  UNL     1      -6.442   1.923  16.443  1.00  0.00    -0.188 C
HETATM    3  C3  UNL     1      -5.434   2.686  15.707  1.00  0.00     0.082 C
ENDROOT
BRANCH   3   4
HETATM    4  C4  UNL     1      -4.256   1.832  15.358  1.00  0.00     0.047 C
BRANCH   4   5
HETATM    5  C5  UNL     1      -4.576   0.672  14.466  1.00  0.00     0.178 C
BRANCH   5   6
HETATM    6  O1  UNL     1      -4.592  -0.534  15.115  1.00  0.00    -0.391 OA
ATOM      7  H1  UNL     1      -3.841  -0.673  15.681  1.00  0.00     0.210 HD
ENDBRANCH   5   6
BRANCH   5   8
HETATM    8  C6  UNL     1      -3.663   0.631  13.251  1.00  0.00     0.387 C
HETATM    9  O2  UNL     1      -3.397   1.950  12.901  1.00  0.00    -0.346 OA
HETATM   10  C7  UNL     1      -4.237   2.298  11.873  1.00  0.00     0.174 C
HETATM   11  C10 UNL     1      -4.690   1.029  11.200  1.00  0.00     0.309 C
HETATM   12  N5  UNL     1      -4.388   0.026  12.178  1.00  0.00     0.118 N
HETATM   13  C11 UNL     1      -3.774  -1.150  11.632  1.00  0.00     0.313 C
BRANCH  10  14
HETATM   14  C8  UNL     1      -3.519   3.200  10.883  1.00  0.00     0.204 C
BRANCH  14  15
HETATM   15  N1  UNL     1      -2.269   3.611  11.465  1.00  0.00    -0.216 N
HETATM   16  N2  UNL     1      -2.032   4.762  12.048  1.00  0.00    -0.277 N
HETATM   17  C9  UNL     1      -0.736   4.781  12.471  1.00  0.00     0.216 A
ATOM     18  H2  UNL     1      -2.707   5.517  12.166  1.00  0.00     0.189 HD
HETATM   19  N3  UNL     1      -0.206   3.605  12.121  1.00  0.00    -0.279 N
HETATM   20  N4  UNL     1      -1.161   2.908  11.508  1.00  0.00    -0.225 N
ATOM     21  H3  UNL     1       0.751   3.297  12.292  1.00  0.00     0.189 HD
ATOM     22  H4  UNL     1      -1.049   1.968  11.129  1.00  0.00     0.210 HD
ENDBRANCH  14  15
ENDBRANCH  10  14
ENDBRANCH   5   8
ENDBRANCH   4   5
ENDBRANCH   3   4
TORSDOF 6
ENDMDL