MODEL 5
REMARK VINA RESULT: -6.549765454      1.512      4.095
REMARK  7 active torsions:
REMARK  status: ('A' for Active; 'I' for Inactive)
REMARK    1  A    between atoms: O1_2  and  C2_3
REMARK    2  A    between atoms: C3_5  and  C4_6
REMARK    3  A    between atoms: C4_6  and  O3_7
REMARK    4  A    between atoms: O3_7  and  C5_8
REMARK    5  A    between atoms: C7_11  and  O5_12
REMARK    6  A    between atoms: O5_12  and  C8_13
REMARK    7  A    between atoms: C10_16  and  O7_17
ROOT
HETATM    1  C2  UNL     1      -3.670   4.485  14.094  1.00  0.00     0.290 C
HETATM    2  O2  UNL     1      -3.570   3.615  15.160  1.00  0.00    -0.348 OA
HETATM    3  C3  UNL     1      -4.274   2.502  14.701  1.00  0.00     0.181 C
HETATM    4  C7  UNL     1      -3.882   2.324  13.252  1.00  0.00     0.196 C
HETATM    5  C10 UNL     1      -3.209   3.651  12.935  1.00  0.00     0.205 C
ENDROOT
BRANCH   3   6
HETATM    6  C4  UNL     1      -3.928   1.261  15.491  1.00  0.00     0.213 C
BRANCH   6   7
HETATM    7  O3  UNL     1      -4.605   1.337  16.725  1.00  0.00    -0.319 OA
BRANCH   7   8
HETATM    8  C5  UNL     1      -5.797   0.691  16.963  1.00  0.00     0.254 C
HETATM    9  C6  UNL     1      -7.103   1.405  16.975  1.00  0.00     0.126 C
HETATM   10  O4  UNL     1      -5.734  -0.566  17.177  1.00  0.00    -0.266 OA
ENDBRANCH   7   8
ENDBRANCH   6   7
ENDBRANCH   3   6
BRANCH   4  11
HETATM   11  O5  UNL     1      -5.016   2.217  12.414  1.00  0.00    -0.311 OA
BRANCH  11  12
HETATM   12  C8  UNL     1      -4.851   1.778  11.108  1.00  0.00     0.255 C
HETATM   13  C9  UNL     1      -4.688   0.317  10.798  1.00  0.00     0.126 C
HETATM   14  O6  UNL     1      -4.844   2.647  10.200  1.00  0.00    -0.266 OA
ENDBRANCH  11  12
ENDBRANCH   4  11
BRANCH   1  15
HETATM   15  O1  UNL     1      -2.944   5.648  14.258  1.00  0.00    -0.363 OA
HETATM   16  C1  UNL     1      -3.294   6.641  13.359  1.00  0.00     0.204 C
ENDBRANCH   1  15
BRANCH   5  17
HETATM   17  O7  UNL     1      -1.817   3.458  12.951  1.00  0.00    -0.388 OA
ATOM     18  H7  UNL     1      -1.587   2.545  13.080  1.00  0.00     0.210 HD
ENDBRANCH   5  17
TORSDOF 7
ENDMDL