MODEL 5
REMARK VINA RESULT: -6.181839572      2.318      3.115
REMARK  7 active torsions:
REMARK  status: ('A' for Active; 'I' for Inactive)
REMARK    1  A    between atoms: C2_2  and  O2_4
REMARK    2  A    between atoms: O2_4  and  C3_5
REMARK    3  A    between atoms: C4_6  and  C5_7
REMARK    4  A    between atoms: C5_7  and  O3_8
REMARK    5  A    between atoms: C6_11  and  O5_12
REMARK    6  A    between atoms: O5_12  and  C7_13
REMARK       I    between atoms: C7_13  and  N1_15
REMARK    7  A    between atoms: C8_17  and  N2_18
ROOT
HETATM    1  C3  UNL     1      -4.203   1.403  13.396  1.00  0.00     0.218 C
HETATM    2  C4  UNL     1      -4.267   0.629  12.118  1.00  0.00     0.182 C
HETATM    3  O4  UNL     1      -5.090   1.572  11.501  1.00  0.00    -0.348 OA
HETATM    4  C6  UNL     1      -4.949   2.408  12.606  1.00  0.00     0.303 C
ENDROOT
BRANCH   4   5
HETATM    5  O5  UNL     1      -6.200   2.819  13.154  1.00  0.00    -0.269 OA
BRANCH   5   6
HETATM    6  C7  UNL     1      -6.310   4.039  13.764  1.00  0.00     0.368 C
HETATM    7  O6  UNL     1      -6.099   4.136  14.997  1.00  0.00    -0.238 OA
HETATM    8  N1  UNL     1      -6.659   5.215  13.042  1.00  0.00    -0.299 N
HETATM    9  C8  UNL     1      -5.703   5.879  12.476  1.00  0.00     0.182 C
ATOM     10  H1  UNL     1      -7.629   5.523  12.972  1.00  0.00     0.171 HD
BRANCH   9  11
HETATM   11  N2  UNL     1      -5.942   7.065  11.733  1.00  0.00    -0.386 N
HETATM   12  C9  UNL     1      -4.820   7.761  11.119  1.00  0.00     0.149 C
HETATM   13  C10 UNL     1      -7.267   7.627  11.553  1.00  0.00     0.149 C
ENDBRANCH   9  11
ENDBRANCH   5   6
ENDBRANCH   4   5
BRANCH   1  14
HETATM   14  O2  UNL     1      -4.823   0.845  14.515  1.00  0.00    -0.309 OA
BRANCH  14  15
HETATM   15  C2  UNL     1      -4.459   1.120  15.825  1.00  0.00     0.255 C
HETATM   16  C1  UNL     1      -5.426   1.232  16.935  1.00  0.00     0.126 C
HETATM   17  O1  UNL     1      -3.218   1.271  16.005  1.00  0.00    -0.266 OA
ENDBRANCH  14  15
ENDBRANCH   1  14
BRANCH   2  18
HETATM   18  C5  UNL     1      -2.922   0.619  11.377  1.00  0.00     0.199 C
BRANCH  18  19
HETATM   19  O3  UNL     1      -3.097   0.191  10.062  1.00  0.00    -0.398 OA
ATOM     20  H3  UNL     1      -2.799   0.859   9.455  1.00  0.00     0.209 HD
ENDBRANCH  18  19
ENDBRANCH   2  18
TORSDOF 7
ENDMDL