MODEL 1
REMARK VINA RESULT: -6.373714928      0.000      0.000
REMARK  7 active torsions:
REMARK  status: ('A' for Active; 'I' for Inactive)
REMARK    1  A    between atoms: O1_2  and  C2_3
REMARK    2  A    between atoms: C2_3  and  C3_4
REMARK    3  A    between atoms: C3_4  and  O2_5
REMARK    4  A    between atoms: O2_5  and  C4_6
REMARK    5  A    between atoms: C4_6  and  C5_8
REMARK    6  A    between atoms: C6_10  and  O5_11
REMARK    7  A    between atoms: C8_13  and  O6_14
ROOT
HETATM    1  C5  UNL     1      -3.910   0.828  12.407  1.00  0.00     0.256 C
HETATM    2  O4  UNL     1      -2.645   1.282  12.205  1.00  0.00    -0.340 OA
HETATM    3  C6  UNL     1      -2.111   0.721  11.079  1.00  0.00     0.299 C
HETATM    4  C8  UNL     1      -3.024  -0.321  10.556  1.00  0.00     0.157 C
HETATM    5  C9  UNL     1      -2.961  -1.592  11.363  1.00  0.00     0.214 C
HETATM    6  O7  UNL     1      -4.333  -1.452  11.633  1.00  0.00    -0.376 OA
HETATM    7  C10 UNL     1      -4.304  -0.097  11.318  1.00  0.00     0.201 C
ENDROOT
BRANCH   1   8
HETATM    8  C4  UNL     1      -4.841   2.011  12.364  1.00  0.00     0.290 C
HETATM    9  O3  UNL     1      -5.649   2.040  11.413  1.00  0.00    -0.262 OA
BRANCH   8  10
HETATM   10  O2  UNL     1      -4.824   3.004  13.295  1.00  0.00    -0.317 OA
BRANCH  10  11
HETATM   11  C3  UNL     1      -4.861   2.788  14.672  1.00  0.00     0.205 C
BRANCH  11  12
HETATM   12  C2  UNL     1      -3.498   2.880  15.298  1.00  0.00     0.193 C
BRANCH  12  13
HETATM   13  O1  UNL     1      -3.212   1.710  15.976  1.00  0.00    -0.394 OA
HETATM   14  C1  UNL     1      -4.247   0.809  15.975  1.00  0.00     0.201 C
ENDBRANCH  12  13
ENDBRANCH  11  12
ENDBRANCH  10  11
ENDBRANCH   8  10
ENDBRANCH   1   8
BRANCH   3  15
HETATM   15  O5  UNL     1      -1.907   1.705  10.118  1.00  0.00    -0.363 OA
HETATM   16  C7  UNL     1      -0.864   2.557  10.439  1.00  0.00     0.204 C
ENDBRANCH   3  15
BRANCH   4  17
HETATM   17  O6  UNL     1      -3.169  -0.453   9.204  1.00  0.00    -0.380 OA
ATOM     18  H6  UNL     1      -4.020  -0.688   8.855  1.00  0.00     0.211 HD
ENDBRANCH   4  17
TORSDOF 7
ENDMDL