MODEL 1
REMARK VINA RESULT: -6.093720337      0.000      0.000
REMARK  5 active torsions:
REMARK  status: ('A' for Active; 'I' for Inactive)
REMARK    1  A    between atoms: N2_5  and  C3_6
REMARK    2  A    between atoms: C3_6  and  C4_7
REMARK    3  A    between atoms: C4_7  and  N3_8
REMARK    4  A    between atoms: C6_10  and  C7_11
REMARK    5  A    between atoms: C7_11  and  N4_12
ROOT
HETATM    1  N3  UNL     1      -5.780   3.934  12.286  1.00  0.00    -0.233 NA
HETATM    2  C5  UNL     1      -5.599   3.101  13.445  1.00  0.00     0.117 C
HETATM    3  C6  UNL     1      -5.616   4.025  14.613  1.00  0.00     0.036 C
HETATM    4  C10 UNL     1      -5.963   5.377  14.035  1.00  0.00     0.136 C
HETATM    5  N7  UNL     1      -6.505   5.059  12.727  1.00  0.00    -0.165 NA
ENDROOT
BRANCH   1   6
HETATM    6  C4  UNL     1      -4.591   4.421  11.691  1.00  0.00     0.131 C
BRANCH   6   7
HETATM    7  C3  UNL     1      -4.166   3.798  10.405  1.00  0.00     0.166 C
BRANCH   7   8
HETATM    8  N2  UNL     1      -4.077   2.351  10.677  1.00  0.00    -0.286 N
HETATM    9  C2  UNL     1      -3.031   1.663  11.143  1.00  0.00     0.201 A
HETATM   10  N1  UNL     1      -3.365   0.357  11.251  1.00  0.00    -0.346 N
HETATM   11  C1  UNL     1      -4.623   0.235  10.850  1.00  0.00     0.198 A
ATOM     12  H1  UNL     1      -2.760  -0.395  11.580  1.00  0.00     0.167 HD
HETATM   13  N8  UNL     1      -5.035   1.449  10.508  1.00  0.00    -0.293 N
ATOM     14  H8  UNL     1      -5.969   1.663  10.159  1.00  0.00     0.188 HD
ENDBRANCH   7   8
ENDBRANCH   6   7
ENDBRANCH   1   6
BRANCH   3  15
HETATM   15  C7  UNL     1      -6.482   3.624  15.758  1.00  0.00     0.157 C
BRANCH  15  16
HETATM   16  N4  UNL     1      -6.233   2.336  16.318  1.00  0.00    -0.286 N
HETATM   17  C8  UNL     1      -5.033   1.758  16.477  1.00  0.00     0.201 A
HETATM   18  N5  UNL     1      -5.278   0.547  17.033  1.00  0.00    -0.346 N
HETATM   19  C9  UNL     1      -6.581   0.376  17.214  1.00  0.00     0.198 A
ATOM     20  H5  UNL     1      -4.561  -0.136  17.278  1.00  0.00     0.167 HD
HETATM   21  N6  UNL     1      -7.154   1.501  16.762  1.00  0.00    -0.293 N
ATOM     22  H6  UNL     1      -8.157   1.684  16.761  1.00  0.00     0.188 HD
ENDBRANCH  15  16
ENDBRANCH   3  15
TORSDOF 5
ENDMDL