MODEL 2
REMARK VINA RESULT: -6.218132560      1.334      1.359
REMARK  6 active torsions:
REMARK  status: ('A' for Active; 'I' for Inactive)
REMARK    1  A    between atoms: C2_2  and  C3_3
REMARK    2  A    between atoms: C3_3  and  O1_4
REMARK    3  A    between atoms: O1_4  and  C4_5
REMARK    4  A    between atoms: C4_5  and  C5_6
REMARK    5  A    between atoms: C7_9  and  O3_10
REMARK    6  A    between atoms: C8_12  and  N1_13
ROOT
HETATM    1  C5  UNL     1      -4.611   1.019  14.262  1.00  0.00     0.172 C
HETATM    2  C6  UNL     1      -4.104   0.098  13.179  1.00  0.00     0.205 C
HETATM    3  O2  UNL     1      -4.681   0.424  11.990  1.00  0.00    -0.354 OA
HETATM    4  C7  UNL     1      -4.759   1.737  11.671  1.00  0.00     0.307 C
HETATM    5  C8  UNL     1      -4.905   2.682  12.822  1.00  0.00     0.300 C
HETATM    6  O4  UNL     1      -4.132   2.293  13.934  1.00  0.00    -0.350 OA
ENDROOT
BRANCH   5   7
HETATM    7  N1  UNL     1      -4.592   4.029  12.484  1.00  0.00    -0.253 N
HETATM    8  C9  UNL     1      -4.867   5.107  13.234  1.00  0.00     0.133 A
HETATM    9  C10 UNL     1      -4.413   6.248  12.581  1.00  0.00     0.127 A
HETATM   10  N2  UNL     1      -3.869   5.789  11.430  1.00  0.00    -0.296 N
HETATM   11  N3  UNL     1      -3.987   4.459  11.394  1.00  0.00    -0.239 N
ATOM     12  H2  UNL     1      -3.437   6.366  10.708  1.00  0.00     0.187 HD
ATOM     13  H3  UNL     1      -3.658   3.864  10.634  1.00  0.00     0.208 HD
ENDBRANCH   5   7
BRANCH   4  14
HETATM   14  O3  UNL     1      -5.914   1.896  10.868  1.00  0.00    -0.367 OA
ATOM     15  H3  UNL     1      -5.671   2.464  10.147  1.00  0.00     0.212 HD
ENDBRANCH   4  14
BRANCH   1  16
HETATM   16  C4  UNL     1      -4.154   0.592  15.636  1.00  0.00     0.202 C
BRANCH  16  17
HETATM   17  O1  UNL     1      -5.144  -0.112  16.276  1.00  0.00    -0.385 OA
BRANCH  17  18
HETATM   18  C3  UNL     1      -5.697   0.537  17.350  1.00  0.00     0.194 C
BRANCH  18  19
HETATM   19  C2  UNL     1      -6.934   1.289  17.027  1.00  0.00    -0.011 C
HETATM   20  C1  UNL     1      -6.953   2.575  16.775  1.00  0.00     0.009 C
ENDBRANCH  18  19
ENDBRANCH  17  18
ENDBRANCH  16  17
ENDBRANCH   1  16
TORSDOF 6
ENDMDL