MODEL 5
REMARK VINA RESULT: -6.087854251      1.127      1.235
REMARK  7 active torsions:
REMARK  status: ('A' for Active; 'I' for Inactive)
REMARK    1  A    between atoms: O1_2  and  C2_3
REMARK    2  A    between atoms: C2_3  and  C3_4
REMARK    3  A    between atoms: C5_7  and  C6_8
REMARK    4  A    between atoms: C6_8  and  O3_9
REMARK    5  A    between atoms: N1_11  and  N2_13
REMARK    6  A    between atoms: C7_15  and  C9_17
REMARK    7  A    between atoms: C9_17  and  O5_19
ROOT
HETATM    1  C6  UNL     1      -4.435   2.434  11.039  1.00  0.00     0.160 C
HETATM    2  N1  UNL     1      -4.786   3.091  12.087  1.00  0.00    -0.281 N
ATOM      3  H1  UNL     1      -5.004   4.081  11.963  1.00  0.00     0.189 HD
ENDROOT
BRANCH   1   4
HETATM    4  C5  UNL     1      -4.115   1.026  11.149  1.00  0.00     0.205 C
HETATM    5  C3  UNL     1      -2.700   0.649  11.479  1.00  0.00     0.070 C
HETATM    6  C4  UNL     1      -3.134  -0.555  10.666  1.00  0.00     0.178 C
HETATM    7  O2  UNL     1      -3.946   0.339   9.927  1.00  0.00    -0.377 OA
BRANCH   5   8
HETATM    8  C2  UNL     1      -1.623   1.388  10.773  1.00  0.00     0.176 C
BRANCH   8   9
HETATM    9  O1  UNL     1      -0.945   2.185  11.688  1.00  0.00    -0.395 OA
HETATM   10  C1  UNL     1      -0.796   3.492  11.239  1.00  0.00     0.201 C
ENDBRANCH   8   9
ENDBRANCH   5   8
ENDBRANCH   1   4
BRANCH   1  11
HETATM   11  O3  UNL     1      -4.381   3.120   9.841  1.00  0.00    -0.346 OA
ATOM     12  H3  UNL     1      -4.399   2.681   8.999  1.00  0.00     0.219 HD
ENDBRANCH   1  11
BRANCH   2  13
HETATM   13  N2  UNL     1      -4.896   2.585  13.358  1.00  0.00    -0.297 N
HETATM   14  C7  UNL     1      -5.541   3.110  14.325  1.00  0.00     0.097 C
HETATM   15  C8  UNL     1      -6.278   4.380  14.186  1.00  0.00     0.076 C
ATOM     16  H2  UNL     1      -4.417   1.705  13.547  1.00  0.00     0.187 HD
BRANCH  14  17
HETATM   17  C9  UNL     1      -5.544   2.429  15.602  1.00  0.00     0.306 C
HETATM   18  O4  UNL     1      -4.504   1.905  16.054  1.00  0.00    -0.258 OA
BRANCH  17  19
HETATM   19  O5  UNL     1      -6.694   2.321  16.385  1.00  0.00    -0.322 OA
HETATM   20  C10 UNL     1      -7.156   1.108  16.913  1.00  0.00     0.213 C
ENDBRANCH  17  19
ENDBRANCH  14  17
ENDBRANCH   2  13
TORSDOF 7
ENDMDL