MODEL 3
REMARK VINA RESULT: -6.616739411      2.258      5.191
REMARK  9 active torsions:
REMARK  status: ('A' for Active; 'I' for Inactive)
REMARK    1  A    between atoms: C2_2  and  O1_3
REMARK    2  A    between atoms: O1_3  and  C3_4
REMARK    3  A    between atoms: C3_4  and  O2_5
REMARK    4  A    between atoms: C3_4  and  N1_7
REMARK    5  A    between atoms: N1_7  and  C4_8
REMARK    6  A    between atoms: C5_10  and  C6_11
REMARK    7  A    between atoms: C6_11  and  O4_12
REMARK    8  A    between atoms: O4_12  and  C7_13
REMARK    9  A    between atoms: C9_17  and  O7_18
ROOT
HETATM    1  C4  UNL     1      -4.491   1.178  12.474  1.00  0.00     0.363 C
HETATM    2  O3  UNL     1      -5.262   2.401  12.347  1.00  0.00    -0.318 OA
HETATM    3  C5  UNL     1      -4.437   3.269  13.037  1.00  0.00     0.291 C
HETATM    4  O6  UNL     1      -3.096   2.835  12.881  1.00  0.00    -0.324 OA
HETATM    5  C9  UNL     1      -3.172   1.840  11.936  1.00  0.00     0.324 C
ENDROOT
BRANCH   1   6
HETATM    6  N1  UNL     1      -4.393   0.947  13.840  1.00  0.00    -0.365 NA
BRANCH   6   7
HETATM    7  C3  UNL     1      -4.298   0.724  15.146  1.00  0.00     0.343 C
BRANCH   7   8
HETATM    8  O1  UNL     1      -5.216   0.016  15.954  1.00  0.00    -0.276 OA
BRANCH   8   9
HETATM    9  C2  UNL     1      -5.829   0.449  17.063  1.00  0.00     0.137 C
HETATM   10  C1  UNL     1      -6.978   1.124  16.956  1.00  0.00     0.038 C
ENDBRANCH   8   9
ENDBRANCH   7   8
BRANCH   7  11
HETATM   11  O2  UNL     1      -3.302   1.140  15.912  1.00  0.00    -0.315 OA
ATOM     12  H2  UNL     1      -2.619   1.490  15.352  1.00  0.00     0.222 HD
ENDBRANCH   7  11
ENDBRANCH   6   7
ENDBRANCH   1   6
BRANCH   5  13
HETATM   13  O7  UNL     1      -2.216   0.916  11.873  1.00  0.00    -0.361 OA
HETATM   14  C10 UNL     1      -1.420   1.137  10.727  1.00  0.00     0.205 C
ENDBRANCH   5  13
BRANCH   3  15
HETATM   15  C6  UNL     1      -4.607   4.707  12.778  1.00  0.00     0.239 C
BRANCH  15  16
HETATM   16  O4  UNL     1      -5.572   5.075  11.812  1.00  0.00    -0.317 OA
BRANCH  16  17
HETATM   17  C7  UNL     1      -6.512   6.026  12.320  1.00  0.00     0.254 C
HETATM   18  C8  UNL     1      -6.738   7.278  11.587  1.00  0.00     0.126 C
HETATM   19  O5  UNL     1      -7.103   5.754  13.356  1.00  0.00    -0.266 OA
ENDBRANCH  16  17
ENDBRANCH  15  16
ENDBRANCH   3  15
TORSDOF 9
ENDMDL