MODEL 4
REMARK VINA RESULT: -6.710562675      2.009      4.474
REMARK  8 active torsions:
REMARK  status: ('A' for Active; 'I' for Inactive)
REMARK    1  A    between atoms: C2_2  and  O2_4
REMARK    2  A    between atoms: O2_4  and  C3_5
REMARK    3  A    between atoms: C4_7  and  C5_8
REMARK    4  A    between atoms: C5_8  and  O4_9
REMARK    5  A    between atoms: C6_11  and  O5_12
REMARK    6  A    between atoms: C7_14  and  C8_15
REMARK    7  A    between atoms: C8_15  and  C9_16
REMARK    8  A    between atoms: C9_16  and  C10_17
ROOT
HETATM    1  C10 UNL     1      -4.627   1.942  11.281  1.00  0.00     0.228 C
HETATM    2  O6  UNL     1      -5.843   1.715  11.088  1.00  0.00    -0.281 OA
HETATM    3  C11 UNL     1      -3.986   3.035  10.627  1.00  0.00     0.138 C
HETATM    4  N1  UNL     1      -3.457   3.928  10.077  1.00  0.00    -0.188 NA
ENDROOT
BRANCH   1   5
HETATM    5  C9  UNL     1      -3.890   1.027  12.214  1.00  0.00     0.096 C
BRANCH   5   6
HETATM    6  C8  UNL     1      -3.743   1.771  13.500  1.00  0.00     0.020 C
BRANCH   6   7
HETATM    7  C7  UNL     1      -4.917   1.705  14.403  1.00  0.00     0.073 C
HETATM    8  C3  UNL     1      -5.470   2.962  14.911  1.00  0.00     0.276 C
HETATM    9  O3  UNL     1      -6.317   2.449  15.951  1.00  0.00    -0.350 OA
HETATM   10  C4  UNL     1      -5.372   1.758  16.708  1.00  0.00     0.177 C
HETATM   11  C6  UNL     1      -4.490   1.036  15.739  1.00  0.00     0.158 C
BRANCH   8  12
HETATM   12  O2  UNL     1      -6.230   3.772  14.065  1.00  0.00    -0.289 OA
BRANCH  12  13
HETATM   13  C2  UNL     1      -5.666   4.860  13.384  1.00  0.00     0.257 C
HETATM   14  C1  UNL     1      -4.435   5.531  13.878  1.00  0.00     0.126 C
HETATM   15  O1  UNL     1      -6.275   5.213  12.341  1.00  0.00    -0.266 OA
ENDBRANCH  12  13
ENDBRANCH   8  12
BRANCH  10  16
HETATM   16  C5  UNL     1      -6.021   0.729  17.607  1.00  0.00     0.198 C
BRANCH  16  17
HETATM   17  O4  UNL     1      -5.685  -0.530  17.067  1.00  0.00    -0.398 OA
ATOM     18  H4  UNL     1      -6.052  -1.176  17.659  1.00  0.00     0.209 HD
ENDBRANCH  16  17
ENDBRANCH  10  16
BRANCH  11  19
HETATM   19  O5  UNL     1      -3.177   1.442  15.943  1.00  0.00    -0.392 OA
ATOM     20  H5  UNL     1      -2.732   0.787  16.469  1.00  0.00     0.210 HD
ENDBRANCH  11  19
ENDBRANCH   6   7
ENDBRANCH   5   6
ENDBRANCH   1   5
TORSDOF 8
ENDMDL