MODEL 5
REMARK VINA RESULT: -6.665055325      1.702      6.921
REMARK  5 active torsions:
REMARK  status: ('A' for Active; 'I' for Inactive)
REMARK    1  A    between atoms: C9_9  and  N1_10
REMARK       I    between atoms: N1_10  and  C10_12
REMARK    2  A    between atoms: C10_12  and  C11_14
REMARK    3  A    between atoms: C11_14  and  N2_15
REMARK    4  A    between atoms: C11_14  and  C17_24
REMARK       I    between atoms: N2_15  and  C12_17
REMARK    5  A    between atoms: C12_17  and  C13_19
ROOT
HETATM    1  C11 UNL     1      91.620  92.279 -44.547  1.00  0.00     0.217 C
ENDROOT
BRANCH   1   2
HETATM    2  C10 UNL     1      91.756  91.616 -45.852  1.00  0.00     0.245 C
HETATM    3  N1  UNL     1      90.615  91.432 -46.665  1.00  0.00    -0.354 N
ATOM      4  H1  UNL     1      89.714  91.765 -46.321  1.00  0.00     0.162 HD
HETATM    5  O1  UNL     1      92.852  91.191 -46.307  1.00  0.00    -0.271 OA
BRANCH   3   6
HETATM    6  C9  UNL     1      90.667  90.793 -47.964  1.00  0.00     0.088 C
HETATM    7  C4  UNL     1      89.462  89.970 -48.267  1.00  0.00     0.009 C
HETATM    8  C3  UNL     1      89.859  88.708 -49.006  1.00  0.00     0.011 C
HETATM    9  C5  UNL     1      88.564  90.640 -49.293  1.00  0.00     0.011 C
HETATM   10  C2  UNL     1      89.849  89.057 -50.469  1.00  0.00    -0.014 C
HETATM   11  C1  UNL     1      88.951  88.118 -51.236  1.00  0.00     0.010 C
HETATM   12  C6  UNL     1      89.381  90.489 -50.552  1.00  0.00    -0.010 C
HETATM   13  C7  UNL     1      90.620  91.364 -50.413  1.00  0.00     0.007 C
HETATM   14  C8  UNL     1      90.810  91.887 -49.025  1.00  0.00     0.026 C
ENDBRANCH   3   6
ENDBRANCH   1   2
BRANCH   1  15
HETATM   15  N2  UNL     1      91.917  93.698 -44.619  1.00  0.00    -0.341 N
HETATM   16  C12 UNL     1      91.148  94.622 -45.339  1.00  0.00     0.247 C
HETATM   17  O2  UNL     1      90.122  94.207 -45.974  1.00  0.00    -0.271 OA
ATOM     18  H2  UNL     1      92.734  94.043 -44.114  1.00  0.00     0.163 HD
BRANCH  16  19
HETATM   19  C13 UNL     1      91.483  96.045 -45.385  1.00  0.00     0.213 C
HETATM   20  C14 UNL     1      91.297  96.738 -44.042  1.00  0.00     0.043 C
HETATM   21  C15 UNL     1      91.240  98.192 -44.470  1.00  0.00     0.029 C
HETATM   22  C16 UNL     1      90.775  98.099 -45.884  1.00  0.00     0.168 C
HETATM   23  O3  UNL     1      90.592  96.755 -46.179  1.00  0.00    -0.376 OA
ENDBRANCH  16  19
ENDBRANCH   1  15
BRANCH   1  24
HETATM   24  C17 UNL     1      92.489  91.617 -43.519  1.00  0.00     0.014 A
HETATM   25  C18 UNL     1      92.162  90.581 -42.692  1.00  0.00     0.017 A
HETATM   26  C19 UNL     1      93.097  90.146 -41.843  1.00  0.00     0.008 A
HETATM   27  C20 UNL     1      94.315  90.776 -41.869  1.00  0.00     0.050 A
HETATM   28  S1  UNL     1      94.102  91.955 -43.085  1.00  0.00    -0.104 SA
ENDBRANCH   1  24
TORSDOF 5
ENDMDL