MODEL 4
REMARK VINA RESULT: -7.322830707      1.934      4.427
REMARK  5 active torsions:
REMARK  status: ('A' for Active; 'I' for Inactive)
REMARK    1  A    between atoms: C3_4  and  C4_5
REMARK    2  A    between atoms: C4_5  and  C5_6
REMARK    3  A    between atoms: C7_11  and  C8_12
REMARK    4  A    between atoms: C14_21  and  O1_22
REMARK    5  A    between atoms: O1_22  and  C15_23
ROOT
HETATM    1  F1  UNL     1      91.717  95.996 -40.942  1.00  0.00    -0.203 F
HETATM    2  C1  UNL     1      91.789  95.140 -42.020  1.00  0.00     0.150 A
HETATM    3  C2  UNL     1      92.197  93.847 -41.853  1.00  0.00     0.053 A
HETATM    4  C3  UNL     1      92.279  92.958 -42.940  1.00  0.00    -0.046 A
HETATM    5  C7  UNL     1      91.961  93.352 -44.211  1.00  0.00    -0.045 A
HETATM    6  C13 UNL     1      91.554  94.657 -44.334  1.00  0.00     0.048 A
HETATM    7  C14 UNL     1      91.455  95.579 -43.277  1.00  0.00     0.108 A
ENDROOT
BRANCH   7   8
HETATM    8  O1  UNL     1      91.051  96.784 -43.547  1.00  0.00    -0.341 OA
BRANCH   8   9
HETATM    9  C15 UNL     1      90.701  97.986 -43.850  1.00  0.00     0.155 C
HETATM   10  C16 UNL     1      89.446  98.578 -43.267  1.00  0.00     0.201 C
HETATM   11  O2  UNL     1      89.832  99.508 -42.317  1.00  0.00    -0.377 OA
HETATM   12  C17 UNL     1      91.019 100.067 -42.777  1.00  0.00     0.067 C
HETATM   13  C18 UNL     1      91.787 100.562 -41.572  1.00  0.00     0.064 C
HETATM   14  C21 UNL     1      90.688 101.232 -43.680  1.00  0.00     0.064 C
HETATM   15  C22 UNL     1      91.792  98.987 -43.441  1.00  0.00     0.073 C
HETATM   16  C19 UNL     1      92.824 101.598 -41.937  1.00  0.00     0.170 C
HETATM   17  O3  UNL     1      93.031 101.659 -43.312  1.00  0.00    -0.391 OA
HETATM   18  C20 UNL     1      91.826 102.186 -43.842  1.00  0.00     0.170 C
ENDBRANCH   8   9
ENDBRANCH   7   8
BRANCH   5  19
HETATM   19  C8  UNL     1      92.084  92.457 -45.391  1.00  0.00     0.022 C
HETATM   20  C9  UNL     1      91.657  93.252 -46.622  1.00  0.00     0.037 C
HETATM   21  C10 UNL     1      90.333  92.875 -47.168  1.00  0.00     0.233 C
HETATM   22  N2  UNL     1      90.268  91.492 -47.608  1.00  0.00    -0.075 N
HETATM   23  C11 UNL     1      91.173  90.704 -46.810  1.00  0.00     0.233 C
ATOM     24  H22 UNL     1      89.317  91.124 -47.595  1.00  0.00     0.277 HD
ATOM     25  H21 UNL     1      90.446  91.394 -48.608  1.00  0.00     0.277 HD
HETATM   26  C12 UNL     1      91.123  91.283 -45.382  1.00  0.00     0.037 C
ENDBRANCH   5  19
BRANCH   4  27
HETATM   27  C4  UNL     1      92.582  91.542 -42.603  1.00  0.00     0.074 C
BRANCH  27  28
HETATM   28  C5  UNL     1      94.062  91.275 -42.599  1.00  0.00     0.215 A
HETATM   29  C6  UNL     1      94.989  91.676 -41.565  1.00  0.00     0.266 A
HETATM   30  N1  UNL     1      94.496  90.269 -41.666  1.00  0.00    -0.067 N
ATOM     31  H12 UNL     1      94.035  89.612 -41.038  1.00  0.00     0.277 HD
ATOM     32  H11 UNL     1      94.929  89.348 -41.737  1.00  0.00     0.277 HD
ENDBRANCH  27  28
ENDBRANCH   4  27
TORSDOF 5
ENDMDL