MODEL 3
REMARK VINA RESULT: -6.918470399      0.778      1.584
REMARK  7 active torsions:
REMARK  status: ('A' for Active; 'I' for Inactive)
REMARK    1  A    between atoms: C1_2  and  N1_3
REMARK    2  A    between atoms: C1_2  and  N2_12
REMARK    3  A    between atoms: N1_3  and  C2_5
REMARK    4  A    between atoms: C2_5  and  C3_6
REMARK    5  A    between atoms: N2_12  and  C9_14
REMARK    6  A    between atoms: C9_14  and  C10_15
REMARK    7  A    between atoms: N3_18  and  C13_19
ROOT
HETATM    1  C9  UNL     1      91.111  95.487 -45.809  1.00  0.00     0.126 C
ENDROOT
BRANCH   1   2
HETATM    2  N2  UNL     1      90.750  94.255 -45.158  1.00  0.00    -0.367 N
ATOM      3  H2  UNL     1      90.112  94.278 -44.362  1.00  0.00     0.161 HD
BRANCH   2   4
HETATM    4  C1  UNL     1      91.264  93.011 -45.604  1.00  0.00     0.167 C
HETATM    5  S1  UNL     1      90.822  92.362 -47.028  1.00  0.00    -0.041 SA
BRANCH   4   6
HETATM    6  N1  UNL     1      92.187  92.315 -44.785  1.00  0.00    -0.367 N
ATOM      7  H1  UNL     1      92.351  91.319 -44.933  1.00  0.00     0.161 HD
BRANCH   6   8
HETATM    8  C2  UNL     1      92.897  93.019 -43.740  1.00  0.00     0.127 C
BRANCH   8   9
HETATM    9  C3  UNL     1      92.611  92.419 -42.379  1.00  0.00     0.007 C
HETATM   10  C4  UNL     1      92.376  90.942 -42.521  1.00  0.00     0.033 C
HETATM   11  C5  UNL     1      93.420  90.106 -41.908  1.00  0.00    -0.030 C
HETATM   12  C6  UNL     1      94.608  90.548 -41.526  1.00  0.00    -0.031 C
HETATM   13  C7  UNL     1      94.936  91.980 -41.718  1.00  0.00     0.027 C
HETATM   14  C8  UNL     1      93.696  92.776 -41.415  1.00  0.00     0.010 C
ENDBRANCH   8   9
ENDBRANCH   6   8
ENDBRANCH   4   6
ENDBRANCH   2   4
ENDBRANCH   1   2
BRANCH   1  15
HETATM   15  C10 UNL     1      91.688  96.500 -44.848  1.00  0.00     0.006 C
HETATM   16  C11 UNL     1      91.117  96.274 -43.495  1.00  0.00     0.026 C
HETATM   17  C12 UNL     1      91.491  97.331 -42.491  1.00  0.00     0.125 C
HETATM   18  N3  UNL     1      91.624  98.638 -43.067  1.00  0.00    -0.361 N
HETATM   19  C16 UNL     1      91.896  98.928 -44.444  1.00  0.00     0.125 C
HETATM   20  C17 UNL     1      91.377  97.876 -45.395  1.00  0.00     0.026 C
BRANCH  18  21
HETATM   21  C13 UNL     1      91.467  99.758 -42.168  1.00  0.00     0.147 A
HETATM   22  N4  UNL     1      92.299 100.208 -41.247  1.00  0.00    -0.327 N
HETATM   23  C14 UNL     1      91.988 101.235 -40.528  1.00  0.00     0.112 A
ATOM     24  H4  UNL     1      93.194  99.741 -41.103  1.00  0.00     0.169 HD
HETATM   25 CL1  UNL     1      93.080 101.875 -39.275  1.00  0.00    -0.064 Cl
HETATM   26  C15 UNL     1      90.773 101.831 -40.756  1.00  0.00     0.095 A
HETATM   27  S2  UNL     1      90.153 100.848 -42.019  1.00  0.00    -0.063 SA
ENDBRANCH  18  21
ENDBRANCH   1  15
TORSDOF 7
ENDMDL