MODEL 2
REMARK VINA RESULT: -6.550508158      2.513      3.141
REMARK  5 active torsions:
REMARK  status: ('A' for Active; 'I' for Inactive)
REMARK    1  A    between atoms: C2_2  and  C3_3
REMARK    2  A    between atoms: C2_2  and  S1_24
REMARK       I    between atoms: C3_3  and  N1_5
REMARK    3  A    between atoms: N1_5  and  C4_7
REMARK    4  A    between atoms: C7_10  and  N2_11
REMARK       I    between atoms: N2_11  and  C8_13
REMARK    5  A    between atoms: C8_13  and  C9_15
ROOT
HETATM    1  C4  UNL     1      90.412  90.203 -48.955  1.00  0.00     0.056 A
HETATM    2  C5  UNL     1      89.861  91.405 -48.640  1.00  0.00     0.033 A
HETATM    3  C6  UNL     1      90.284  92.169 -47.562  1.00  0.00     0.032 A
HETATM    4  C7  UNL     1      91.323  91.735 -46.725  1.00  0.00     0.036 A
HETATM    5  C15 UNL     1      91.871  90.531 -47.048  1.00  0.00     0.055 A
HETATM    6  C16 UNL     1      91.450  89.762 -48.126  1.00  0.00     0.062 A
HETATM    7 CL1  UNL     1      92.203  88.220 -48.478  1.00  0.00    -0.082 Cl
ENDROOT
BRANCH   1   8
HETATM    8  N1  UNL     1      90.009  89.394 -50.045  1.00  0.00    -0.325 N
HETATM    9  C3  UNL     1      88.806  88.687 -50.204  1.00  0.00     0.240 C
HETATM   10  O1  UNL     1      87.861  88.653 -49.387  1.00  0.00    -0.272 OA
ATOM     11  H1  UNL     1      90.676  89.315 -50.813  1.00  0.00     0.169 HD
BRANCH   9  12
HETATM   12  C2  UNL     1      88.615  87.891 -51.457  1.00  0.00     0.196 C
HETATM   13  C1  UNL     1      87.145  87.903 -51.798  1.00  0.00     0.036 C
BRANCH  12  14
HETATM   14  S1  UNL     1      89.184  86.218 -51.229  1.00  0.00     0.153 S
HETATM   15  C17 UNL     1      87.824  85.262 -50.604  1.00  0.00     0.162 C
HETATM   16  O3  UNL     1      89.599  85.627 -52.567  1.00  0.00    -0.227 OA
HETATM   17  O4  UNL     1      90.372  86.118 -50.341  1.00  0.00    -0.227 OA
ENDBRANCH  12  14
ENDBRANCH   9  12
ENDBRANCH   1   8
BRANCH   4  18
HETATM   18  N2  UNL     1      91.716  92.576 -45.656  1.00  0.00    -0.327 N
HETATM   19  C8  UNL     1      91.943  92.133 -44.359  1.00  0.00     0.226 C
HETATM   20  O2  UNL     1      91.823  90.960 -43.978  1.00  0.00    -0.273 OA
ATOM     21  H2  UNL     1      91.841  93.570 -45.851  1.00  0.00     0.169 HD
BRANCH  19  22
HETATM   22  C9  UNL     1      92.364  93.144 -43.332  1.00  0.00     0.078 C
HETATM   23  C10 UNL     1      92.940  92.479 -42.117  1.00  0.00     0.014 C
HETATM   24  C11 UNL     1      93.537  93.547 -41.232  1.00  0.00     0.001 C
HETATM   25  C12 UNL     1      92.598  94.656 -40.916  1.00  0.00     0.000 C
HETATM   26  C13 UNL     1      91.787  95.141 -42.068  1.00  0.00     0.001 C
HETATM   27  C14 UNL     1      91.210  94.001 -42.887  1.00  0.00     0.014 C
ENDBRANCH  19  22
ENDBRANCH   4  18
TORSDOF 5
ENDMDL