MODEL 1
REMARK VINA RESULT: -6.519286316      0.000      0.000
REMARK  5 active torsions:
REMARK  status: ('A' for Active; 'I' for Inactive)
REMARK    1  A    between atoms: C1_2  and  C2_3
REMARK       I    between atoms: C1_2  and  N2_14
REMARK    2  A    between atoms: C2_3  and  N1_4
REMARK       I    between atoms: N1_4  and  C3_6
REMARK    3  A    between atoms: C3_6  and  C4_8
REMARK    4  A    between atoms: N2_14  and  C8_16
REMARK    5  A    between atoms: N3_19  and  C11_20
ROOT
HETATM    1  O1  UNL     1      92.543  96.865 -40.556  1.00  0.00    -0.272 OA
HETATM    2  C1  UNL     1      91.962  96.126 -41.403  1.00  0.00     0.235 C
HETATM    3  N2  UNL     1      91.327  96.750 -42.508  1.00  0.00    -0.355 N
ATOM      4  H2  UNL     1      90.849  96.187 -43.211  1.00  0.00     0.162 HD
ENDROOT
BRANCH   3   5
HETATM    5  C8  UNL     1      91.360  98.177 -42.629  1.00  0.00     0.087 C
HETATM    6  C9  UNL     1      92.114  98.671 -43.820  1.00  0.00     0.055 C
HETATM    7  C10 UNL     1      91.363  98.526 -45.124  1.00  0.00     0.275 C
HETATM    8  N3  UNL     1      90.042  99.063 -44.947  1.00  0.00     0.093 N
HETATM    9  C17 UNL     1      89.293  98.417 -43.920  1.00  0.00     0.275 C
HETATM   10  C18 UNL     1      89.976  98.796 -42.599  1.00  0.00     0.055 C
BRANCH   8  11
HETATM   11  C11 UNL     1      89.343  99.302 -46.175  1.00  0.00     0.223 C
HETATM   12  C12 UNL     1      88.140 100.134 -45.864  1.00  0.00     0.036 C
HETATM   13  C13 UNL     1      86.964  99.969 -46.744  1.00  0.00     0.002 C
HETATM   14  C14 UNL     1      86.731  98.564 -47.219  1.00  0.00     0.000 C
HETATM   15  C15 UNL     1      88.008  98.166 -47.969  1.00  0.00     0.002 C
HETATM   16  C16 UNL     1      89.057  98.014 -46.859  1.00  0.00     0.036 C
ENDBRANCH   8  11
ENDBRANCH   3   5
BRANCH   2  17
HETATM   17  C2  UNL     1      91.926  94.651 -41.278  1.00  0.00     0.225 C
BRANCH  17  18
HETATM   18  N1  UNL     1      91.410  94.101 -42.509  1.00  0.00    -0.348 N
HETATM   19  C3  UNL     1      92.273  93.366 -43.343  1.00  0.00     0.259 C
HETATM   20  O2  UNL     1      93.480  93.116 -43.136  1.00  0.00    -0.267 OA
ATOM     21  H1  UNL     1      90.434  94.243 -42.771  1.00  0.00     0.163 HD
BRANCH  19  22
HETATM   22  C4  UNL     1      91.713  92.822 -44.604  1.00  0.00     0.074 A
HETATM   23  C5  UNL     1      91.611  91.521 -44.994  1.00  0.00     0.027 A
HETATM   24  C6  UNL     1      91.059  91.270 -46.193  1.00  0.00     0.033 A
HETATM   25  C7  UNL     1      90.644  92.348 -46.927  1.00  0.00     0.075 A
HETATM   26 CL1  UNL     1      89.886  92.330 -48.532  1.00  0.00    -0.076 Cl
HETATM   27  S1  UNL     1      91.033  93.672 -45.926  1.00  0.00    -0.072 SA
ENDBRANCH  19  22
ENDBRANCH  17  18
ENDBRANCH   2  17
TORSDOF 5
ENDMDL