MODEL 4
REMARK VINA RESULT: -6.883008578      2.019      2.884
REMARK  5 active torsions:
REMARK  status: ('A' for Active; 'I' for Inactive)
REMARK    1  A    between atoms: C1_4  and  C2_6
REMARK    2  A    between atoms: C8_12  and  O1_13
REMARK    3  A    between atoms: O1_13  and  S1_14
REMARK    4  A    between atoms: S1_14  and  C9_17
REMARK    5  A    between atoms: C9_17  and  C10_18
ROOT
HETATM    1  C2  UNL     1      91.416  98.365 -42.849  1.00  0.00     0.019 C
HETATM    2  C3  UNL     1      90.094  99.083 -42.573  1.00  0.00     0.021 C
HETATM    3  C4  UNL     1      89.427  99.339 -43.901  1.00  0.00    -0.010 C
HETATM    4  C5  UNL     1      90.295 100.184 -44.794  1.00  0.00     0.009 C
HETATM    5  C6  UNL     1      91.561  99.428 -45.044  1.00  0.00    -0.010 C
HETATM    6  C7  UNL     1      91.334  98.086 -45.643  1.00  0.00     0.044 C
HETATM    7  C8  UNL     1      90.385  97.223 -44.791  1.00  0.00     0.082 C
HETATM    8  C16 UNL     1      89.124  98.042 -44.632  1.00  0.00     0.044 C
HETATM    9  C17 UNL     1      91.038  97.036 -43.467  1.00  0.00     0.056 C
HETATM   10  C18 UNL     1      92.264  99.215 -43.715  1.00  0.00     0.021 C
ENDROOT
BRANCH   7  11
HETATM   11  O1  UNL     1      90.195  96.097 -45.524  1.00  0.00    -0.264 OA
BRANCH  11  12
HETATM   12  S1  UNL     1      91.241  94.851 -45.359  1.00  0.00     0.270 S
HETATM   13  O2  UNL     1      92.678  95.250 -45.160  1.00  0.00    -0.198 OA
HETATM   14  O3  UNL     1      91.146  93.846 -46.486  1.00  0.00    -0.198 OA
BRANCH  12  15
HETATM   15  C9  UNL     1      90.761  93.937 -43.884  1.00  0.00     0.209 C
BRANCH  15  16
HETATM   16  C10 UNL     1      91.870  93.158 -43.339  1.00  0.00    -0.042 A
HETATM   17  C11 UNL     1      92.355  93.475 -42.086  1.00  0.00     0.010 A
HETATM   18  C12 UNL     1      93.390  92.808 -41.484  1.00  0.00     0.024 A
HETATM   19  C13 UNL     1      93.990  91.754 -42.165  1.00  0.00     0.034 A
HETATM   20 CL1  UNL     1      95.313  90.898 -41.403  1.00  0.00    -0.084 Cl
HETATM   21  C14 UNL     1      93.536  91.408 -43.415  1.00  0.00     0.024 A
HETATM   22  C15 UNL     1      92.493  92.105 -43.982  1.00  0.00     0.010 A
ENDBRANCH  15  16
ENDBRANCH  12  15
ENDBRANCH  11  12
ENDBRANCH   7  11
BRANCH   1  23
HETATM   23  C1  UNL     1      92.116  98.078 -41.578  1.00  0.00     0.095 C
HETATM   24  N1  UNL     1      92.557  99.036 -40.853  1.00  0.00    -0.390 N
ATOM     25  H12 UNL     1      93.040  98.838 -39.977  1.00  0.00     0.157 HD
ATOM     26  H11 UNL     1      92.436 100.006 -41.143  1.00  0.00     0.157 HD
HETATM   27  N2  UNL     1      92.285  96.730 -41.175  1.00  0.00    -0.087 NA
ENDBRANCH   1  23
TORSDOF 5
ENDMDL