MODEL 5
REMARK VINA RESULT: -6.232137880      2.414      3.109
REMARK  6 active torsions:
REMARK  status: ('A' for Active; 'I' for Inactive)
REMARK    1  A    between atoms: O1_1  and  C1_3
REMARK    2  A    between atoms: C1_3  and  C2_4
REMARK    3  A    between atoms: C2_4  and  N1_5
REMARK    4  A    between atoms: N1_5  and  C3_7
REMARK    5  A    between atoms: C10_14  and  N2_15
REMARK    6  A    between atoms: N3_18  and  C13_19
ROOT
HETATM    1  C1  UNL     1      91.714  91.566 -46.099  1.00  0.00     0.073 C
HETATM    2  C8  UNL     1      92.398  91.000 -47.333  1.00  0.00     0.041 C
HETATM    3  C9  UNL     1      91.268  90.683 -48.313  1.00  0.00     0.028 C
HETATM    4  C10 UNL     1      90.658  92.022 -48.671  1.00  0.00     0.088 C
HETATM    5  C21 UNL     1      90.102  92.737 -47.483  1.00  0.00     0.028 C
HETATM    6  C22 UNL     1      91.229  92.934 -46.462  1.00  0.00     0.041 C
ENDROOT
BRANCH   4   7
HETATM    7  N2  UNL     1      89.751  91.815 -49.744  1.00  0.00    -0.366 N
HETATM    8  C11 UNL     1      90.230  91.903 -51.043  1.00  0.00     0.083 C
HETATM    9  C12 UNL     1      89.603  91.012 -52.081  1.00  0.00     0.168 C
HETATM   10  N3  UNL     1      88.651  90.095 -51.529  1.00  0.00    -0.371 N
HETATM   11  C19 UNL     1      87.760  90.522 -50.455  1.00  0.00     0.168 C
HETATM   12  C20 UNL     1      88.467  91.371 -49.443  1.00  0.00     0.083 C
BRANCH  10  13
HETATM   13  C13 UNL     1      88.565  88.771 -52.003  1.00  0.00     0.030 A
HETATM   14  C14 UNL     1      88.082  88.451 -53.242  1.00  0.00     0.031 A
HETATM   15  C15 UNL     1      87.981  87.132 -53.708  1.00  0.00     0.026 A
HETATM   16  C16 UNL     1      88.375  86.081 -52.914  1.00  0.00     0.034 A
HETATM   17 CL1  UNL     1      88.261  84.415 -53.475  1.00  0.00    -0.084 Cl
HETATM   18  C17 UNL     1      88.861  86.390 -51.666  1.00  0.00     0.026 A
HETATM   19  C18 UNL     1      88.960  87.685 -51.210  1.00  0.00     0.031 A
ENDBRANCH  10  13
ENDBRANCH   4   7
BRANCH   1  20
HETATM   20  O1  UNL     1      90.605  90.767 -45.827  1.00  0.00    -0.388 OA
ATOM     21  H1  UNL     1      90.883  89.858 -45.817  1.00  0.00     0.210 HD
ENDBRANCH   1  20
BRANCH   1  22
HETATM   22  C2  UNL     1      92.638  91.533 -44.900  1.00  0.00     0.152 C
BRANCH  22  23
HETATM   23  N1  UNL     1      91.954  91.255 -43.683  1.00  0.00    -0.414 N
ATOM     24  H1  UNL     1      91.368  90.426 -43.580  1.00  0.00     0.153 HD
BRANCH  23  25
HETATM   25  C3  UNL     1      92.117  92.165 -42.635  1.00  0.00     0.076 C
HETATM   26  C4  UNL     1      91.815  93.611 -42.975  1.00  0.00     0.024 C
HETATM   27  C5  UNL     1      92.045  94.222 -41.584  1.00  0.00     0.002 C
HETATM   28  C6  UNL     1      93.296  93.524 -41.135  1.00  0.00     0.002 C
HETATM   29  C7  UNL     1      93.493  92.310 -42.052  1.00  0.00     0.024 C
ENDBRANCH  23  25
ENDBRANCH  22  23
ENDBRANCH   1  22
TORSDOF 6
ENDMDL