MODEL 1
REMARK VINA RESULT: -6.454806107      0.000      0.000
REMARK  5 active torsions:
REMARK  status: ('A' for Active; 'I' for Inactive)
REMARK    1  A    between atoms: N1_4  and  C4_5
REMARK    2  A    between atoms: C4_5  and  C5_6
REMARK    3  A    between atoms: C5_6  and  N2_7
REMARK    4  A    between atoms: N2_7  and  C6_9
REMARK    5  A    between atoms: N3_17  and  C14_18
ROOT
HETATM    1  C1  UNL     1      92.853 100.325 -44.586  1.00  0.00     0.034 C
HETATM    2  C2  UNL     1      92.359  98.953 -44.184  1.00  0.00     0.108 C
HETATM    3  C3  UNL     1      91.506  98.304 -45.192  1.00  0.00     0.297 C
HETATM    4  N1  UNL     1      91.047  97.012 -44.894  1.00  0.00     0.096 N
HETATM    5  C12 UNL     1      90.654  96.783 -43.539  1.00  0.00     0.292 C
HETATM    6  C13 UNL     1      91.341  97.580 -42.479  1.00  0.00     0.154 C
HETATM    7  N3  UNL     1      91.731  98.921 -42.897  1.00  0.00    -0.373 N
ENDROOT
BRANCH   4   8
HETATM    8  C4  UNL     1      91.864  95.905 -45.408  1.00  0.00     0.316 C
BRANCH   8   9
HETATM    9  C5  UNL     1      91.229  94.587 -45.057  1.00  0.00     0.085 C
BRANCH   9  10
HETATM   10  N2  UNL     1      91.980  93.473 -44.780  1.00  0.00    -0.396 N
ATOM     11  H2  UNL     1      91.900  92.717 -45.460  1.00  0.00     0.159 HD
BRANCH  10  12
HETATM   12  C6  UNL     1      92.830  93.223 -43.716  1.00  0.00     0.080 C
HETATM   13  C7  UNL     1      92.310  93.711 -42.399  1.00  0.00     0.025 C
HETATM   14  C8  UNL     1      93.047  93.117 -41.206  1.00  0.00     0.002 C
HETATM   15  C9  UNL     1      94.259  92.332 -41.580  1.00  0.00     0.000 C
HETATM   16  C10 UNL     1      93.977  91.267 -42.599  1.00  0.00     0.002 C
HETATM   17  C11 UNL     1      93.051  91.708 -43.674  1.00  0.00     0.025 C
ENDBRANCH  10  12
ENDBRANCH   9  10
ENDBRANCH   8   9
ENDBRANCH   4   8
BRANCH   7  18
HETATM   18  C14 UNL     1      91.474 100.020 -42.046  1.00  0.00     0.030 A
HETATM   19  C15 UNL     1      90.403 100.866 -42.167  1.00  0.00     0.030 A
HETATM   20  C16 UNL     1      90.268 101.917 -41.282  1.00  0.00     0.021 A
HETATM   21  C17 UNL     1      91.168 102.147 -40.275  1.00  0.00     0.011 A
HETATM   22 BR1  UNL     1      90.973 103.601 -39.043  1.00  0.00    -0.051 Br
HETATM   23  C18 UNL     1      92.252 101.304 -40.137  1.00  0.00     0.021 A
HETATM   24  C19 UNL     1      92.372 100.269 -41.026  1.00  0.00     0.030 A
ENDBRANCH   7  18
TORSDOF 5
ENDMDL