MODEL 3
REMARK VINA RESULT: -6.966085032      3.431      8.223
REMARK  7 active torsions:
REMARK  status: ('A' for Active; 'I' for Inactive)
REMARK    1  A    between atoms: C2_2  and  C3_3
REMARK    2  A    between atoms: C4_4  and  C5_5
REMARK    3  A    between atoms: C5_5  and  N1_6
REMARK    4  A    between atoms: C8_9  and  C9_10
REMARK    5  A    between atoms: C9_10  and  C10_11
REMARK    6  A    between atoms: C10_11  and  C12_13
REMARK    7  A    between atoms: C12_13  and  C13_14
ROOT
HETATM    1  C12 UNL     1      91.456  94.914 -41.114  1.00  0.00     0.065 C
ENDROOT
BRANCH   1   2
HETATM    2  C10 UNL     1      92.081  96.237 -41.632  1.00  0.00    -0.012 C
HETATM    3  C11 UNL     1      92.486  97.075 -40.462  1.00  0.00     0.010 C
BRANCH   2   4
HETATM    4  C9  UNL     1      91.082  96.958 -42.488  1.00  0.00     0.012 C
BRANCH   4   5
HETATM    5  C8  UNL     1      91.610  98.180 -43.159  1.00  0.00     0.023 C
HETATM    6  C7  UNL     1      91.679  97.963 -44.652  1.00  0.00     0.038 C
HETATM    7  C6  UNL     1      90.403  98.420 -45.325  1.00  0.00     0.274 C
HETATM    8  N1  UNL     1      90.235  99.821 -45.229  1.00  0.00     0.102 N
HETATM    9  C22 UNL     1      90.686 100.334 -43.990  1.00  0.00     0.311 C
HETATM   10  C21 UNL     1      90.684  99.345 -42.849  1.00  0.00     0.202 C
HETATM   11  F1  UNL     1      91.112 100.006 -41.723  1.00  0.00    -0.247 F
BRANCH   8  12
HETATM   12  C5  UNL     1      88.897 100.278 -45.491  1.00  0.00     0.365 C
BRANCH  12  13
HETATM   13  C4  UNL     1      87.921  99.333 -45.010  1.00  0.00    -0.076 C
HETATM   14  C3  UNL     1      87.097  98.568 -44.637  1.00  0.00    -0.105 C
BRANCH  14  15
HETATM   15  C2  UNL     1      86.034  97.624 -44.191  1.00  0.00     0.089 C
HETATM   16  C1  UNL     1      84.813  98.409 -43.764  1.00  0.00     0.018 C
ENDBRANCH  14  15
ENDBRANCH  12  13
ENDBRANCH   8  12
ENDBRANCH   4   5
ENDBRANCH   2   4
ENDBRANCH   1   2
BRANCH   1  17
HETATM   17  C13 UNL     1      91.740  93.941 -42.162  1.00  0.00     0.053 A
HETATM   18  N2  UNL     1      90.913  93.867 -43.264  1.00  0.00    -0.300 N
HETATM   19  N3  UNL     1      91.154  93.118 -44.305  1.00  0.00    -0.266 N
ATOM     20  H2  UNL     1      90.063  94.430 -43.265  1.00  0.00     0.186 HD
HETATM   21  C14 UNL     1      92.270  92.337 -44.377  1.00  0.00     0.268 A
ATOM     22  H3  UNL     1      90.493  93.117 -45.082  1.00  0.00     0.190 HD
HETATM   23  O1  UNL     1      92.533  91.605 -45.369  1.00  0.00    -0.266 OA
HETATM   24  C15 UNL     1      93.124  92.357 -43.333  1.00  0.00     0.040 A
HETATM   25  C16 UNL     1      92.857  93.169 -42.211  1.00  0.00     0.064 A
HETATM   26  C20 UNL     1      94.314  91.463 -43.461  1.00  0.00     0.047 C
HETATM   27  N4  UNL     1      93.624  93.201 -41.010  1.00  0.00    -0.388 N
HETATM   28  C17 UNL     1      94.971  92.680 -40.872  1.00  0.00     0.120 C
ATOM     29  H4  UNL     1      93.194  93.622 -40.186  1.00  0.00     0.159 HD
HETATM   30  C18 UNL     1      95.047  91.187 -41.050  1.00  0.00     0.020 C
HETATM   31  C19 UNL     1      94.289  90.627 -42.187  1.00  0.00     0.006 C
ENDBRANCH   1  17
TORSDOF 7
ENDMDL