MODEL 4
REMARK VINA RESULT: -7.630774012      8.303     11.267
REMARK  6 active torsions:
REMARK  status: ('A' for Active; 'I' for Inactive)
REMARK    1  A    between atoms: S1_2  and  N1_4
REMARK    2  A    between atoms: S1_2  and  C4_13
REMARK    3  A    between atoms: N1_4  and  C1_6
REMARK    4  A    between atoms: C7_16  and  N3_17
REMARK    5  A    between atoms: N3_17  and  C8_19
REMARK    6  A    between atoms: C8_19  and  C9_20
ROOT
HETATM    1  C4  UNL     1      91.366  98.653 -43.282  1.00  0.00     0.080 A
HETATM    2  C5  UNL     1      91.326  98.244 -44.596  1.00  0.00     0.027 A
HETATM    3  C6  UNL     1      91.298  96.881 -44.917  1.00  0.00     0.030 A
HETATM    4  C7  UNL     1      91.311  95.911 -43.946  1.00  0.00     0.028 A
HETATM    5  C17 UNL     1      91.352  96.355 -42.636  1.00  0.00     0.030 A
HETATM    6  C18 UNL     1      91.379  97.693 -42.320  1.00  0.00     0.027 A
ENDROOT
BRANCH   1   7
HETATM    7  S1  UNL     1      91.400 100.368 -42.938  1.00  0.00     0.264 S
HETATM    8  O1  UNL     1      90.472 101.113 -43.887  1.00  0.00    -0.200 OA
HETATM    9  O2  UNL     1      92.774 100.917 -43.192  1.00  0.00    -0.200 OA
BRANCH   7  10
HETATM   10  N1  UNL     1      90.941 100.664 -41.305  1.00  0.00    -0.260 N
ATOM     11  H1  UNL     1      90.004 100.451 -40.963  1.00  0.00     0.181 HD
BRANCH  10  12
HETATM   12  C1  UNL     1      91.865 101.180 -40.520  1.00  0.00     0.161 A
HETATM   13  N2  UNL     1      93.120 100.758 -40.364  1.00  0.00    -0.343 N
HETATM   14  C2  UNL     1      93.897 101.394 -39.539  1.00  0.00     0.140 A
ATOM     15  H2  UNL     1      93.464  99.951 -40.883  1.00  0.00     0.167 HD
HETATM   16  C3  UNL     1      93.378 102.472 -38.870  1.00  0.00     0.176 A
HETATM   17  F1  UNL     1      94.020 103.283 -37.958  1.00  0.00    -0.197 F
HETATM   18  S2  UNL     1      91.779 102.520 -39.466  1.00  0.00    -0.022 SA
ENDBRANCH  10  12
ENDBRANCH   7  10
ENDBRANCH   1   7
BRANCH   4  19
HETATM   19  N3  UNL     1      91.268  94.549 -44.277  1.00  0.00    -0.389 N
ATOM     20  H3  UNL     1      90.362  94.191 -44.577  1.00  0.00     0.159 HD
BRANCH  19  21
HETATM   21  C8  UNL     1      92.333  93.605 -44.248  1.00  0.00     0.129 C
BRANCH  21  22
HETATM   22  C9  UNL     1      92.268  92.679 -43.041  1.00  0.00     0.033 C
HETATM   23  C10 UNL     1      92.926  93.286 -41.866  1.00  0.00    -0.023 C
HETATM   24  C11 UNL     1      93.841  92.663 -41.169  1.00  0.00    -0.022 C
HETATM   25  C12 UNL     1      94.268  91.306 -41.522  1.00  0.00     0.031 C
HETATM   26  C13 UNL     1      95.088  91.427 -42.766  1.00  0.00    -0.022 C
HETATM   27  C16 UNL     1      93.036  90.570 -42.058  1.00  0.00     0.021 C
HETATM   28  C14 UNL     1      94.268  91.447 -43.810  1.00  0.00    -0.025 C
HETATM   29  C15 UNL     1      92.855  91.339 -43.348  1.00  0.00     0.018 C
ENDBRANCH  21  22
ENDBRANCH  19  21
ENDBRANCH   4  19
TORSDOF 6
ENDMDL