MODEL 1
REMARK VINA RESULT: -7.299872508      0.000      0.000
REMARK  6 active torsions:
REMARK  status: ('A' for Active; 'I' for Inactive)
REMARK       I    between atoms: C1_2  and  N1_3
REMARK    1  A    between atoms: C1_2  and  C8_12
REMARK    2  A    between atoms: N1_3  and  C2_5
REMARK    3  A    between atoms: C8_12  and  N2_13
REMARK    4  A    between atoms: C8_12  and  C14_25
REMARK    5  A    between atoms: N2_13  and  S1_15
REMARK    6  A    between atoms: S1_15  and  C9_18
ROOT
HETATM    1  C8  UNL     1      90.182  96.766 -44.516  1.00  0.00     0.189 C
ENDROOT
BRANCH   1   2
HETATM    2  C1  UNL     1      91.064  95.572 -44.355  1.00  0.00     0.245 C
HETATM    3  O1  UNL     1      91.680  95.184 -45.357  1.00  0.00    -0.271 OA
HETATM    4  N1  UNL     1      91.183  94.914 -43.115  1.00  0.00    -0.325 N
ATOM      5  H1  UNL     1      90.626  95.303 -42.354  1.00  0.00     0.169 HD
BRANCH   4   6
HETATM    6  C2  UNL     1      91.956  93.810 -42.789  1.00  0.00     0.034 A
HETATM    7  C3  UNL     1      92.522  93.721 -41.514  1.00  0.00     0.031 A
HETATM    8  C4  UNL     1      93.300  92.673 -41.101  1.00  0.00     0.026 A
HETATM    9  C5  UNL     1      93.555  91.640 -41.959  1.00  0.00     0.034 A
HETATM   10 CL1  UNL     1      94.555  90.306 -41.410  1.00  0.00    -0.084 Cl
HETATM   11  C6  UNL     1      93.024  91.681 -43.216  1.00  0.00     0.026 A
HETATM   12  C7  UNL     1      92.230  92.762 -43.622  1.00  0.00     0.031 A
ENDBRANCH   4   6
ENDBRANCH   1   2
BRANCH   1  13
HETATM   13  N2  UNL     1      90.263  97.199 -45.943  1.00  0.00    -0.301 N
ATOM     14  H2  UNL     1      91.104  97.582 -46.376  1.00  0.00     0.173 HD
BRANCH  13  15
HETATM   15  S1  UNL     1      88.792  96.983 -46.762  1.00  0.00     0.260 S
HETATM   16  O2  UNL     1      88.535  95.551 -47.163  1.00  0.00    -0.200 OA
HETATM   17  O3  UNL     1      88.788  97.844 -48.008  1.00  0.00    -0.200 OA
BRANCH  15  18
HETATM   18  C9  UNL     1      87.415  97.505 -45.814  1.00  0.00     0.094 A
HETATM   19  C10 UNL     1      87.167  98.799 -45.451  1.00  0.00     0.028 A
HETATM   20  C11 UNL     1      86.045  99.082 -44.694  1.00  0.00     0.019 A
HETATM   21  C12 UNL     1      85.188  98.054 -44.310  1.00  0.00     0.087 A
HETATM   22  N3  UNL     1      85.445  96.785 -44.675  1.00  0.00    -0.374 N
HETATM   23  C13 UNL     1      86.535  96.527 -45.409  1.00  0.00     0.112 A
ATOM     24  H3  UNL     1      84.818  96.030 -44.396  1.00  0.00     0.164 HD
ENDBRANCH  15  18
ENDBRANCH  13  15
ENDBRANCH   1  13
BRANCH   1  25
HETATM   25  C14 UNL     1      90.587  97.940 -43.671  1.00  0.00     0.018 C
HETATM   26  C15 UNL     1      89.421  98.361 -42.798  1.00  0.00     0.007 C
HETATM   27  C16 UNL     1      89.487  99.859 -42.534  1.00  0.00     0.000 C
HETATM   28  C17 UNL     1      90.904 100.299 -42.278  1.00  0.00     0.000 C
HETATM   29  C18 UNL     1      91.676 100.175 -43.575  1.00  0.00     0.000 C
HETATM   30  C19 UNL     1      91.117  99.068 -44.465  1.00  0.00     0.007 C
ENDBRANCH   1  25
TORSDOF 6
ENDMDL