MODEL 3
REMARK VINA RESULT: -6.428052191      5.388      9.009
REMARK  7 active torsions:
REMARK  status: ('A' for Active; 'I' for Inactive)
REMARK    1  A    between atoms: C2_2  and  C3_3
REMARK    2  A    between atoms: C2_2  and  C17_20
REMARK    3  A    between atoms: C3_3  and  C4_4
REMARK    4  A    between atoms: C9_10  and  C11_12
REMARK    5  A    between atoms: C17_20  and  O4_22
REMARK    6  A    between atoms: O4_22  and  C18_23
REMARK    7  A    between atoms: C18_23  and  C21_26
ROOT
HETATM    1  C4  UNL     1      90.624  96.120 -44.973  1.00  0.00    -0.005 C
HETATM    2  C5  UNL     1      89.563  95.736 -45.936  1.00  0.00     0.008 C
HETATM    3  C6  UNL     1      89.030  96.879 -46.762  1.00  0.00     0.038 C
HETATM    4  C7  UNL     1      88.613  98.061 -45.945  1.00  0.00     0.176 C
HETATM    5  F1  UNL     1      87.221  98.086 -45.851  1.00  0.00    -0.249 F
HETATM    6  C8  UNL     1      89.158  98.136 -44.557  1.00  0.00     0.047 C
HETATM    7  C9  UNL     1      89.089  99.541 -44.083  1.00  0.00     0.052 C
HETATM    8  C10 UNL     1      87.870 100.283 -44.698  1.00  0.00     0.027 C
HETATM    9  C12 UNL     1      90.247 100.420 -44.358  1.00  0.00     0.020 C
HETATM   10  C13 UNL     1      91.554  99.798 -44.649  1.00  0.00     0.002 C
HETATM   11  C14 UNL     1      91.515  98.416 -45.240  1.00  0.00     0.010 C
HETATM   12  C15 UNL     1      90.527  97.524 -44.456  1.00  0.00    -0.033 C
HETATM   13  C16 UNL     1      91.088  97.549 -43.064  1.00  0.00     0.016 C
ENDROOT
BRANCH   1  14
HETATM   14  C3  UNL     1      90.795  95.082 -43.932  1.00  0.00     0.019 C
BRANCH  14  15
HETATM   15  C2  UNL     1      91.494  93.826 -44.237  1.00  0.00     0.082 C
HETATM   16  C1  UNL     1      91.184  93.058 -45.453  1.00  0.00     0.020 C
BRANCH  15  17
HETATM   17  C17 UNL     1      91.285  92.900 -43.053  1.00  0.00     0.263 C
HETATM   18  O3  UNL     1      90.426  93.154 -42.179  1.00  0.00    -0.265 OA
BRANCH  17  19
HETATM   19  O4  UNL     1      92.035  91.764 -42.919  1.00  0.00    -0.301 OA
BRANCH  19  20
HETATM   20  C18 UNL     1      93.298  91.674 -42.341  1.00  0.00     0.141 C
HETATM   21  C19 UNL     1      94.427  91.909 -43.304  1.00  0.00     0.056 C
HETATM   22  C20 UNL     1      93.388  92.787 -41.289  1.00  0.00     0.056 C
BRANCH  20  23
HETATM   23  C21 UNL     1      93.522  90.368 -41.664  1.00  0.00     0.265 C
HETATM   24  N1  UNL     1      92.466  89.419 -41.634  1.00  0.00    -0.059 NA
HETATM   25  O5  UNL     1      94.620  90.073 -41.114  1.00  0.00    -0.273 OA
ENDBRANCH  20  23
ENDBRANCH  19  20
ENDBRANCH  17  19
ENDBRANCH  15  17
ENDBRANCH  14  15
ENDBRANCH   1  14
BRANCH   7  26
HETATM   26  C11 UNL     1      88.715  99.637 -42.623  1.00  0.00     0.182 C
HETATM   27  O1  UNL     1      87.835  98.860 -42.212  1.00  0.00    -0.647 OA
HETATM   28  O2  UNL     1      89.296 100.531 -41.761  1.00  0.00    -0.647 OA
ENDBRANCH   7  26
TORSDOF 7
ENDMDL