MODEL 1
REMARK VINA RESULT: -7.674602042      0.000      0.000
REMARK  6 active torsions:
REMARK  status: ('A' for Active; 'I' for Inactive)
REMARK    1  A    between atoms: C1_2  and  C2_3
REMARK       I    between atoms: C1_2  and  N1_9
REMARK    2  A    between atoms: C2_3  and  C3_4
REMARK    3  A    between atoms: N1_9  and  C8_11
REMARK    4  A    between atoms: N2_16  and  C12_17
REMARK    5  A    between atoms: C12_17  and  C13_18
REMARK       I    between atoms: C13_18  and  N3_20
REMARK    6  A    between atoms: N3_20  and  C14_22
ROOT
HETATM    1  C8  UNL     1      91.808  91.718 -43.559  1.00  0.00     0.105 A
HETATM    2  C9  UNL     1      93.052  91.334 -43.153  1.00  0.00     0.060 A
HETATM    3  C10 UNL     1      93.721  91.898 -42.058  1.00  0.00     0.052 A
HETATM    4 CL1  UNL     1      95.299  91.327 -41.651  1.00  0.00    -0.083 Cl
HETATM    5  C11 UNL     1      93.098  92.886 -41.354  1.00  0.00     0.118 A
HETATM    6  N2  UNL     1      91.852  93.301 -41.727  1.00  0.00    -0.312 N
HETATM    7  C20 UNL     1      91.242  92.744 -42.774  1.00  0.00     0.274 A
HETATM    8  O3  UNL     1      90.094  93.165 -43.083  1.00  0.00    -0.265 OA
ENDROOT
BRANCH   6   9
HETATM    9  C12 UNL     1      91.190  94.314 -40.960  1.00  0.00     0.234 C
BRANCH   9  10
HETATM   10  C13 UNL     1      91.471  95.654 -41.484  1.00  0.00     0.236 C
HETATM   11  O2  UNL     1      92.288  96.430 -40.865  1.00  0.00    -0.272 OA
HETATM   12  N3  UNL     1      90.897  96.166 -42.650  1.00  0.00    -0.355 N
ATOM     13  H3  UNL     1      90.233  95.602 -43.181  1.00  0.00     0.162 HD
BRANCH  12  14
HETATM   14  C14 UNL     1      91.252  97.525 -43.115  1.00  0.00     0.084 C
HETATM   15  C15 UNL     1      91.384  97.407 -44.638  1.00  0.00     0.025 C
HETATM   16  C16 UNL     1      91.214  98.755 -45.247  1.00  0.00     0.002 C
HETATM   17  C17 UNL     1      89.741  99.142 -45.151  1.00  0.00     0.000 C
HETATM   18  C18 UNL     1      89.152  98.553 -43.870  1.00  0.00     0.002 C
HETATM   19  C19 UNL     1      90.211  98.537 -42.781  1.00  0.00     0.025 C
ENDBRANCH  12  14
ENDBRANCH   9  10
ENDBRANCH   6   9
BRANCH   1  20
HETATM   20  N1  UNL     1      91.082  91.199 -44.630  1.00  0.00    -0.323 N
HETATM   21  C1  UNL     1      90.988  91.726 -45.921  1.00  0.00     0.222 C
HETATM   22  O1  UNL     1      91.545  92.750 -46.299  1.00  0.00    -0.273 OA
ATOM     23  H1  UNL     1      90.561  90.340 -44.452  1.00  0.00     0.169 HD
BRANCH  21  24
HETATM   24  C2  UNL     1      90.143  90.980 -46.915  1.00  0.00     0.107 C
BRANCH  24  25
HETATM   25  C3  UNL     1      90.378  91.498 -48.286  1.00  0.00    -0.006 C
HETATM   26  C4  UNL     1      90.882  90.431 -49.244  1.00  0.00     0.005 C
HETATM   27  C5  UNL     1      90.352  90.862 -50.610  1.00  0.00     0.000 C
HETATM   28  C6  UNL     1      89.433  92.034 -50.363  1.00  0.00     0.000 C
HETATM   29  C7  UNL     1      89.012  91.808 -48.918  1.00  0.00     0.005 C
ENDBRANCH  24  25
ENDBRANCH  21  24
ENDBRANCH   1  20
TORSDOF 6
ENDMDL