MODEL 3
REMARK VINA RESULT: -6.565165715      4.457      6.146
REMARK  6 active torsions:
REMARK  status: ('A' for Active; 'I' for Inactive)
REMARK    1  A    between atoms: C4_5  and  C5_6
REMARK    2  A    between atoms: C5_6  and  N1_7
REMARK    3  A    between atoms: N2_10  and  C8_11
REMARK    4  A    between atoms: C8_11  and  C9_12
REMARK    5  A    between atoms: C12_15  and  O1_16
REMARK    6  A    between atoms: O1_16  and  C13_17
ROOT
HETATM    1  C9  UNL     1      89.163  91.368 -48.164  1.00  0.00    -0.040 A
HETATM    2  C10 UNL     1      89.384  92.641 -47.729  1.00  0.00     0.011 A
HETATM    3  C11 UNL     1      90.198  92.881 -46.658  1.00  0.00     0.037 A
HETATM    4  C12 UNL     1      90.838  91.857 -45.960  1.00  0.00     0.069 A
HETATM    5  C18 UNL     1      90.585  90.586 -46.437  1.00  0.00     0.037 A
HETATM    6  C19 UNL     1      89.767  90.334 -47.514  1.00  0.00     0.011 A
ENDROOT
BRANCH   1   7
HETATM    7  C8  UNL     1      88.285  91.171 -49.320  1.00  0.00     0.166 C
BRANCH   7   8
HETATM    8  N2  UNL     1      88.816  91.447 -50.596  1.00  0.00    -0.360 N
HETATM    9  C7  UNL     1      88.261  92.492 -51.361  1.00  0.00     0.108 C
HETATM   10  C6  UNL     1      89.203  93.674 -51.333  1.00  0.00     0.108 C
HETATM   11  N1  UNL     1      90.439  93.301 -51.894  1.00  0.00    -0.360 N
HETATM   12  C21 UNL     1      91.002  92.058 -51.565  1.00  0.00     0.108 C
HETATM   13  C20 UNL     1      90.143  91.070 -50.873  1.00  0.00     0.108 C
BRANCH  11  14
HETATM   14  C5  UNL     1      90.721  93.832 -53.186  1.00  0.00     0.166 C
BRANCH  14  15
HETATM   15  C4  UNL     1      92.165  93.772 -53.508  1.00  0.00    -0.040 A
HETATM   16  C3  UNL     1      93.143  94.248 -52.667  1.00  0.00     0.010 A
HETATM   17  C2  UNL     1      94.483  94.188 -52.982  1.00  0.00     0.024 A
HETATM   18  C1  UNL     1      94.880  93.637 -54.172  1.00  0.00     0.034 A
HETATM   19 CL1  UNL     1      96.586  93.539 -54.616  1.00  0.00    -0.084 Cl
HETATM   20  C23 UNL     1      93.916  93.152 -55.034  1.00  0.00     0.024 A
HETATM   21  C22 UNL     1      92.595  93.224 -54.699  1.00  0.00     0.010 A
ENDBRANCH  14  15
ENDBRANCH  11  14
ENDBRANCH   7   8
ENDBRANCH   1   7
BRANCH   4  22
HETATM   22  O1  UNL     1      91.630  92.180 -44.906  1.00  0.00    -0.346 OA
BRANCH  22  23
HETATM   23  C13 UNL     1      91.320  92.231 -43.553  1.00  0.00     0.132 C
HETATM   24  C14 UNL     1      91.827  90.983 -42.863  1.00  0.00     0.060 C
HETATM   25  C15 UNL     1      93.288  91.002 -42.555  1.00  0.00     0.235 C
HETATM   26  N3  UNL     1      93.804  92.266 -42.137  1.00  0.00    -0.075 N
HETATM   27  C16 UNL     1      92.670  93.081 -41.705  1.00  0.00     0.235 C
ATOM     28  H32 UNL     1      94.529  92.184 -41.425  1.00  0.00     0.277 HD
ATOM     29  H31 UNL     1      94.370  92.720 -42.853  1.00  0.00     0.277 HD
HETATM   30  C17 UNL     1      91.943  93.479 -42.971  1.00  0.00     0.060 C
ENDBRANCH  22  23
ENDBRANCH   4  22
TORSDOF 6
ENDMDL