MODEL 1
REMARK VINA RESULT: -7.918340960      0.000      0.000
REMARK  6 active torsions:
REMARK  status: ('A' for Active; 'I' for Inactive)
REMARK    1  A    between atoms: C2_3  and  C3_4
REMARK    2  A    between atoms: C2_3  and  C7_12
REMARK    3  A    between atoms: C3_4  and  C4_5
REMARK    4  A    between atoms: C7_12  and  N4_13
REMARK    5  A    between atoms: C7_12  and  C19_27
REMARK       I    between atoms: N4_13  and  C8_15
REMARK    6  A    between atoms: C8_15  and  C9_17
ROOT
HETATM    1  N1  UNL     1      91.268  94.884 -41.469  1.00  0.00    -0.197 NA
HETATM    2  C1  UNL     1      91.474  94.186 -42.386  1.00  0.00     0.066 C
HETATM    3  C2  UNL     1      91.707  93.314 -43.535  1.00  0.00     0.125 C
ENDROOT
BRANCH   3   4
HETATM    4  C3  UNL     1      93.136  92.877 -43.536  1.00  0.00     0.080 C
BRANCH   4   5
HETATM    5  C4  UNL     1      93.330  91.661 -42.703  1.00  0.00     0.026 A
HETATM    6  C5  UNL     1      94.507  91.314 -42.039  1.00  0.00     0.114 A
HETATM    7  N2  UNL     1      94.309  90.152 -41.390  1.00  0.00    -0.360 N
HETATM    8  C6  UNL     1      93.046  89.753 -41.623  1.00  0.00     0.180 A
ATOM      9  H2  UNL     1      94.997  89.659 -40.821  1.00  0.00     0.166 HD
HETATM   10  N3  UNL     1      92.475  90.670 -42.412  1.00  0.00    -0.355 N
ATOM     11  H3  UNL     1      91.513  90.621 -42.748  1.00  0.00     0.166 HD
ENDBRANCH   4   5
ENDBRANCH   3   4
BRANCH   3  12
HETATM   12  C7  UNL     1      91.282  93.972 -44.826  1.00  0.00     0.135 C
BRANCH  12  13
HETATM   13  N4  UNL     1      90.398  95.086 -44.585  1.00  0.00    -0.350 N
HETATM   14  C8  UNL     1      90.733  96.414 -44.962  1.00  0.00     0.227 C
HETATM   15  O1  UNL     1      91.859  96.621 -45.533  1.00  0.00    -0.273 OA
ATOM     16  H4  UNL     1      89.502  94.914 -44.128  1.00  0.00     0.163 HD
BRANCH  14  17
HETATM   17  C9  UNL     1      89.842  97.566 -44.723  1.00  0.00     0.042 C
HETATM   18  C10 UNL     1      90.324  98.753 -45.483  1.00  0.00     0.024 C
HETATM   19  C11 UNL     1      89.387  99.910 -45.276  1.00  0.00    -0.013 C
HETATM   20  C12 UNL     1      89.433 100.289 -43.818  1.00  0.00     0.009 C
HETATM   21  C16 UNL     1      87.970  99.570 -45.655  1.00  0.00     0.009 C
HETATM   22  C13 UNL     1      88.998  99.095 -43.013  1.00  0.00    -0.013 C
HETATM   23  C14 UNL     1      87.576  98.722 -43.373  1.00  0.00     0.009 C
HETATM   24  C18 UNL     1      89.875  97.899 -43.248  1.00  0.00     0.024 C
HETATM   25  C15 UNL     1      87.518  98.362 -44.849  1.00  0.00    -0.013 C
HETATM   26  C17 UNL     1      88.439  97.223 -45.175  1.00  0.00     0.024 C
ENDBRANCH  14  17
ENDBRANCH  12  13
BRANCH  12  27
HETATM   27  C19 UNL     1      90.721  93.018 -45.795  1.00  0.00    -0.034 A
HETATM   28  C20 UNL     1      90.960  91.681 -45.646  1.00  0.00     0.012 A
HETATM   29  C21 UNL     1      90.440  90.791 -46.543  1.00  0.00     0.043 A
HETATM   30  C22 UNL     1      89.678  91.202 -47.603  1.00  0.00     0.116 A
HETATM   31  F1  UNL     1      89.161  90.317 -48.497  1.00  0.00    -0.206 F
HETATM   32  C23 UNL     1      89.416  92.551 -47.785  1.00  0.00     0.043 A
HETATM   33  C24 UNL     1      89.954  93.442 -46.860  1.00  0.00     0.012 A
ENDBRANCH  12  27
ENDBRANCH   3  12
TORSDOF 6
ENDMDL