MODEL 1
REMARK VINA RESULT: -6.657290554      0.000      0.000
REMARK  6 active torsions:
REMARK  status: ('A' for Active; 'I' for Inactive)
REMARK    1  A    between atoms: C1_2  and  C2_3
REMARK       I    between atoms: C1_2  and  N1_5
REMARK    2  A    between atoms: N1_5  and  C3_7
REMARK    3  A    between atoms: C7_11  and  N2_12
REMARK    4  A    between atoms: N2_12  and  C8_14
REMARK    5  A    between atoms: C11_17  and  C12_18
REMARK    6  A    between atoms: N3_21  and  C15_22
ROOT
HETATM    1  C8  UNL     1      91.790  94.755 -41.539  1.00  0.00     0.028 A
HETATM    2  C9  UNL     1      91.970  95.859 -40.753  1.00  0.00     0.029 A
HETATM    3  C10 UNL     1      91.648  97.151 -41.188  1.00  0.00     0.010 A
HETATM    4  C11 UNL     1      91.130  97.384 -42.433  1.00  0.00    -0.054 A
HETATM    5  C20 UNL     1      90.940  96.291 -43.240  1.00  0.00     0.010 A
HETATM    6  C21 UNL     1      91.253  95.033 -42.818  1.00  0.00     0.029 A
ENDROOT
BRANCH   1   7
HETATM    7  N2  UNL     1      92.080  93.419 -41.198  1.00  0.00    -0.383 N
ATOM      8  H2  UNL     1      91.464  92.979 -40.515  1.00  0.00     0.160 HD
BRANCH   7   9
HETATM    9  C7  UNL     1      93.129  92.624 -41.697  1.00  0.00     0.104 C
HETATM   10  C3  UNL     1      92.721  91.266 -42.200  1.00  0.00     0.107 C
HETATM   11  C4  UNL     1      93.844  90.308 -41.781  1.00  0.00     0.027 C
HETATM   12  C5  UNL     1      94.994  91.245 -41.541  1.00  0.00     0.004 C
HETATM   13  C6  UNL     1      94.310  92.397 -40.789  1.00  0.00     0.027 C
BRANCH  10  14
HETATM   14  N1  UNL     1      92.707  91.284 -43.681  1.00  0.00    -0.354 N
HETATM   15  C1  UNL     1      91.550  91.725 -44.363  1.00  0.00     0.231 C
HETATM   16  O1  UNL     1      90.534  92.100 -43.717  1.00  0.00    -0.272 OA
ATOM     17  H1  UNL     1      93.527  90.981 -44.206  1.00  0.00     0.163 HD
BRANCH  15  18
HETATM   18  C2  UNL     1      91.546  91.740 -45.843  1.00  0.00     0.217 C
HETATM   19 CL1  UNL     1      90.398  90.561 -46.506  1.00  0.00    -0.121 Cl
ENDBRANCH  15  18
ENDBRANCH  10  14
ENDBRANCH   7   9
ENDBRANCH   1   7
BRANCH   4  20
HETATM   20  C12 UNL     1      90.790  98.760 -42.887  1.00  0.00     0.022 C
HETATM   21  C13 UNL     1      91.397  98.933 -44.275  1.00  0.00     0.039 C
HETATM   22  C14 UNL     1      91.244 100.391 -44.732  1.00  0.00     0.273 C
HETATM   23  N3  UNL     1      89.981 100.841 -44.247  1.00  0.00     0.094 N
HETATM   24  C18 UNL     1      88.989  99.785 -44.173  1.00  0.00     0.273 C
HETATM   25  C19 UNL     1      89.304  99.009 -42.888  1.00  0.00     0.039 C
BRANCH  23  26
HETATM   26  C15 UNL     1      89.456 101.992 -44.894  1.00  0.00     0.241 C
HETATM   27  C16 UNL     1      87.973 102.013 -45.163  1.00  0.00     0.110 C
HETATM   28  S1  UNL     1      88.293 103.298 -46.432  1.00  0.00    -0.165 SA
HETATM   29  C17 UNL     1      89.727 102.159 -46.346  1.00  0.00     0.110 C
ENDBRANCH  23  26
ENDBRANCH   4  20
TORSDOF 6
ENDMDL