MODEL 3
REMARK VINA RESULT: -6.217454296      2.675      7.871
REMARK  6 active torsions:
REMARK  status: ('A' for Active; 'I' for Inactive)
REMARK    1  A    between atoms: C2_2  and  O1_3
REMARK    2  A    between atoms: O1_3  and  C3_4
REMARK    3  A    between atoms: C3_4  and  C4_6
REMARK    4  A    between atoms: C4_6  and  C5_7
REMARK    5  A    between atoms: C5_7  and  C6_8
REMARK    6  A    between atoms: C6_8  and  C7_9
ROOT
HETATM    1  C6  UNL     1      89.875  98.096 -44.253  1.00  0.00     0.039 C
HETATM    2  C8  UNL     1      90.442  97.971 -42.890  1.00  0.00     0.019 C
HETATM    3  C9  UNL     1      91.221  96.714 -42.606  1.00  0.00     0.001 C
HETATM    4  C10 UNL     1      91.388  96.623 -41.108  1.00  0.00     0.000 C
HETATM    5  C11 UNL     1      91.587  95.235 -40.601  1.00  0.00     0.000 C
HETATM    6  C12 UNL     1      92.624  94.440 -41.300  1.00  0.00     0.000 C
HETATM    7  C13 UNL     1      92.241  92.974 -41.216  1.00  0.00     0.000 C
HETATM    8  C14 UNL     1      91.425  92.578 -42.404  1.00  0.00     0.000 C
HETATM    9  C15 UNL     1      91.893  91.287 -43.032  1.00  0.00     0.009 C
HETATM   10  C16 UNL     1      92.487  91.535 -44.419  1.00  0.00     0.103 C
HETATM   11  C17 UNL     1      91.371  91.548 -45.377  1.00  0.00     0.217 C
HETATM   12  O4  UNL     1      90.520  90.605 -45.275  1.00  0.00    -0.274 OA
HETATM   13  N2  UNL     1      91.159  92.498 -46.383  1.00  0.00    -0.361 N
ATOM     14  H2  UNL     1      90.756  92.166 -47.259  1.00  0.00     0.162 HD
HETATM   15  C18 UNL     1      91.462  93.905 -46.288  1.00  0.00     0.122 C
HETATM   16  C19 UNL     1      90.224  94.708 -45.933  1.00  0.00     0.020 C
HETATM   17  C20 UNL     1      90.594  96.181 -45.733  1.00  0.00     0.003 C
HETATM   18  C21 UNL     1      89.489  96.813 -44.915  1.00  0.00     0.019 C
ENDROOT
BRANCH   1  19
HETATM   19  C5  UNL     1      88.647  98.985 -44.237  1.00  0.00     0.028 C
BRANCH  19  20
HETATM   20  C4  UNL     1      87.817  98.819 -43.002  1.00  0.00     0.112 C
BRANCH  20  21
HETATM   21  C3  UNL     1      86.368  98.848 -43.329  1.00  0.00     0.258 C
HETATM   22  O2  UNL     1      85.718  99.920 -43.420  1.00  0.00    -0.265 OA
BRANCH  21  23
HETATM   23  O1  UNL     1      85.639  97.677 -43.556  1.00  0.00    -0.322 OA
BRANCH  23  24
HETATM   24  C2  UNL     1      85.057  97.423 -44.832  1.00  0.00     0.174 C
HETATM   25  C1  UNL     1      85.922  96.466 -45.594  1.00  0.00     0.034 C
ENDBRANCH  23  24
ENDBRANCH  21  23
ENDBRANCH  20  21
ENDBRANCH  19  20
ENDBRANCH   1  19
BRANCH   1  26
HETATM   26  C7  UNL     1      90.873  98.829 -45.114  1.00  0.00     0.239 C
HETATM   27  N1  UNL     1      92.178  99.107 -44.650  1.00  0.00    -0.061 NA
HETATM   28  O3  UNL     1      90.546  99.199 -46.264  1.00  0.00    -0.276 OA
ENDBRANCH   1  26
TORSDOF 6
ENDMDL