MODEL 3
REMARK VINA RESULT: -6.790641751      2.259      2.613
REMARK  6 active torsions:
REMARK  status: ('A' for Active; 'I' for Inactive)
REMARK       I    between atoms: C1_2  and  N1_3
REMARK    1  A    between atoms: C1_2  and  C13_23
REMARK    2  A    between atoms: N1_3  and  C2_5
REMARK    3  A    between atoms: C5_8  and  C6_9
REMARK    4  A    between atoms: C6_9  and  N2_10
REMARK    5  A    between atoms: N2_10  and  S1_12
REMARK    6  A    between atoms: S1_12  and  C7_15
ROOT
HETATM    1  C2  UNL     1      90.709  91.786 -46.521  1.00  0.00     0.084 C
HETATM    2  C3  UNL     1      91.689  90.948 -47.313  1.00  0.00     0.026 C
HETATM    3  C4  UNL     1      90.881  89.831 -47.968  1.00  0.00     0.008 C
HETATM    4  C5  UNL     1      89.793  90.407 -48.846  1.00  0.00     0.004 C
HETATM    5  C11 UNL     1      89.008  91.508 -48.239  1.00  0.00     0.008 C
HETATM    6  C12 UNL     1      89.875  92.551 -47.558  1.00  0.00     0.026 C
ENDROOT
BRANCH   4   7
HETATM    7  C6  UNL     1      88.877  89.286 -49.262  1.00  0.00     0.136 C
BRANCH   7   8
HETATM    8  N2  UNL     1      89.265  87.988 -48.780  1.00  0.00    -0.315 N
ATOM      9  H2  UNL     1      89.683  87.777 -47.874  1.00  0.00     0.172 HD
BRANCH   8  10
HETATM   10  S1  UNL     1      88.888  86.839 -50.040  1.00  0.00     0.265 S
HETATM   11  O2  UNL     1      89.936  85.795 -50.070  1.00  0.00    -0.200 OA
HETATM   12  O3  UNL     1      88.739  87.507 -51.360  1.00  0.00    -0.200 OA
BRANCH  10  13
HETATM   13  C7  UNL     1      87.366  86.080 -49.567  1.00  0.00     0.121 A
HETATM   14  C8  UNL     1      86.501  86.476 -48.577  1.00  0.00     0.035 A
HETATM   15  C9  UNL     1      85.390  85.726 -48.403  1.00  0.00     0.033 A
HETATM   16  C10 UNL     1      85.229  84.648 -49.222  1.00  0.00     0.075 A
HETATM   17 CL1  UNL     1      83.897  83.491 -49.237  1.00  0.00    -0.076 Cl
HETATM   18  S2  UNL     1      86.612  84.696 -50.209  1.00  0.00    -0.064 SA
ENDBRANCH  10  13
ENDBRANCH   8  10
ENDBRANCH   7   8
ENDBRANCH   4   7
BRANCH   1  19
HETATM   19  N1  UNL     1      91.323  92.667 -45.583  1.00  0.00    -0.356 N
HETATM   20  C1  UNL     1      91.699  92.209 -44.302  1.00  0.00     0.222 C
HETATM   21  O1  UNL     1      91.476  91.001 -44.008  1.00  0.00    -0.273 OA
ATOM     22  H1  UNL     1      91.494  93.639 -45.842  1.00  0.00     0.162 HD
BRANCH  20  23
HETATM   23  C13 UNL     1      92.345  93.105 -43.294  1.00  0.00     0.078 C
HETATM   24  C14 UNL     1      93.226  92.231 -42.426  1.00  0.00     0.014 C
HETATM   25  C15 UNL     1      93.294  92.981 -41.132  1.00  0.00     0.001 C
HETATM   26  C16 UNL     1      92.228  94.034 -41.148  1.00  0.00     0.001 C
HETATM   27  C17 UNL     1      91.296  93.562 -42.273  1.00  0.00     0.014 C
ENDBRANCH  20  23
ENDBRANCH   1  19
TORSDOF 6
ENDMDL