MODEL 4
REMARK VINA RESULT: -7.470377238      4.466      8.353
REMARK  7 active torsions:
REMARK  status: ('A' for Active; 'I' for Inactive)
REMARK       I    between atoms: C1_2  and  N1_3
REMARK    1  A    between atoms: C1_2  and  C17_25
REMARK    2  A    between atoms: N1_3  and  C2_4
REMARK    3  A    between atoms: C2_4  and  C3_5
REMARK    4  A    between atoms: C2_4  and  C10_15
REMARK       I    between atoms: C3_5  and  N2_7
REMARK    5  A    between atoms: N2_7  and  C4_9
REMARK    6  A    between atoms: C10_15  and  O3_16
REMARK    7  A    between atoms: C10_15  and  C11_18
ROOT
HETATM    1  C2  UNL     1      90.277  90.461 -47.681  1.00  0.00     0.212 C
ENDROOT
BRANCH   1   2
HETATM    2  N1  UNL     1      90.607  89.164 -48.212  1.00  0.00    -0.357 NA
HETATM    3  C1  UNL     1      90.908  87.983 -48.695  1.00  0.00     0.333 C
HETATM    4  O1  UNL     1      91.991  87.316 -48.570  1.00  0.00    -0.250 OA
BRANCH   3   5
HETATM    5  C17 UNL     1      89.864  87.266 -49.515  1.00  0.00     0.087 A
HETATM    6  C18 UNL     1      89.023  87.783 -50.447  1.00  0.00     0.026 A
HETATM    7  C19 UNL     1      88.167  86.958 -51.050  1.00  0.00     0.009 A
HETATM    8  C20 UNL     1      88.208  85.635 -50.676  1.00  0.00     0.051 A
HETATM    9  S1  UNL     1      89.440  85.603 -49.500  1.00  0.00    -0.095 SA
ENDBRANCH   3   5
ENDBRANCH   1   2
BRANCH   1  10
HETATM   10  C3  UNL     1      91.234  90.874 -46.679  1.00  0.00     0.285 C
HETATM   11  O2  UNL     1      92.473  90.820 -47.010  1.00  0.00    -0.265 OA
HETATM   12  N2  UNL     1      90.990  91.326 -45.358  1.00  0.00    -0.350 N
ATOM     13  H2  UNL     1      90.014  91.376 -45.068  1.00  0.00     0.163 HD
BRANCH  12  14
HETATM   14  C4  UNL     1      91.955  91.714 -44.399  1.00  0.00     0.084 C
HETATM   15  C5  UNL     1      91.857  90.941 -43.095  1.00  0.00     0.025 C
HETATM   16  C6  UNL     1      93.097  91.294 -42.301  1.00  0.00     0.002 C
HETATM   17  C7  UNL     1      92.927  92.682 -41.745  1.00  0.00     0.000 C
HETATM   18  C8  UNL     1      91.900  93.411 -42.531  1.00  0.00     0.002 C
HETATM   19  C9  UNL     1      91.994  93.164 -44.043  1.00  0.00     0.025 C
ENDBRANCH  12  14
ENDBRANCH   1  10
BRANCH   1  20
HETATM   20  C10 UNL     1      89.804  91.346 -48.744  1.00  0.00     0.122 C
BRANCH  20  21
HETATM   21  O3  UNL     1      90.770  91.631 -49.621  1.00  0.00    -0.357 OA
ATOM     22  H3  UNL     1      91.634  91.473 -49.258  1.00  0.00     0.218 HD
ENDBRANCH  20  21
BRANCH  20  23
HETATM   23  C11 UNL     1      88.577  91.975 -49.072  1.00  0.00     0.001 A
HETATM   24  C12 UNL     1      87.495  91.250 -49.593  1.00  0.00     0.016 A
HETATM   25  C13 UNL     1      86.299  91.749 -49.983  1.00  0.00     0.024 A
HETATM   26  C14 UNL     1      86.097  93.134 -49.861  1.00  0.00     0.034 A
HETATM   27 CL1  UNL     1      84.573  93.851 -50.343  1.00  0.00    -0.084 Cl
HETATM   28  C15 UNL     1      87.122  93.872 -49.360  1.00  0.00     0.024 A
HETATM   29  C16 UNL     1      88.346  93.332 -48.967  1.00  0.00     0.016 A
ENDBRANCH  20  23
ENDBRANCH   1  20
TORSDOF 7
ENDMDL