MODEL 5
REMARK VINA RESULT: -5.926086571      1.271      2.470
REMARK  6 active torsions:
REMARK  status: ('A' for Active; 'I' for Inactive)
REMARK    1  A    between atoms: C2_2  and  C3_3
REMARK    2  A    between atoms: C3_3  and  C5_5
REMARK    3  A    between atoms: C5_5  and  N1_6
REMARK    4  A    between atoms: C5_5  and  C18_23
REMARK       I    between atoms: N1_6  and  C6_8
REMARK    5  A    between atoms: C6_8  and  O2_10
REMARK    6  A    between atoms: O2_10  and  C7_11
ROOT
HETATM    1  O2  UNL     1      90.985  96.638 -42.355  1.00  0.00    -0.298 OA
ENDROOT
BRANCH   1   2
HETATM    2  C6  UNL     1      91.259  95.302 -42.014  1.00  0.00     0.361 C
HETATM    3  N1  UNL     1      91.500  94.341 -43.020  1.00  0.00    -0.322 N
ATOM      4  H1  UNL     1      91.481  94.596 -44.008  1.00  0.00     0.165 HD
HETATM    5  O1  UNL     1      91.270  95.050 -40.790  1.00  0.00    -0.238 OA
BRANCH   3   6
HETATM    6  C5  UNL     1      91.781  92.952 -42.597  1.00  0.00     0.191 C
BRANCH   6   7
HETATM    7  C3  UNL     1      93.250  92.815 -42.312  1.00  0.00     0.014 C
HETATM    8  C4  UNL     1      94.030  92.296 -43.491  1.00  0.00     0.012 C
BRANCH   7   9
HETATM    9  C2  UNL     1      93.475  91.893 -41.148  1.00  0.00     0.002 C
HETATM   10  C1  UNL     1      94.224  90.628 -41.520  1.00  0.00     0.005 C
ENDBRANCH   7   9
ENDBRANCH   6   7
BRANCH   6  11
HETATM   11  C18 UNL     1      91.261  92.107 -43.670  1.00  0.00     0.197 C
HETATM   12  O3  UNL     1      90.740  92.630 -44.720  1.00  0.00    -0.646 OA
HETATM   13  O4  UNL     1      91.265  90.721 -43.686  1.00  0.00    -0.646 OA
ENDBRANCH   6  11
ENDBRANCH   3   6
ENDBRANCH   1   2
BRANCH   1  14
HETATM   14  C7  UNL     1      91.051  97.069 -43.704  1.00  0.00     0.142 C
HETATM   15  C8  UNL     1      89.644  97.473 -44.098  1.00  0.00     0.017 C
HETATM   16  C9  UNL     1      89.579  97.977 -45.514  1.00  0.00     0.012 C
HETATM   17  C17 UNL     1      89.206  98.561 -43.151  1.00  0.00     0.028 C
HETATM   18  C10 UNL     1      90.530  99.140 -45.663  1.00  0.00    -0.012 C
HETATM   19  C11 UNL     1      91.920  98.682 -45.320  1.00  0.00     0.012 C
HETATM   20  C16 UNL     1      90.038 100.254 -44.782  1.00  0.00     0.026 C
HETATM   21  C12 UNL     1      91.963  98.241 -43.858  1.00  0.00     0.021 C
HETATM   22  C13 UNL     1      91.522  99.430 -43.041  1.00  0.00     0.007 C
HETATM   23  C14 UNL     1      91.816  99.286 -41.583  1.00  0.00     0.012 C
HETATM   24  C15 UNL     1      90.092  99.761 -43.333  1.00  0.00     0.022 C
HETATM   25 BR1  UNL     1      89.497 101.145 -42.121  1.00  0.00    -0.085 Br
ENDBRANCH   1  14
TORSDOF 6
ENDMDL