MODEL 2
REMARK VINA RESULT: -7.284622372      6.265     10.868
REMARK  7 active torsions:
REMARK  status: ('A' for Active; 'I' for Inactive)
REMARK    1  A    between atoms: C2_2  and  C4_4
REMARK    2  A    between atoms: C4_4  and  C5_5
REMARK    3  A    between atoms: C6_6  and  O1_7
REMARK    4  A    between atoms: C12_16  and  N1_17
REMARK    5  A    between atoms: N1_17  and  C13_19
REMARK    6  A    between atoms: C13_19  and  C14_20
REMARK    7  A    between atoms: C14_20  and  C15_21
ROOT
HETATM    1  C5  UNL     1      89.470  88.729 -50.312  1.00  0.00     0.042 C
HETATM    2  C6  UNL     1      88.861  89.420 -51.466  1.00  0.00     0.126 C
HETATM    3  C7  UNL     1      87.839  90.324 -50.802  1.00  0.00     0.040 C
HETATM    4  C8  UNL     1      88.383  90.733 -49.459  1.00  0.00     0.022 C
HETATM    5  C9  UNL     1      88.570  92.190 -49.283  1.00  0.00     0.132 C
HETATM    6  C10 UNL     1      88.801  92.916 -50.629  1.00  0.00     0.040 C
HETATM    7  O2  UNL     1      89.462  92.688 -48.406  1.00  0.00    -0.314 OA
HETATM    8  C11 UNL     1      90.530  92.502 -47.570  1.00  0.00     0.281 C
HETATM    9  O3  UNL     1      91.281  93.522 -47.445  1.00  0.00    -0.263 OA
HETATM   10  C12 UNL     1      90.965  91.329 -46.788  1.00  0.00     0.177 C
HETATM   11  C20 UNL     1      91.427  90.243 -47.722  1.00  0.00     0.035 C
HETATM   12  C21 UNL     1      90.874  90.330 -49.127  1.00  0.00     0.008 C
HETATM   13  C22 UNL     1      89.492  89.808 -49.221  1.00  0.00     0.002 C
ENDROOT
BRANCH  10  14
HETATM   14  N1  UNL     1      91.853  91.557 -45.725  1.00  0.00    -0.408 N
ATOM     15  H1  UNL     1      92.847  91.374 -45.869  1.00  0.00     0.154 HD
BRANCH  14  16
HETATM   16  C13 UNL     1      91.431  92.024 -44.483  1.00  0.00     0.119 C
BRANCH  16  17
HETATM   17  C14 UNL     1      92.340  93.195 -44.069  1.00  0.00     0.055 C
BRANCH  17  18
HETATM   18  C15 UNL     1      93.243  92.797 -42.956  1.00  0.00    -0.061 A
HETATM   19  C16 UNL     1      93.225  93.331 -41.752  1.00  0.00     0.014 A
HETATM   20 CL1  UNL     1      92.123  94.612 -41.245  1.00  0.00    -0.089 Cl
HETATM   21  C17 UNL     1      94.279  92.781 -40.880  1.00  0.00     0.052 A
HETATM   22  C18 UNL     1      94.962  91.724 -41.694  1.00  0.00     0.010 A
HETATM   23  C19 UNL     1      94.304  91.747 -43.035  1.00  0.00     0.036 A
ENDBRANCH  17  18
ENDBRANCH  16  17
ENDBRANCH  14  16
ENDBRANCH  10  14
BRANCH   1  24
HETATM   24  C4  UNL     1      88.678  87.526 -49.795  1.00  0.00    -0.013 C
BRANCH  24  25
HETATM   25  C2  UNL     1      89.202  86.516 -49.339  1.00  0.00    -0.075 C
HETATM   26  C1  UNL     1      89.793  85.354 -48.812  1.00  0.00     0.018 C
HETATM   27  C3  UNL     1      87.641  86.155 -48.404  1.00  0.00     0.047 C
ENDBRANCH  24  25
ENDBRANCH   1  24
BRANCH   2  28
HETATM   28  O1  UNL     1      88.295  88.675 -52.452  1.00  0.00    -0.395 OA
ATOM     29  H1  UNL     1      88.389  88.960 -53.353  1.00  0.00     0.210 HD
ENDBRANCH   2  28
TORSDOF 7
ENDMDL