MODEL 2
REMARK VINA RESULT: -7.712298187      1.352      1.821
REMARK  5 active torsions:
REMARK  status: ('A' for Active; 'I' for Inactive)
REMARK    1  A    between atoms: C2_2  and  N1_3
REMARK    2  A    between atoms: C2_2  and  C14_20
REMARK    3  A    between atoms: N1_3  and  C3_5
REMARK    4  A    between atoms: C6_8  and  C7_9
REMARK    5  A    between atoms: C17_23  and  C18_24
ROOT
HETATM    1  N1  UNL     1      90.968  91.927 -49.510  1.00  0.00    -0.382 N
ATOM      2  H1  UNL     1      91.784  92.052 -50.110  1.00  0.00     0.160 HD
ENDROOT
BRANCH   1   3
HETATM    3  C2  UNL     1      89.670  91.689 -50.113  1.00  0.00     0.111 C
HETATM    4  C1  UNL     1      89.787  92.040 -51.558  1.00  0.00     0.037 C
BRANCH   3   5
HETATM    5  C14 UNL     1      89.319  90.271 -49.847  1.00  0.00    -0.036 A
HETATM    6  C15 UNL     1      90.156  89.213 -50.099  1.00  0.00     0.010 A
HETATM    7  C16 UNL     1      89.747  87.908 -49.806  1.00  0.00     0.010 A
HETATM    8  C17 UNL     1      88.514  87.630 -49.262  1.00  0.00    -0.023 A
HETATM    9  C23 UNL     1      87.686  88.705 -49.015  1.00  0.00     0.010 A
HETATM   10  C24 UNL     1      88.059  89.997 -49.292  1.00  0.00     0.010 A
BRANCH   8  11
HETATM   11  C18 UNL     1      88.092  86.217 -48.958  1.00  0.00     0.279 C
HETATM   12  C19 UNL     1      89.352  85.413 -48.788  1.00  0.00     0.208 C
HETATM   13  O1  UNL     1      89.100  84.037 -48.891  1.00  0.00    -0.387 OA
HETATM   14  C20 UNL     1      88.791  83.843 -50.256  1.00  0.00     0.198 C
HETATM   15  C21 UNL     1      87.479  84.470 -50.535  1.00  0.00     0.299 C
HETATM   16  N3  UNL     1      87.204  85.723 -49.942  1.00  0.00     0.097 N
HETATM   17  C22 UNL     1      85.817  85.697 -49.461  1.00  0.00     0.310 C
ENDBRANCH   8  11
ENDBRANCH   3   5
ENDBRANCH   1   3
BRANCH   1  18
HETATM   18  C3  UNL     1      91.123  91.992 -48.081  1.00  0.00     0.028 A
HETATM   19  C4  UNL     1      91.874  91.020 -47.448  1.00  0.00     0.029 A
HETATM   20  C5  UNL     1      92.054  91.018 -46.068  1.00  0.00     0.011 A
HETATM   21  C6  UNL     1      91.480  91.996 -45.302  1.00  0.00    -0.028 A
HETATM   22  C12 UNL     1      90.733  92.967 -45.916  1.00  0.00     0.011 A
HETATM   23  C13 UNL     1      90.559  92.959 -47.303  1.00  0.00     0.029 A
BRANCH  21  24
HETATM   24  C7  UNL     1      91.650  92.021 -43.838  1.00  0.00     0.219 C
HETATM   25  C8  UNL     1      91.158  93.315 -43.296  1.00  0.00     0.041 C
HETATM   26  C9  UNL     1      91.967  93.995 -42.277  1.00  0.00     0.041 C
HETATM   27  C10 UNL     1      93.349  93.506 -42.044  1.00  0.00     0.195 C
HETATM   28  F1  UNL     1      93.749  93.820 -40.756  1.00  0.00    -0.248 F
HETATM   29  C11 UNL     1      93.360  91.995 -42.160  1.00  0.00     0.270 C
HETATM   30  N2  UNL     1      93.033  91.733 -43.557  1.00  0.00    -0.064 N
ATOM     31  H22 UNL     1      93.279  90.780 -43.826  1.00  0.00     0.278 HD
ATOM     32  H21 UNL     1      93.655  92.239 -44.187  1.00  0.00     0.278 HD
ENDBRANCH  21  24
ENDBRANCH   1  18
TORSDOF 5
ENDMDL