MODEL 5
REMARK VINA RESULT: -6.684249908      5.537     11.639
REMARK  7 active torsions:
REMARK  status: ('A' for Active; 'I' for Inactive)
REMARK    1  A    between atoms: C1_2  and  O1_3
REMARK    2  A    between atoms: O1_3  and  C2_4
REMARK    3  A    between atoms: C7_9  and  C8_10
REMARK    4  A    between atoms: C9_11  and  C10_12
REMARK    5  A    between atoms: C13_15  and  C14_16
REMARK    6  A    between atoms: C14_16  and  N1_17
REMARK    7  A    between atoms: N1_17  and  C15_19
ROOT
HETATM    1  C10 UNL     1      91.057  94.607 -45.019  1.00  0.00     0.018 A
HETATM    2  C11 UNL     1      91.588  93.467 -44.436  1.00  0.00     0.021 A
HETATM    3  C12 UNL     1      91.594  92.269 -45.118  1.00  0.00     0.010 A
HETATM    4  C13 UNL     1      91.076  92.160 -46.395  1.00  0.00    -0.041 A
HETATM    5  C20 UNL     1      90.551  93.302 -46.963  1.00  0.00     0.010 A
HETATM    6  C21 UNL     1      90.539  94.515 -46.289  1.00  0.00     0.021 A
ENDROOT
BRANCH   1   7
HETATM    7  C9  UNL     1      91.048  95.869 -44.314  1.00  0.00    -0.061 C
HETATM    8  C8  UNL     1      91.055  96.913 -43.712  1.00  0.00    -0.060 C
BRANCH   8   9
HETATM    9  C7  UNL     1      91.081  98.144 -42.978  1.00  0.00     0.034 A
HETATM   10  C6  UNL     1      90.199  99.187 -43.207  1.00  0.00     0.035 A
HETATM   11  C5  UNL     1      90.232 100.365 -42.493  1.00  0.00    -0.008 A
HETATM   12  C4  UNL     1      89.353 101.387 -42.731  1.00  0.00     0.016 A
HETATM   13  C23 UNL     1      91.185 100.509 -41.507  1.00  0.00     0.045 A
HETATM   14  C3  UNL     1      89.392 102.580 -42.000  1.00  0.00     0.038 A
HETATM   15  C2  UNL     1      90.349 102.697 -41.026  1.00  0.00     0.078 A
HETATM   16  C24 UNL     1      91.257 101.660 -40.770  1.00  0.00     0.067 A
HETATM   17  N3  UNL     1      92.054  99.475 -41.284  1.00  0.00    -0.364 N
HETATM   18  C22 UNL     1      92.011  98.331 -41.990  1.00  0.00     0.109 A
ATOM     19  H3  UNL     1      92.761  99.577 -40.555  1.00  0.00     0.165 HD
BRANCH  15  20
HETATM   20  O1  UNL     1      90.450 103.832 -40.269  1.00  0.00    -0.311 OA
BRANCH  20  21
HETATM   21  C1  UNL     1      91.381 104.053 -39.271  1.00  0.00     0.226 C
HETATM   22 CL1  UNL     1      90.835 103.681 -37.631  1.00  0.00    -0.070 Cl
ENDBRANCH  20  21
ENDBRANCH  15  20
ENDBRANCH   8   9
ENDBRANCH   1   7
BRANCH   4  23
HETATM   23  C14 UNL     1      91.098  90.856 -47.108  1.00  0.00     0.153 C
BRANCH  23  24
HETATM   24  N1  UNL     1      91.693  91.045 -48.391  1.00  0.00    -0.412 N
ATOM     25  H1  UNL     1      92.579  91.536 -48.512  1.00  0.00     0.153 HD
BRANCH  24  26
HETATM   26  C15 UNL     1      90.970  90.504 -49.492  1.00  0.00     0.102 C
HETATM   27  C16 UNL     1      89.596  90.008 -49.142  1.00  0.00     0.028 C
HETATM   28  C17 UNL     1      88.550  91.098 -49.243  1.00  0.00     0.029 C
HETATM   29  C18 UNL     1      88.587  91.788 -50.586  1.00  0.00     0.232 C
HETATM   30  N2  UNL     1      89.740  91.330 -51.373  1.00  0.00    -0.073 N
HETATM   31  C19 UNL     1      90.907  91.572 -50.576  1.00  0.00     0.256 C
ATOM     32  H22 UNL     1      89.658  90.362 -51.682  1.00  0.00     0.277 HD
ATOM     33  H21 UNL     1      89.791  91.756 -52.299  1.00  0.00     0.277 HD
ENDBRANCH  24  26
ENDBRANCH  23  24
ENDBRANCH   4  23
TORSDOF 7
ENDMDL