MODEL 2
REMARK VINA RESULT: -8.317814241      0.824      1.125
REMARK  7 active torsions:
REMARK  status: ('A' for Active; 'I' for Inactive)
REMARK    1  A    between atoms: O1_2  and  C2_3
REMARK    2  A    between atoms: C7_9  and  N1_10
REMARK    3  A    between atoms: N1_10  and  C8_12
REMARK    4  A    between atoms: C10_14  and  C11_15
REMARK    5  A    between atoms: C14_18  and  O2_19
REMARK    6  A    between atoms: C17_24  and  N3_25
REMARK    7  A    between atoms: N3_25  and  C18_27
ROOT
HETATM    1  C8  UNL     1      90.819  95.440 -45.697  1.00  0.00     0.123 A
HETATM    2  C9  UNL     1      90.528  94.505 -46.664  1.00  0.00     0.079 A
HETATM    3  C10 UNL     1      90.696  93.149 -46.452  1.00  0.00     0.059 A
HETATM    4  N2  UNL     1      91.162  92.784 -45.245  1.00  0.00    -0.191 N
ATOM      5  H2  UNL     1      91.301  91.793 -45.046  1.00  0.00     0.184 HD
HETATM    6  C17 UNL     1      91.455  93.703 -44.277  1.00  0.00     0.680 A
HETATM    7  N4  UNL     1      91.288  95.015 -44.493  1.00  0.00    -0.177 N
ATOM      8  H4  UNL     1      91.512  95.689 -43.761  1.00  0.00     0.186 HD
ENDROOT
BRANCH   1   9
HETATM    9  N1  UNL     1      90.663  96.713 -45.894  1.00  0.00    -0.340 N
ATOM     10  H1  UNL     1      91.315  97.207 -46.504  1.00  0.00     0.167 HD
BRANCH   9  11
HETATM   11  C7  UNL     1      89.604  97.432 -45.278  1.00  0.00     0.069 A
HETATM   12  C2  UNL     1      89.893  98.191 -44.164  1.00  0.00     0.095 A
HETATM   13  C3  UNL     1      88.859  98.889 -43.570  1.00  0.00     0.041 A
HETATM   14  C4  UNL     1      87.561  98.831 -44.076  1.00  0.00     0.026 A
HETATM   15  C5  UNL     1      87.269  98.072 -45.191  1.00  0.00     0.036 A
HETATM   16 CL1  UNL     1      85.636  98.010 -45.815  1.00  0.00    -0.084 Cl
HETATM   17  C6  UNL     1      88.308  97.380 -45.776  1.00  0.00     0.056 A
BRANCH  12  18
HETATM   18  O1  UNL     1      91.192  98.255 -43.650  1.00  0.00    -0.354 OA
HETATM   19  C1  UNL     1      91.392  97.951 -42.285  1.00  0.00     0.210 C
ENDBRANCH  12  18
ENDBRANCH   9  11
ENDBRANCH   1   9
BRANCH   3  20
HETATM   20  C11 UNL     1      90.380  92.170 -47.484  1.00  0.00    -0.032 C
HETATM   21  C12 UNL     1      89.675  92.410 -48.577  1.00  0.00    -0.015 C
HETATM   22  C13 UNL     1      89.558  91.174 -49.393  1.00  0.00     0.060 C
HETATM   23  C14 UNL     1      89.900  90.094 -48.430  1.00  0.00     0.128 C
HETATM   24  C16 UNL     1      90.814  90.750 -47.451  1.00  0.00     0.072 C
BRANCH  23  25
HETATM   25  O2  UNL     1      90.427  88.958 -49.014  1.00  0.00    -0.390 OA
HETATM   26  C15 UNL     1      91.675  88.610 -48.581  1.00  0.00     0.202 C
ENDBRANCH  23  25
ENDBRANCH   3  20
BRANCH   6  27
HETATM   27  N3  UNL     1      91.900  93.327 -43.135  1.00  0.00    -0.221 N
ATOM     28  H3  UNL     1      91.212  93.053 -42.433  1.00  0.00     0.178 HD
BRANCH  27  29
HETATM   29  C18 UNL     1      93.273  93.258 -42.764  1.00  0.00     0.099 C
HETATM   30  C19 UNL     1      93.518  93.284 -41.276  1.00  0.00     0.026 C
HETATM   31  C20 UNL     1      94.450  92.128 -40.963  1.00  0.00     0.002 C
HETATM   32  C21 UNL     1      94.987  91.676 -42.289  1.00  0.00     0.002 C
HETATM   33  C22 UNL     1      93.815  91.905 -43.204  1.00  0.00     0.026 C
ENDBRANCH  27  29
ENDBRANCH   6  27
TORSDOF 7
ENDMDL