MODEL 5
REMARK VINA RESULT: -7.230043207      4.414      6.724
REMARK  7 active torsions:
REMARK  status: ('A' for Active; 'I' for Inactive)
REMARK    1  A    between atoms: C4_5  and  O1_6
REMARK    2  A    between atoms: O1_6  and  C5_7
REMARK    3  A    between atoms: C8_10  and  C9_11
REMARK    4  A    between atoms: C9_11  and  N1_12
REMARK    5  A    between atoms: N1_12  and  C10_14
REMARK    6  A    between atoms: C13_19  and  N3_20
REMARK    7  A    between atoms: N3_20  and  C14_22
ROOT
HETATM    1  N1  UNL     1      91.827  91.146 -47.070  1.00  0.00    -0.222 N
ATOM      2  H1  UNL     1      92.827  91.335 -47.130  1.00  0.00     0.178 HD
ENDROOT
BRANCH   1   3
HETATM    3  C9  UNL     1      91.096  91.356 -45.835  1.00  0.00     0.176 C
BRANCH   3   4
HETATM    4  C8  UNL     1      91.187  92.791 -45.471  1.00  0.00    -0.040 A
HETATM    5  C7  UNL     1      90.862  93.741 -46.419  1.00  0.00     0.011 A
HETATM    6  C6  UNL     1      90.933  95.085 -46.124  1.00  0.00     0.038 A
HETATM    7  C5  UNL     1      91.329  95.522 -44.877  1.00  0.00     0.076 A
HETATM    8  C20 UNL     1      91.658  94.583 -43.921  1.00  0.00     0.038 A
HETATM    9  C19 UNL     1      91.584  93.233 -44.226  1.00  0.00     0.011 A
BRANCH   7  10
HETATM   10  O1  UNL     1      91.417  96.861 -44.530  1.00  0.00    -0.311 OA
BRANCH  10  11
HETATM   11  C4  UNL     1      90.313  97.638 -44.232  1.00  0.00     0.076 A
HETATM   12  C3  UNL     1      90.279  98.373 -43.068  1.00  0.00     0.039 A
HETATM   13  C2  UNL     1      89.184  99.147 -42.768  1.00  0.00     0.026 A
HETATM   14  C1  UNL     1      88.083  99.219 -43.608  1.00  0.00     0.034 A
HETATM   15 CL1  UNL     1      86.680 100.200 -43.239  1.00  0.00    -0.084 Cl
HETATM   16  C22 UNL     1      88.136  98.475 -44.771  1.00  0.00     0.026 A
HETATM   17  C21 UNL     1      89.231  97.698 -45.078  1.00  0.00     0.039 A
ENDBRANCH  10  11
ENDBRANCH   7  10
ENDBRANCH   3   4
ENDBRANCH   1   3
BRANCH   1  18
HETATM   18  C10 UNL     1      91.167  90.710 -48.092  1.00  0.00     0.679 A
HETATM   19  N2  UNL     1      91.228  91.436 -49.240  1.00  0.00    -0.202 N
HETATM   20  C11 UNL     1      90.559  91.028 -50.336  1.00  0.00     0.110 A
ATOM     21  H2  UNL     1      91.782  92.291 -49.271  1.00  0.00     0.183 HD
HETATM   22  C12 UNL     1      89.797  89.866 -50.322  1.00  0.00     0.066 A
HETATM   23  C13 UNL     1      89.743  89.149 -49.168  1.00  0.00     0.122 A
HETATM   24  N4  UNL     1      90.431  89.596 -48.088  1.00  0.00    -0.177 N
ATOM     25  H4  UNL     1      90.384  89.052 -47.226  1.00  0.00     0.186 HD
BRANCH  23  26
HETATM   26  N3  UNL     1      89.073  88.056 -49.022  1.00  0.00    -0.344 N
ATOM     27  H3  UNL     1      88.256  88.084 -48.411  1.00  0.00     0.167 HD
BRANCH  26  28
HETATM   28  C14 UNL     1      89.378  86.834 -49.635  1.00  0.00     0.030 C
HETATM   29  C15 UNL     1      89.954  85.872 -48.933  1.00  0.00     0.003 C
HETATM   30  C16 UNL     1      90.311  84.547 -49.504  1.00  0.00     0.055 C
HETATM   31  C17 UNL     1      90.182  84.515 -50.991  1.00  0.00     0.172 C
HETATM   32  O2  UNL     1      90.149  85.770 -51.563  1.00  0.00    -0.385 OA
HETATM   33  C18 UNL     1      89.087  86.544 -51.071  1.00  0.00     0.224 C
ENDBRANCH  26  28
ENDBRANCH  23  26
ENDBRANCH   1  18
TORSDOF 7
ENDMDL