MODEL 3
REMARK VINA RESULT: -5.896358307      2.508      4.710
REMARK  7 active torsions:
REMARK  status: ('A' for Active; 'I' for Inactive)
REMARK    1  A    between atoms: C3_3  and  C4_4
REMARK    2  A    between atoms: C4_4  and  O1_5
REMARK    3  A    between atoms: C4_4  and  C5_7
REMARK    4  A    between atoms: C4_4  and  C11_13
REMARK    5  A    between atoms: N1_14  and  C12_15
REMARK    6  A    between atoms: C12_15  and  C13_16
REMARK    7  A    between atoms: C20_27  and  C22_29
ROOT
HETATM    1  C1  UNL     1      85.600  96.925 -45.493  1.00  0.00     0.112 C
HETATM    2  C2  UNL     1      86.968  97.392 -45.485  1.00  0.00    -0.107 C
HETATM    3  C3  UNL     1      88.126  97.810 -45.475  1.00  0.00    -0.062 C
ENDROOT
BRANCH   3   4
HETATM    4  C4  UNL     1      89.535  98.364 -45.471  1.00  0.00     0.166 C
BRANCH   4   5
HETATM    5  O1  UNL     1      90.182  97.578 -46.415  1.00  0.00    -0.371 OA
ATOM      6  H1  UNL     1      91.080  97.565 -46.105  1.00  0.00     0.212 HD
ENDBRANCH   4   5
BRANCH   4   7
HETATM    7  C5  UNL     1      89.315  99.664 -46.122  1.00  0.00     0.039 C
HETATM    8  C6  UNL     1      89.334  99.693 -47.633  1.00  0.00     0.009 C
HETATM    9  C7  UNL     1      89.908 101.050 -48.085  1.00  0.00     0.001 C
HETATM   10  C8  UNL     1      89.098 102.164 -47.524  1.00  0.00     0.000 C
HETATM   11  C9  UNL     1      88.840 102.072 -46.046  1.00  0.00     0.001 C
HETATM   12  C10 UNL     1      88.361 100.663 -45.652  1.00  0.00     0.009 C
ENDBRANCH   4   7
BRANCH   4  13
HETATM   13  C11 UNL     1      90.073  98.161 -44.156  1.00  0.00     0.071 C
HETATM   14  N1  UNL     1      91.135  97.182 -44.006  1.00  0.00    -0.297 N
HETATM   15  C19 UNL     1      91.176  97.109 -42.539  1.00  0.00     0.195 C
HETATM   16  N2  UNL     1      91.639  96.002 -41.745  1.00  0.00    -0.063 NA
HETATM   17  N3  UNL     1      90.749  98.194 -42.035  1.00  0.00    -0.349 N
HETATM   18  C20 UNL     1      90.377  99.125 -43.141  1.00  0.00     0.075 C
ATOM     19  H3  UNL     1      90.672  98.395 -41.038  1.00  0.00     0.163 HD
HETATM   20  C21 UNL     1      89.176  99.787 -42.426  1.00  0.00     0.046 C
BRANCH  14  21
HETATM   21  C12 UNL     1      92.011  96.382 -44.750  1.00  0.00     0.111 C
BRANCH  21  22
HETATM   22  C13 UNL     1      91.749  94.954 -44.960  1.00  0.00    -0.020 A
HETATM   23  C14 UNL     1      91.022  94.585 -46.090  1.00  0.00     0.016 A
HETATM   24  C15 UNL     1      90.695  93.292 -46.386  1.00  0.00     0.043 A
HETATM   25  C16 UNL     1      91.090  92.298 -45.548  1.00  0.00     0.116 A
HETATM   26  F1  UNL     1      90.766  91.018 -45.844  1.00  0.00    -0.206 F
HETATM   27  C17 UNL     1      91.814  92.648 -44.419  1.00  0.00     0.043 A
HETATM   28  C18 UNL     1      92.130  93.942 -44.141  1.00  0.00     0.016 A
ENDBRANCH  21  22
ENDBRANCH  14  21
BRANCH  18  29
HETATM   29  C22 UNL     1      91.484 100.079 -43.108  1.00  0.00     0.011 C
HETATM   30  C23 UNL     1      90.912 101.475 -42.746  1.00  0.00     0.012 C
HETATM   31  C24 UNL     1      92.392 100.280 -44.241  1.00  0.00     0.012 C
ENDBRANCH  18  29
ENDBRANCH   4  13
ENDBRANCH   3   4
TORSDOF 7
ENDMDL