MODEL 4
REMARK VINA RESULT: -7.327950342      7.371     10.036
REMARK  5 active torsions:
REMARK  status: ('A' for Active; 'I' for Inactive)
REMARK    1  A    between atoms: C10_10  and  C11_11
REMARK       I    between atoms: C11_11  and  N1_13
REMARK    2  A    between atoms: N1_13  and  C12_15
REMARK    3  A    between atoms: C12_15  and  C13_16
REMARK       I    between atoms: C13_16  and  N2_18
REMARK    4  A    between atoms: N2_18  and  C14_20
REMARK    5  A    between atoms: C17_23  and  N3_24
ROOT
HETATM    1  C11 UNL     1      88.361  99.111 -43.417  1.00  0.00     0.227 C
HETATM    2  O1  UNL     1      88.104  99.709 -42.310  1.00  0.00    -0.273 OA
HETATM    3  N1  UNL     1      89.701  98.640 -43.558  1.00  0.00    -0.352 N
ATOM      4  H1  UNL     1      89.924  98.152 -44.425  1.00  0.00     0.162 HD
ENDROOT
BRANCH   3   5
HETATM    5  C12 UNL     1      90.749  98.778 -42.622  1.00  0.00     0.225 C
BRANCH   5   6
HETATM    6  C13 UNL     1      91.450  97.505 -42.217  1.00  0.00     0.239 C
HETATM    7  O2  UNL     1      92.269  97.648 -41.280  1.00  0.00    -0.271 OA
HETATM    8  N2  UNL     1      91.211  96.282 -42.818  1.00  0.00    -0.324 N
ATOM      9  H2  UNL     1      90.517  96.253 -43.566  1.00  0.00     0.169 HD
BRANCH   8  10
HETATM   10  C14 UNL     1      91.857  95.056 -42.477  1.00  0.00     0.056 A
HETATM   11  C15 UNL     1      92.404  94.782 -41.272  1.00  0.00     0.034 A
HETATM   12  C16 UNL     1      93.019  93.549 -41.036  1.00  0.00     0.038 A
HETATM   13  C17 UNL     1      93.108  92.565 -41.983  1.00  0.00     0.104 A
HETATM   14  C18 UNL     1      92.542  92.868 -43.206  1.00  0.00     0.062 A
HETATM   15  C19 UNL     1      91.938  94.054 -43.466  1.00  0.00     0.063 A
HETATM   16 CL1  UNL     1      91.236  94.368 -45.053  1.00  0.00    -0.082 Cl
BRANCH  13  17
HETATM   17  N3  UNL     1      93.728  91.314 -41.756  1.00  0.00    -0.116 N
HETATM   18  O3  UNL     1      94.940  91.275 -41.529  1.00  0.00    -0.532 OA
HETATM   19  O4  UNL     1      92.996  90.170 -41.788  1.00  0.00    -0.532 OA
ENDBRANCH  13  17
ENDBRANCH   8  10
ENDBRANCH   5   6
ENDBRANCH   3   5
BRANCH   1  20
HETATM   20  C10 UNL     1      87.316  98.952 -44.430  1.00  0.00     0.045 C
HETATM   21  C2  UNL     1      86.912 100.175 -45.165  1.00  0.00     0.003 C
HETATM   22  C1  UNL     1      87.989 100.959 -45.821  1.00  0.00     0.011 C
HETATM   23  C3  UNL     1      85.861  99.800 -46.188  1.00  0.00    -0.009 C
HETATM   24  C4  UNL     1      84.631  99.330 -45.484  1.00  0.00     0.010 C
HETATM   25  C8  UNL     1      86.314  98.736 -47.137  1.00  0.00     0.010 C
HETATM   26  C5  UNL     1      84.984  98.071 -44.727  1.00  0.00    -0.013 C
HETATM   27  C6  UNL     1      85.474  96.974 -45.634  1.00  0.00     0.009 C
HETATM   28  C20 UNL     1      86.060  98.412 -43.734  1.00  0.00     0.024 C
HETATM   29  C7  UNL     1      86.678  97.476 -46.363  1.00  0.00    -0.013 C
HETATM   30  C9  UNL     1      87.768  97.871 -45.392  1.00  0.00     0.024 C
ENDBRANCH   1  20
TORSDOF 5
ENDMDL