MODEL 5
REMARK VINA RESULT: -7.110014062      3.929      5.582
REMARK  6 active torsions:
REMARK  status: ('A' for Active; 'I' for Inactive)
REMARK    1  A    between atoms: N1_1  and  C1_5
REMARK    2  A    between atoms: C3_7  and  N2_8
REMARK       I    between atoms: N2_8  and  C4_10
REMARK    3  A    between atoms: C4_10  and  C5_12
REMARK    4  A    between atoms: C8_15  and  O2_16
REMARK    5  A    between atoms: O2_16  and  C9_17
REMARK    6  A    between atoms: C14_22  and  C15_23
ROOT
HETATM    1  N2  UNL     1      90.314  96.942 -44.358  1.00  0.00    -0.346 N
ATOM      2  H2  UNL     1      89.518  96.398 -44.026  1.00  0.00     0.163 HD
HETATM    3  C4  UNL     1      91.268  96.275 -45.191  1.00  0.00     0.252 C
HETATM    4  O1  UNL     1      92.295  96.821 -45.651  1.00  0.00    -0.268 OA
ENDROOT
BRANCH   1   5
HETATM    5  C3  UNL     1      90.389  98.298 -43.960  1.00  0.00     0.048 C
HETATM    6  C2  UNL     1      90.704  99.185 -45.149  1.00  0.00     0.068 C
HETATM    7  C1  UNL     1      89.565  99.404 -46.085  1.00  0.00     0.219 C
HETATM    8  C22 UNL     1      88.285  99.742 -45.376  1.00  0.00     0.201 C
HETATM    9  C21 UNL     1      88.054  98.859 -44.200  1.00  0.00     0.047 C
HETATM   10  F1  UNL     1      87.222  99.499 -46.266  1.00  0.00    -0.247 F
HETATM   11  C20 UNL     1      89.222  98.847 -43.237  1.00  0.00     0.026 C
HETATM   12  C19 UNL     1      89.539 100.229 -42.793  1.00  0.00     0.081 C
HETATM   13  S1  UNL     1      91.298 100.059 -42.304  1.00  0.00    -0.166 SA
HETATM   14  C18 UNL     1      91.605  98.406 -43.035  1.00  0.00     0.105 C
BRANCH   7  15
HETATM   15  N1  UNL     1      89.287  98.328 -46.985  1.00  0.00    -0.072 N
ATOM     16  H13 UNL     1      88.328  98.005 -46.856  1.00  0.00     0.274 HD
ATOM     17  H12 UNL     1      89.232  98.680 -47.942  1.00  0.00     0.274 HD
ATOM     18  H11 UNL     1      89.929  97.537 -46.942  1.00  0.00     0.274 HD
ENDBRANCH   7  15
ENDBRANCH   1   5
BRANCH   3  19
HETATM   19  C5  UNL     1      91.098  94.877 -45.561  1.00  0.00     0.038 A
HETATM   20  C6  UNL     1      90.479  94.562 -46.741  1.00  0.00     0.020 A
HETATM   21  C7  UNL     1      90.343  93.267 -47.185  1.00  0.00     0.038 A
HETATM   22  C8  UNL     1      90.847  92.197 -46.426  1.00  0.00     0.069 A
HETATM   23  C13 UNL     1      91.468  92.507 -45.240  1.00  0.00     0.045 A
HETATM   24  C14 UNL     1      91.590  93.836 -44.817  1.00  0.00    -0.036 A
BRANCH  22  25
HETATM   25  O2  UNL     1      90.717  90.918 -46.859  1.00  0.00    -0.346 OA
BRANCH  25  26
HETATM   26  C9  UNL     1      90.706  90.552 -48.203  1.00  0.00     0.129 C
HETATM   27  C10 UNL     1      91.544  89.291 -48.394  1.00  0.00     0.032 C
HETATM   28  C11 UNL     1      90.403  88.736 -49.211  1.00  0.00     0.005 C
HETATM   29  C12 UNL     1      89.463  89.697 -48.544  1.00  0.00     0.032 C
ENDBRANCH  25  26
ENDBRANCH  22  25
BRANCH  24  30
HETATM   30  C15 UNL     1      92.225  94.132 -43.523  1.00  0.00     0.020 A
HETATM   31  C16 UNL     1      92.749  93.042 -42.675  1.00  0.00     0.010 A
HETATM   32  C17 UNL     1      91.515  93.828 -42.250  1.00  0.00     0.010 A
ENDBRANCH  24  30
ENDBRANCH   3  19
TORSDOF 6
ENDMDL