MODEL 3
REMARK VINA RESULT: -6.846066522      2.322      3.521
REMARK  8 active torsions:
REMARK  status: ('A' for Active; 'I' for Inactive)
REMARK    1  A    between atoms: O1_2  and  C2_3
REMARK    2  A    between atoms: C2_3  and  C3_5
REMARK    3  A    between atoms: C3_5  and  O3_6
REMARK    4  A    between atoms: O3_6  and  C4_7
REMARK    5  A    between atoms: C6_9  and  N1_10
REMARK    6  A    between atoms: N1_10  and  C7_12
REMARK    7  A    between atoms: C7_12  and  N2_14
REMARK    8  A    between atoms: N2_14  and  C8_16
ROOT
HETATM    1  N1  UNL     1      90.326  90.385 -47.081  1.00  0.00    -0.333 N
ATOM      2  H1  UNL     1      89.770  89.788 -46.469  1.00  0.00     0.168 HD
ENDROOT
BRANCH   1   3
HETATM    3  C6  UNL     1      90.648  91.670 -46.623  1.00  0.00     0.037 A
HETATM    4  C5  UNL     1      91.377  91.748 -45.426  1.00  0.00     0.068 A
HETATM    5  C4  UNL     1      91.682  92.979 -44.894  1.00  0.00     0.093 A
HETATM    6  C20 UNL     1      91.301  94.169 -45.486  1.00  0.00     0.067 A
HETATM    7  C19 UNL     1      90.590  94.090 -46.653  1.00  0.00     0.029 A
HETATM    8 CL1  UNL     1      91.728  95.710 -44.749  1.00  0.00    -0.081 Cl
HETATM    9  C18 UNL     1      90.278  92.866 -47.195  1.00  0.00     0.031 A
BRANCH   5  10
HETATM   10  O3  UNL     1      92.405  93.088 -43.707  1.00  0.00    -0.340 OA
BRANCH  10  11
HETATM   11  C3  UNL     1      91.716  92.929 -42.496  1.00  0.00     0.286 C
BRANCH  11  12
HETATM   12  C2  UNL     1      92.185  93.920 -41.509  1.00  0.00     0.282 C
HETATM   13  O2  UNL     1      93.372  93.902 -41.086  1.00  0.00    -0.263 OA
BRANCH  12  14
HETATM   14  O1  UNL     1      91.363  94.915 -40.995  1.00  0.00    -0.325 OA
HETATM   15  C1  UNL     1      91.840  96.243 -40.854  1.00  0.00     0.213 C
ENDBRANCH  12  14
ENDBRANCH  11  12
ENDBRANCH  10  11
ENDBRANCH   5  10
ENDBRANCH   1   3
BRANCH   1  16
HETATM   16  C7  UNL     1      90.712  89.862 -48.314  1.00  0.00     0.172 C
HETATM   17  S1  UNL     1      92.234  89.251 -48.415  1.00  0.00    -0.041 SA
BRANCH  16  18
HETATM   18  N2  UNL     1      89.879  89.830 -49.433  1.00  0.00    -0.358 N
ATOM     19  H2  UNL     1      89.536  88.910 -49.713  1.00  0.00     0.162 HD
BRANCH  18  20
HETATM   20  C8  UNL     1      89.445  90.940 -50.239  1.00  0.00     0.033 C
HETATM   21  C9  UNL     1      89.003  90.330 -51.609  1.00  0.00     0.035 C
HETATM   22  C10 UNL     1      88.572  91.448 -52.492  1.00  0.00    -0.012 C
HETATM   23  C11 UNL     1      87.344  92.074 -51.850  1.00  0.00     0.009 C
HETATM   24  C15 UNL     1      89.585  92.514 -52.734  1.00  0.00     0.009 C
HETATM   25  C12 UNL     1      87.718  92.678 -50.537  1.00  0.00    -0.012 C
HETATM   26  C13 UNL     1      88.837  93.710 -50.659  1.00  0.00     0.009 C
HETATM   27  C17 UNL     1      88.269  91.607 -49.613  1.00  0.00     0.035 C
HETATM   28  C14 UNL     1      89.991  93.072 -51.364  1.00  0.00    -0.012 C
HETATM   29  C16 UNL     1      90.533  91.886 -50.592  1.00  0.00     0.035 C
ENDBRANCH  18  20
ENDBRANCH  16  18
ENDBRANCH   1  16
TORSDOF 8
ENDMDL