MODEL 4
REMARK VINA RESULT: -7.760970593      1.439      1.728
REMARK  5 active torsions:
REMARK  status: ('A' for Active; 'I' for Inactive)
REMARK       I    between atoms: C1_2  and  N1_3
REMARK    1  A    between atoms: C1_2  and  C13_19
REMARK    2  A    between atoms: N1_3  and  C2_5
REMARK    3  A    between atoms: C5_8  and  N2_9
REMARK    4  A    between atoms: N2_9  and  C6_12
REMARK    5  A    between atoms: N3_23  and  C17_24
ROOT
HETATM    1  O1  UNL     1      90.148  96.289 -46.604  1.00  0.00    -0.273 OA
HETATM    2  C1  UNL     1      90.842  95.776 -45.713  1.00  0.00     0.223 C
HETATM    3  N1  UNL     1      91.241  96.551 -44.602  1.00  0.00    -0.356 N
ATOM      4  H1  UNL     1      91.812  96.132 -43.868  1.00  0.00     0.162 HD
ENDROOT
BRANCH   2   5
HETATM    5  C13 UNL     1      91.252  94.371 -45.795  1.00  0.00     0.096 C
HETATM    6  C14 UNL     1      90.499  93.645 -46.902  1.00  0.00     0.017 C
HETATM    7  C15 UNL     1      91.054  92.275 -47.041  1.00  0.00     0.021 C
HETATM    8  C16 UNL     1      91.099  91.494 -45.754  1.00  0.00     0.124 C
HETATM    9  N3  UNL     1      91.461  92.320 -44.620  1.00  0.00    -0.366 N
HETATM   10  C22 UNL     1      90.874  93.624 -44.503  1.00  0.00     0.138 C
BRANCH   9  11
HETATM   11  C17 UNL     1      92.374  91.847 -43.637  1.00  0.00     0.104 A
HETATM   12  C18 UNL     1      92.048  90.986 -42.618  1.00  0.00     0.048 A
HETATM   13  C19 UNL     1      92.990  90.543 -41.680  1.00  0.00     0.007 A
HETATM   14  C20 UNL     1      94.297  90.976 -41.764  1.00  0.00     0.042 A
HETATM   15  C21 UNL     1      94.593  91.839 -42.797  1.00  0.00     0.104 A
HETATM   16 CL1  UNL     1      96.268  92.381 -42.892  1.00  0.00    -0.065 Cl
HETATM   17  N4  UNL     1      93.680  92.252 -43.685  1.00  0.00    -0.333 N
ATOM     18  H4  UNL     1      93.969  92.892 -44.424  1.00  0.00     0.168 HD
ENDBRANCH   9  11
ENDBRANCH   2   5
BRANCH   3  19
HETATM   19  C2  UNL     1      90.840  97.951 -44.503  1.00  0.00     0.084 C
HETATM   20  C3  UNL     1      90.636  98.206 -43.030  1.00  0.00     0.027 C
HETATM   21  C4  UNL     1      90.730  99.628 -42.615  1.00  0.00     0.035 C
HETATM   22  C5  UNL     1      91.775 100.430 -43.354  1.00  0.00     0.186 C
HETATM   23  C11 UNL     1      92.724  99.407 -43.970  1.00  0.00     0.035 C
HETATM   24  C12 UNL     1      91.951  98.759 -45.105  1.00  0.00     0.027 C
BRANCH  22  25
HETATM   25  N2  UNL     1      92.475 101.315 -42.475  1.00  0.00    -0.067 N
ATOM     26  H22 UNL     1      93.424 100.987 -42.295  1.00  0.00     0.278 HD
ATOM     27  H21 UNL     1      92.696 102.198 -42.935  1.00  0.00     0.278 HD
BRANCH  25  28
HETATM   28  C6  UNL     1      91.754 101.526 -41.253  1.00  0.00     0.186 C
HETATM   29  C7  UNL     1      91.362 102.972 -41.078  1.00  0.00     0.033 C
HETATM   30  C8  UNL     1      92.726 103.609 -40.875  1.00  0.00     0.002 C
HETATM   31  C9  UNL     1      93.493 102.574 -40.043  1.00  0.00     0.002 C
HETATM   32  C10 UNL     1      92.639 101.321 -40.037  1.00  0.00     0.033 C
ENDBRANCH  25  28
ENDBRANCH  22  25
ENDBRANCH   3  19
TORSDOF 5
ENDMDL