MODEL 2
REMARK VINA RESULT: -7.953723851      1.798      2.717
REMARK  10 active torsions:
REMARK  status: ('A' for Active; 'I' for Inactive)
REMARK    1  A    between atoms: N1_1  and  C1_4
REMARK    2  A    between atoms: N4_13  and  C5_14
REMARK    3  A    between atoms: C5_14  and  C6_15
REMARK    4  A    between atoms: C6_15  and  N5_16
REMARK    5  A    between atoms: N5_16  and  C7_17
REMARK    6  A    between atoms: N5_16  and  C13_23
REMARK    7  A    between atoms: C16_26  and  O2_27
REMARK    8  A    between atoms: O2_27  and  C17_28
REMARK    9  A    between atoms: C17_28  and  C18_29
REMARK   10  A    between atoms: C24_35  and  O3_36
ROOT
HETATM    1  N5  UNL     1     -56.829   8.057  -2.518  1.00  0.00    -0.345 N
ENDROOT
BRANCH   1   2
HETATM    2  C6  UNL     1     -57.483   9.035  -1.706  1.00  0.00     0.149 C
BRANCH   2   3
HETATM    3  C5  UNL     1     -56.641   9.651  -0.620  1.00  0.00     0.151 C
BRANCH   3   4
HETATM    4  N4  UNL     1     -56.564   8.759   0.525  1.00  0.00    -0.325 N
HETATM    5  C4  UNL     1     -57.478   8.486   1.451  1.00  0.00     0.185 A
HETATM    6  N3  UNL     1     -56.940   7.593   2.336  1.00  0.00    -0.345 N
HETATM    7  C3  UNL     1     -55.688   7.319   1.947  1.00  0.00     0.147 A
ATOM      8  H3  UNL     1     -57.412   7.202   3.151  1.00  0.00     0.167 HD
HETATM    9  C2  UNL     1     -54.703   6.497   2.473  1.00  0.00     0.290 A
HETATM   10  C26 UNL     1     -55.424   8.049   0.794  1.00  0.00     0.156 A
HETATM   11  N2  UNL     1     -53.525   6.445   1.831  1.00  0.00    -0.154 N
HETATM   12  O1  UNL     1     -54.880   5.814   3.510  1.00  0.00    -0.265 OA
HETATM   13  C1  UNL     1     -53.294   7.169   0.704  1.00  0.00     0.680 A
ATOM     14  H2  UNL     1     -52.785   5.847   2.199  1.00  0.00     0.187 HD
HETATM   15  N6  UNL     1     -54.228   7.959   0.193  1.00  0.00    -0.174 N
ATOM     16  H6  UNL     1     -54.038   8.495  -0.653  1.00  0.00     0.186 HD
BRANCH  13  17
HETATM   17  N1  UNL     1     -52.136   7.068   0.130  1.00  0.00    -0.234 N
ATOM     18  H12 UNL     1     -51.508   7.870   0.092  1.00  0.00     0.174 HD
ATOM     19  H11 UNL     1     -51.874   6.172  -0.282  1.00  0.00     0.174 HD
ENDBRANCH  13  17
ENDBRANCH   3   4
ENDBRANCH   2   3
ENDBRANCH   1   2
BRANCH   1  20
HETATM   20  C7  UNL     1     -57.250   6.727  -2.744  1.00  0.00     0.034 A
HETATM   21  C8  UNL     1     -57.380   6.197  -4.009  1.00  0.00     0.029 A
HETATM   22  C9  UNL     1     -57.816   4.895  -4.237  1.00  0.00     0.002 A
HETATM   23  C10 UNL     1     -58.134   4.099  -3.155  1.00  0.00     0.000 A
HETATM   24  C11 UNL     1     -58.017   4.598  -1.864  1.00  0.00     0.002 A
HETATM   25  C12 UNL     1     -57.583   5.887  -1.665  1.00  0.00     0.029 A
ENDBRANCH   1  20
BRANCH   1  26
HETATM   26  C13 UNL     1     -55.640   8.490  -3.200  1.00  0.00     0.037 A
HETATM   27  C14 UNL     1     -55.570   9.491  -4.110  1.00  0.00     0.032 A
HETATM   28  C15 UNL     1     -54.368   9.820  -4.748  1.00  0.00     0.042 A
HETATM   29  C16 UNL     1     -53.258   9.079  -4.409  1.00  0.00     0.102 A
HETATM   30  C24 UNL     1     -53.328   8.052  -3.476  1.00  0.00     0.101 A
HETATM   31  C25 UNL     1     -54.501   7.749  -2.868  1.00  0.00     0.069 A
BRANCH  29  32
HETATM   32  O2  UNL     1     -52.020   9.295  -4.960  1.00  0.00    -0.344 OA
BRANCH  32  33
HETATM   33  C17 UNL     1     -51.517  10.590  -5.143  1.00  0.00     0.214 C
BRANCH  33  34
HETATM   34  C18 UNL     1     -50.739  10.977  -3.932  1.00  0.00    -0.034 A
HETATM   35  C19 UNL     1     -50.757  12.269  -3.482  1.00  0.00     0.009 A
HETATM   36  C20 UNL     1     -50.029  12.626  -2.374  1.00  0.00     0.001 A
HETATM   37  C21 UNL     1     -49.269  11.719  -1.689  1.00  0.00     0.000 A
HETATM   38  C22 UNL     1     -49.238  10.416  -2.127  1.00  0.00     0.001 A
HETATM   39  C23 UNL     1     -49.978  10.059  -3.251  1.00  0.00     0.009 A
ENDBRANCH  33  34
ENDBRANCH  32  33
ENDBRANCH  29  32
BRANCH  30  40
HETATM   40  O3  UNL     1     -52.193   7.316  -3.151  1.00  0.00    -0.358 OA
ATOM     41  H3  UNL     1     -52.200   6.368  -3.212  1.00  0.00     0.217 HD
ENDBRANCH  30  40
ENDBRANCH   1  26
TORSDOF 10
ENDMDL