MODEL 5
REMARK VINA RESULT: -8.211260476      4.084      7.663
REMARK  9 active torsions:
REMARK  status: ('A' for Active; 'I' for Inactive)
REMARK    1  A    between atoms: C2_2  and  C3_3
REMARK    2  A    between atoms: N2_6  and  C4_7
REMARK    3  A    between atoms: C4_7  and  C5_8
REMARK    4  A    between atoms: C8_11  and  C9_12
REMARK    5  A    between atoms: C13_18  and  C14_19
REMARK    6  A    between atoms: C14_19  and  C15_20
REMARK    7  A    between atoms: C18_27  and  N6_28
REMARK    8  A    between atoms: N8_34  and  C20_35
REMARK    9  A    between atoms: C20_35  and  C21_36
ROOT
HETATM    1  C15 UNL     1     -56.497   6.511   1.866  1.00  0.00     0.091 A
HETATM    2  N4  UNL     1     -56.637   5.876   3.037  1.00  0.00    -0.329 N
ATOM      3  H4  UNL     1     -57.520   5.525   3.407  1.00  0.00     0.169 HD
HETATM    4  C16 UNL     1     -55.464   5.767   3.648  1.00  0.00     0.152 A
HETATM    5  N5  UNL     1     -55.084   5.220   4.847  1.00  0.00    -0.346 N
ATOM      6  H5  UNL     1     -55.778   4.780   5.451  1.00  0.00     0.167 HD
HETATM    7  C17 UNL     1     -53.804   5.263   5.221  1.00  0.00     0.138 A
HETATM    8  C18 UNL     1     -52.890   5.856   4.397  1.00  0.00     0.116 A
HETATM    9  N7  UNL     1     -53.265   6.386   3.234  1.00  0.00    -0.325 N
ATOM     10  H7  UNL     1     -52.567   6.825   2.635  1.00  0.00     0.169 HD
HETATM   11  C19 UNL     1     -54.561   6.352   2.834  1.00  0.00     0.155 A
HETATM   12  N8  UNL     1     -55.205   6.816   1.719  1.00  0.00    -0.315 N
ENDROOT
BRANCH   1  13
HETATM   13  C14 UNL     1     -57.637   6.778   0.983  1.00  0.00     0.118 C
BRANCH  13  14
HETATM   14  C13 UNL     1     -57.716   6.187  -0.320  1.00  0.00    -0.010 A
HETATM   15  C3  UNL     1     -57.950   4.921  -0.754  1.00  0.00     0.033 A
HETATM   16  N1  UNL     1     -57.861   4.873  -2.125  1.00  0.00    -0.302 N
HETATM   17  N2  UNL     1     -57.581   6.079  -2.534  1.00  0.00    -0.298 N
ATOM     18  H1  UNL     1     -57.991   4.048  -2.711  1.00  0.00     0.186 HD
HETATM   19  C12 UNL     1     -57.481   6.909  -1.507  1.00  0.00     0.120 A
BRANCH  15  20
HETATM   20  C2  UNL     1     -58.283   3.725   0.034  1.00  0.00     0.055 C
HETATM   21  C1  UNL     1     -59.344   2.866  -0.598  1.00  0.00     0.011 C
ENDBRANCH  15  20
BRANCH  17  22
HETATM   22  C4  UNL     1     -57.407   6.425  -3.950  1.00  0.00     0.186 C
BRANCH  22  23
HETATM   23  C5  UNL     1     -56.355   7.476  -4.088  1.00  0.00    -0.038 A
HETATM   24  C6  UNL     1     -56.639   8.631  -4.783  1.00  0.00     0.010 A
HETATM   25  C7  UNL     1     -55.673   9.611  -4.915  1.00  0.00     0.017 A
HETATM   26  C8  UNL     1     -54.422   9.475  -4.368  1.00  0.00     0.029 A
HETATM   27  C10 UNL     1     -54.138   8.327  -3.677  1.00  0.00     0.017 A
HETATM   28  C11 UNL     1     -55.096   7.341  -3.539  1.00  0.00     0.010 A
BRANCH  26  29
HETATM   29  C9  UNL     1     -53.431  10.509  -4.519  1.00  0.00     0.264 C
HETATM   30  N3  UNL     1     -52.609  10.590  -5.680  1.00  0.00    -0.057 NA
HETATM   31  O1  UNL     1     -53.249  11.378  -3.638  1.00  0.00    -0.271 OA
ENDBRANCH  26  29
ENDBRANCH  22  23
ENDBRANCH  17  22
ENDBRANCH  13  14
ENDBRANCH   1  13
BRANCH  12  32
HETATM   32  C20 UNL     1     -54.517   7.504   0.644  1.00  0.00     0.170 C
BRANCH  32  33
HETATM   33  C21 UNL     1     -53.722   6.645  -0.243  1.00  0.00    -0.040 A
HETATM   34  C22 UNL     1     -54.238   5.448  -0.676  1.00  0.00     0.009 A
HETATM   35  C23 UNL     1     -53.560   4.594  -1.511  1.00  0.00     0.001 A
HETATM   36  C24 UNL     1     -52.294   4.937  -1.952  1.00  0.00     0.000 A
HETATM   37  C25 UNL     1     -51.777   6.130  -1.521  1.00  0.00     0.001 A
HETATM   38  C26 UNL     1     -52.469   6.999  -0.670  1.00  0.00     0.009 A
ENDBRANCH  32  33
ENDBRANCH  12  32
BRANCH   8  39
HETATM   39  N6  UNL     1     -51.628   5.935   4.697  1.00  0.00    -0.384 N
ATOM     40  H62 UNL     1     -50.965   5.770   3.939  1.00  0.00     0.157 HD
ATOM     41  H61 UNL     1     -51.300   6.152   5.638  1.00  0.00     0.157 HD
ENDBRANCH   8  39
TORSDOF 9
ENDMDL