MODEL 2
REMARK VINA RESULT: -7.144857996      2.778      8.478
REMARK  9 active torsions:
REMARK  status: ('A' for Active; 'I' for Inactive)
REMARK    1  A    between atoms: C1_4  and  N2_5
REMARK    2  A    between atoms: C1_4  and  C20_33
REMARK    3  A    between atoms: N2_5  and  N3_7
REMARK    4  A    between atoms: N3_7  and  C2_8
REMARK    5  A    between atoms: N3_7  and  C15_26
REMARK    6  A    between atoms: C6_12  and  S1_13
REMARK    7  A    between atoms: S1_13  and  N4_16
REMARK    8  A    between atoms: N4_16  and  C7_18
REMARK    9  A    between atoms: C7_18  and  C8_19
ROOT
HETATM    1  N3  UNL     1     -57.327   4.049  -0.096  1.00  0.00    -0.238 N
ENDROOT
BRANCH   1   2
HETATM    2  N2  UNL     1     -57.185   4.155   1.258  1.00  0.00    -0.275 N
ATOM      3  H2  UNL     1     -57.169   3.291   1.799  1.00  0.00     0.189 HD
BRANCH   2   4
HETATM    4  C1  UNL     1     -57.058   5.374   1.969  1.00  0.00     0.142 C
HETATM    5  N1  UNL     1     -57.934   6.283   1.802  1.00  0.00    -0.383 N
ATOM      6  H12 UNL     1     -58.725   6.154   1.171  1.00  0.00     0.157 HD
ATOM      7  H11 UNL     1     -57.843   7.160   2.314  1.00  0.00     0.157 HD
BRANCH   4   8
HETATM    8  C20 UNL     1     -55.936   5.557   2.866  1.00  0.00     0.093 A
HETATM    9  C21 UNL     1     -55.943   5.072   4.169  1.00  0.00     0.121 A
HETATM   10  N6  UNL     1     -54.877   5.266   4.965  1.00  0.00    -0.372 N
HETATM   11  C22 UNL     1     -53.772   5.920   4.563  1.00  0.00     0.104 A
ATOM     12  H6  UNL     1     -54.907   4.901   5.917  1.00  0.00     0.164 HD
HETATM   13  C23 UNL     1     -53.760   6.401   3.271  1.00  0.00     0.105 A
HETATM   14  N7  UNL     1     -54.825   6.209   2.474  1.00  0.00    -0.360 N
ATOM     15  H7  UNL     1     -54.790   6.576   1.523  1.00  0.00     0.165 HD
ENDBRANCH   4   8
ENDBRANCH   2   4
ENDBRANCH   1   2
BRANCH   1  16
HETATM   16  C2  UNL     1     -56.575   4.911  -0.957  1.00  0.00     0.060 A
HETATM   17  C3  UNL     1     -57.226   5.821  -1.775  1.00  0.00     0.031 A
HETATM   18  C4  UNL     1     -56.498   6.641  -2.595  1.00  0.00     0.004 A
HETATM   19  C5  UNL     1     -55.107   6.585  -2.629  1.00  0.00     0.025 A
HETATM   20  C6  UNL     1     -54.470   5.678  -1.814  1.00  0.00     0.081 A
HETATM   21  C14 UNL     1     -55.196   4.855  -0.992  1.00  0.00     0.057 A
BRANCH  20  22
HETATM   22  S1  UNL     1     -52.727   5.591  -1.841  1.00  0.00     0.259 S
HETATM   23  O1  UNL     1     -52.208   5.634  -0.447  1.00  0.00    -0.201 OA
HETATM   24  O2  UNL     1     -52.344   4.324  -2.558  1.00  0.00    -0.201 OA
BRANCH  22  25
HETATM   25  N4  UNL     1     -52.145   6.978  -2.673  1.00  0.00    -0.311 N
ATOM     26  H4  UNL     1     -51.951   7.014  -3.674  1.00  0.00     0.172 HD
BRANCH  25  27
HETATM   27  C7  UNL     1     -51.967   8.107  -1.749  1.00  0.00     0.170 C
BRANCH  27  28
HETATM   28  C8  UNL     1     -51.248   9.155  -2.507  1.00  0.00    -0.040 A
HETATM   29  C9  UNL     1     -50.182   9.836  -1.971  1.00  0.00     0.009 A
HETATM   30  C10 UNL     1     -49.504  10.809  -2.657  1.00  0.00     0.001 A
HETATM   31  C11 UNL     1     -49.918  11.108  -3.934  1.00  0.00     0.000 A
HETATM   32  C12 UNL     1     -50.992  10.452  -4.532  1.00  0.00     0.001 A
HETATM   33  C13 UNL     1     -51.637   9.476  -3.784  1.00  0.00     0.009 A
ENDBRANCH  27  28
ENDBRANCH  25  27
ENDBRANCH  22  25
ENDBRANCH  20  22
ENDBRANCH   1  16
BRANCH   1  34
HETATM   34  C15 UNL     1     -58.196   3.111  -0.715  1.00  0.00     0.127 A
HETATM   35  C16 UNL     1     -59.419   2.827  -0.154  1.00  0.00     0.050 A
HETATM   36  C17 UNL     1     -60.271   1.922  -0.741  1.00  0.00     0.005 A
HETATM   37  C18 UNL     1     -59.899   1.289  -1.910  1.00  0.00     0.017 A
HETATM   38  C19 UNL     1     -58.658   1.610  -2.435  1.00  0.00     0.090 A
HETATM   39  N5  UNL     1     -57.847   2.491  -1.847  1.00  0.00    -0.351 N
ATOM     40  H5  UNL     1     -56.942   2.697  -2.270  1.00  0.00     0.166 HD
ENDBRANCH   1  34
TORSDOF 9
ENDMDL