MODEL 5
REMARK VINA RESULT: -6.921255625      5.751     11.171
REMARK  11 active torsions:
REMARK  status: ('A' for Active; 'I' for Inactive)
REMARK    1  A    between atoms: N1_2  and  C3_4
REMARK    2  A    between atoms: C3_4  and  C4_5
REMARK    3  A    between atoms: C4_5  and  C5_6
REMARK    4  A    between atoms: C5_6  and  C6_7
REMARK    5  A    between atoms: C9_10  and  N2_11
REMARK    6  A    between atoms: N2_11  and  C11_13
REMARK    7  A    between atoms: C13_16  and  N3_17
REMARK    8  A    between atoms: C14_20  and  N4_21
REMARK    9  A    between atoms: N4_21  and  C15_23
REMARK   10  A    between atoms: C18_26  and  S2_27
REMARK   11  A    between atoms: S2_27  and  N5_28
ROOT
HETATM    1  C11 UNL     1     -57.145   2.961  -2.115  1.00  0.00     0.115 A
HETATM    2  C12 UNL     1     -57.697   3.872  -2.983  1.00  0.00     0.100 A
HETATM    3  S1  UNL     1     -58.400   3.204  -4.357  1.00  0.00    -0.077 SA
HETATM    4  C13 UNL     1     -58.287   1.461  -4.407  1.00  0.00     0.112 A
HETATM    5  C14 UNL     1     -57.640   0.913  -3.311  1.00  0.00     0.141 A
HETATM    6  N6  UNL     1     -57.135   1.652  -2.285  1.00  0.00    -0.326 N
ATOM      7  H6  UNL     1     -56.684   1.118  -1.542  1.00  0.00     0.169 HD
ENDROOT
BRANCH   1   8
HETATM    8  N2  UNL     1     -56.524   3.521  -0.916  1.00  0.00    -0.337 N
HETATM    9  C10 UNL     1     -57.155   3.256   0.366  1.00  0.00     0.158 C
BRANCH   8  10
HETATM   10  C9  UNL     1     -55.342   4.287  -0.947  1.00  0.00     0.035 A
HETATM   11  C8  UNL     1     -54.307   3.969  -1.801  1.00  0.00     0.030 A
HETATM   12  C7  UNL     1     -53.132   4.706  -1.857  1.00  0.00     0.009 A
HETATM   13  C6  UNL     1     -52.959   5.800  -1.044  1.00  0.00    -0.058 A
HETATM   14  C22 UNL     1     -53.986   6.137  -0.179  1.00  0.00     0.009 A
HETATM   15  C21 UNL     1     -55.159   5.401  -0.123  1.00  0.00     0.030 A
BRANCH  13  16
HETATM   16  C5  UNL     1     -51.719   6.620  -1.063  1.00  0.00     0.040 C
BRANCH  16  17
HETATM   17  C4  UNL     1     -51.976   8.082  -0.847  1.00  0.00     0.035 C
BRANCH  17  18
HETATM   18  C3  UNL     1     -51.665   8.812  -2.144  1.00  0.00     0.271 C
BRANCH  18  19
HETATM   19  N1  UNL     1     -50.525   9.667  -2.027  1.00  0.00     0.080 N
HETATM   20  C1  UNL     1     -49.877  10.023  -3.247  1.00  0.00     0.309 C
HETATM   21  C2  UNL     1     -50.851  10.805  -1.205  1.00  0.00     0.309 C
ENDBRANCH  18  19
ENDBRANCH  17  18
ENDBRANCH  16  17
ENDBRANCH  13  16
ENDBRANCH   8  10
ENDBRANCH   1   8
BRANCH   5  22
HETATM   22  N4  UNL     1     -57.504  -0.335  -3.207  1.00  0.00    -0.340 N
ATOM     23  H4  UNL     1     -56.580  -0.608  -3.542  1.00  0.00     0.167 HD
BRANCH  22  24
HETATM   24  C15 UNL     1     -58.184  -1.438  -2.794  1.00  0.00     0.033 A
HETATM   25  C16 UNL     1     -59.515  -1.392  -2.341  1.00  0.00     0.031 A
HETATM   26  C17 UNL     1     -60.171  -2.519  -1.922  1.00  0.00     0.027 A
HETATM   27  C18 UNL     1     -59.557  -3.749  -1.926  1.00  0.00     0.079 A
HETATM   28  C19 UNL     1     -58.253  -3.836  -2.361  1.00  0.00     0.027 A
HETATM   29  C20 UNL     1     -57.583  -2.713  -2.783  1.00  0.00     0.031 A
BRANCH  27  30
HETATM   30  S2  UNL     1     -60.393  -5.203  -1.424  1.00  0.00     0.256 S
HETATM   31  O1  UNL     1     -60.755  -6.028  -2.611  1.00  0.00    -0.201 OA
HETATM   32  O2  UNL     1     -59.563  -5.986  -0.432  1.00  0.00    -0.201 OA
BRANCH  30  33
HETATM   33  N5  UNL     1     -61.816  -4.709  -0.535  1.00  0.00    -0.324 N
ATOM     34  H52 UNL     1     -62.252  -5.234   0.223  1.00  0.00     0.169 HD
ATOM     35  H51 UNL     1     -62.118  -3.812  -0.915  1.00  0.00     0.169 HD
ENDBRANCH  30  33
ENDBRANCH  27  30
ENDBRANCH  22  24
ENDBRANCH   5  22
BRANCH   4  36
HETATM   36  N3  UNL     1     -58.738   0.808  -5.365  1.00  0.00    -0.390 N
ATOM     37  H32 UNL     1     -58.316   0.769  -6.293  1.00  0.00     0.157 HD
ATOM     38  H31 UNL     1     -59.598   0.265  -5.283  1.00  0.00     0.157 HD
ENDBRANCH   4  36
TORSDOF 11
ENDMDL