MODEL 1
REMARK VINA RESULT: -7.630134883      0.000      0.000
REMARK  11 active torsions:
REMARK  status: ('A' for Active; 'I' for Inactive)
REMARK    1  A    between atoms: O1_1  and  C1_3
REMARK    2  A    between atoms: C1_3  and  C2_4
REMARK    3  A    between atoms: C2_4  and  N1_5
REMARK    4  A    between atoms: N2_8  and  C5_9
REMARK    5  A    between atoms: C12_20  and  N5_21
REMARK    6  A    between atoms: N5_21  and  C13_23
REMARK    7  A    between atoms: C16_26  and  O2_27
REMARK    8  A    between atoms: O2_27  and  C17_28
REMARK    9  A    between atoms: C17_28  and  C18_29
REMARK   10  A    between atoms: C18_29  and  C19_30
REMARK   11  A    between atoms: C19_30  and  C20_31
ROOT
HETATM    1  C5  UNL     1     -56.973   4.752   0.553  1.00  0.00     0.149 A
HETATM    2  N3  UNL     1     -58.111   4.041   0.381  1.00  0.00    -0.338 N
ATOM      3  H3  UNL     1     -58.855   4.138   1.073  1.00  0.00     0.167 HD
HETATM    4  C6  UNL     1     -58.307   3.212  -0.660  1.00  0.00     0.060 A
HETATM    5  C7  UNL     1     -59.485   2.491  -0.818  1.00  0.00     0.032 A
HETATM    6  C8  UNL     1     -59.699   1.640  -1.879  1.00  0.00     0.002 A
HETATM    7  C9  UNL     1     -58.711   1.491  -2.829  1.00  0.00     0.002 A
HETATM    8  C10 UNL     1     -57.522   2.210  -2.684  1.00  0.00     0.032 A
HETATM    9  C11 UNL     1     -57.330   3.056  -1.614  1.00  0.00     0.060 A
HETATM   10  N4  UNL     1     -56.188   3.751  -1.466  1.00  0.00    -0.338 N
ATOM     11  H4  UNL     1     -55.449   3.650  -2.162  1.00  0.00     0.167 HD
HETATM   12  C12 UNL     1     -55.998   4.587  -0.409  1.00  0.00     0.151 A
ENDROOT
BRANCH  12  13
HETATM   13  N5  UNL     1     -54.896   5.231  -0.309  1.00  0.00    -0.339 N
ATOM     14  H5  UNL     1     -54.354   5.151   0.552  1.00  0.00     0.167 HD
BRANCH  13  15
HETATM   15  C13 UNL     1     -54.406   6.053  -1.356  1.00  0.00     0.033 A
HETATM   16  C14 UNL     1     -53.076   6.001  -1.720  1.00  0.00     0.032 A
HETATM   17  C15 UNL     1     -52.570   6.798  -2.746  1.00  0.00     0.039 A
HETATM   18  C16 UNL     1     -53.403   7.661  -3.423  1.00  0.00     0.075 A
HETATM   19  C23 UNL     1     -54.734   7.727  -3.073  1.00  0.00     0.039 A
HETATM   20  C24 UNL     1     -55.220   6.930  -2.053  1.00  0.00     0.032 A
BRANCH  18  21
HETATM   21  O2  UNL     1     -52.920   8.453  -4.436  1.00  0.00    -0.323 OA
BRANCH  21  22
HETATM   22  C17 UNL     1     -52.705   9.803  -4.400  1.00  0.00     0.142 C
BRANCH  22  23
HETATM   23  C18 UNL     1     -51.423  10.358  -4.753  1.00  0.00     0.025 C
BRANCH  23  24
HETATM   24  C19 UNL     1     -50.286  10.580  -4.275  1.00  0.00     0.016 C
BRANCH  24  25
HETATM   25  C20 UNL     1     -49.742  11.311  -3.164  1.00  0.00    -0.002 A
HETATM   26  C21 UNL     1     -49.156  10.883  -2.038  1.00  0.00     0.119 A
HETATM   27  N6  UNL     1     -48.805  11.954  -1.285  1.00  0.00    -0.311 N
HETATM   28  N7  UNL     1     -49.152  13.042  -1.904  1.00  0.00    -0.311 N
ATOM     29  H6  UNL     1     -48.342  11.912  -0.377  1.00  0.00     0.186 HD
HETATM   30  C22 UNL     1     -49.731  12.727  -3.061  1.00  0.00     0.119 A
ATOM     31  H7  UNL     1     -49.004  13.990  -1.559  1.00  0.00     0.186 HD
ENDBRANCH  24  25
ENDBRANCH  23  24
ENDBRANCH  22  23
ENDBRANCH  21  22
ENDBRANCH  18  21
ENDBRANCH  13  15
ENDBRANCH  12  13
BRANCH   1  32
HETATM   32  N2  UNL     1     -56.803   5.621   1.676  1.00  0.00    -0.361 N
HETATM   33  C4  UNL     1     -56.294   5.228   2.952  1.00  0.00     0.154 C
HETATM   34  C3  UNL     1     -55.392   6.375   3.429  1.00  0.00     0.292 C
HETATM   35  N1  UNL     1     -56.129   7.581   3.628  1.00  0.00     0.093 N
HETATM   36  C26 UNL     1     -57.371   7.632   2.908  1.00  0.00     0.292 C
HETATM   37  C25 UNL     1     -57.174   7.034   1.522  1.00  0.00     0.154 C
BRANCH  35  38
HETATM   38  C2  UNL     1     -56.317   7.929   5.007  1.00  0.00     0.298 C
BRANCH  38  39
HETATM   39  C1  UNL     1     -57.727   7.618   5.461  1.00  0.00     0.194 C
BRANCH  39  40
HETATM   40  O1  UNL     1     -57.761   6.357   6.081  1.00  0.00    -0.399 OA
ATOM     41  H1  UNL     1     -58.656   6.042   6.123  1.00  0.00     0.209 HD
ENDBRANCH  39  40
ENDBRANCH  38  39
ENDBRANCH  35  38
ENDBRANCH   1  32
TORSDOF 11
ENDMDL