MODEL 3
REMARK VINA RESULT: -7.636820890      5.955     10.915
REMARK  10 active torsions:
REMARK  status: ('A' for Active; 'I' for Inactive)
REMARK    1  A    between atoms: C2_2  and  C3_3
REMARK    2  A    between atoms: C3_3  and  C4_4
REMARK    3  A    between atoms: C4_4  and  C5_5
REMARK    4  A    between atoms: N3_11  and  C7_13
REMARK    5  A    between atoms: C8_16  and  N5_17
REMARK    6  A    between atoms: N5_17  and  C9_19
REMARK    7  A    between atoms: C15_29  and  N8_30
REMARK    8  A    between atoms: N8_30  and  C16_32
REMARK    9  A    between atoms: C16_32  and  C17_33
REMARK   10  A    between atoms: C17_33  and  C18_34
ROOT
HETATM    1  C7  UNL     1     -54.665   6.384   1.973  1.00  0.00     0.713 A
HETATM    2  N4  UNL     1     -55.842   6.126   1.358  1.00  0.00    -0.021 N
ATOM      3  H4  UNL     1     -55.844   5.839   0.379  1.00  0.00     0.203 HD
HETATM    4  C8  UNL     1     -56.992   6.239   2.009  1.00  0.00     0.713 A
HETATM    5  N7  UNL     1     -56.986   6.618   3.307  1.00  0.00    -0.021 N
ATOM      6  H7  UNL     1     -57.872   6.703   3.805  1.00  0.00     0.203 HD
HETATM    7  C15 UNL     1     -55.840   6.884   3.957  1.00  0.00     0.707 A
HETATM    8  N9  UNL     1     -54.697   6.760   3.264  1.00  0.00    -0.021 N
ATOM      9  H9  UNL     1     -53.815   6.959   3.737  1.00  0.00     0.203 HD
ENDROOT
BRANCH   1  10
HETATM   10  N3  UNL     1     -53.489   6.242   1.213  1.00  0.00    -0.168 N
HETATM   11  C6  UNL     1     -53.150   7.116   0.294  1.00  0.00     0.180 A
HETATM   12  N2  UNL     1     -53.790   8.226  -0.084  1.00  0.00    -0.279 N
HETATM   13  S1  UNL     1     -51.785   7.134  -0.730  1.00  0.00    -0.037 SA
HETATM   14  N1  UNL     1     -53.282   8.938  -1.005  1.00  0.00    -0.296 N
ATOM     15  H2  UNL     1     -54.667   8.497   0.359  1.00  0.00     0.189 HD
HETATM   16  C5  UNL     1     -52.141   8.580  -1.573  1.00  0.00     0.069 A
ATOM     17  H1  UNL     1     -53.755   9.789  -1.308  1.00  0.00     0.187 HD
ATOM     18  H3  UNL     1     -52.883   5.438   1.380  1.00  0.00     0.186 HD
BRANCH  16  19
HETATM   19  C4  UNL     1     -51.373   9.273  -2.672  1.00  0.00     0.066 C
BRANCH  19  20
HETATM   20  C3  UNL     1     -50.234  10.009  -1.955  1.00  0.00     0.006 C
BRANCH  20  21
HETATM   21  C2  UNL     1     -49.523  10.925  -2.929  1.00  0.00    -0.004 C
HETATM   22  C1  UNL     1     -49.669  10.344  -4.318  1.00  0.00     0.005 C
ENDBRANCH  20  21
ENDBRANCH  19  20
ENDBRANCH  16  19
ENDBRANCH   1  10
BRANCH   4  23
HETATM   23  N5  UNL     1     -58.201   5.956   1.321  1.00  0.00    -0.175 N
ATOM     24  H5  UNL     1     -59.084   6.263   1.728  1.00  0.00     0.186 HD
BRANCH  23  25
HETATM   25  C9  UNL     1     -58.221   5.332   0.215  1.00  0.00     0.121 A
HETATM   26  C10 UNL     1     -58.657   4.030   0.168  1.00  0.00     0.049 A
HETATM   27  C11 UNL     1     -58.692   3.322  -1.013  1.00  0.00     0.006 A
HETATM   28  C12 UNL     1     -58.274   3.958  -2.160  1.00  0.00     0.025 A
HETATM   29  C13 UNL     1     -57.833   5.267  -2.122  1.00  0.00     0.007 A
HETATM   30  C14 UNL     1     -57.385   5.944  -3.364  1.00  0.00     0.068 C
HETATM   31  N6  UNL     1     -57.823   5.905  -0.933  1.00  0.00    -0.346 N
ATOM     32  H6  UNL     1     -57.497   6.871  -0.905  1.00  0.00     0.167 HD
ENDBRANCH  23  25
ENDBRANCH   4  23
BRANCH   7  33
HETATM   33  N8  UNL     1     -55.907   7.236   5.177  1.00  0.00    -0.225 N
ATOM     34  H8  UNL     1     -55.303   6.752   5.841  1.00  0.00     0.177 HD
BRANCH  33  35
HETATM   35  C16 UNL     1     -56.777   8.274   5.696  1.00  0.00     0.142 C
BRANCH  35  36
HETATM   36  C17 UNL     1     -56.150   9.601   5.348  1.00  0.00     0.058 C
BRANCH  36  37
HETATM   37  C18 UNL     1     -55.649  10.346   6.500  1.00  0.00    -0.057 A
HETATM   38  C19 UNL     1     -54.341  10.777   6.567  1.00  0.00     0.007 A
HETATM   39  C20 UNL     1     -53.873  11.486   7.669  1.00  0.00     0.001 A
HETATM   40  C21 UNL     1     -54.714  11.775   8.725  1.00  0.00     0.000 A
HETATM   41  C22 UNL     1     -56.029  11.342   8.659  1.00  0.00     0.001 A
HETATM   42  C23 UNL     1     -56.495  10.632   7.552  1.00  0.00     0.007 A
ENDBRANCH  36  37
ENDBRANCH  35  36
ENDBRANCH  33  35
ENDBRANCH   7  33
TORSDOF 10
ENDMDL