MODEL 5
REMARK VINA RESULT: -7.223725994      1.549      2.368
REMARK  10 active torsions:
REMARK  status: ('A' for Active; 'I' for Inactive)
REMARK    1  A    between atoms: C6_6  and  C7_7
REMARK    2  A    between atoms: C7_7  and  N1_8
REMARK    3  A    between atoms: N1_8  and  C8_9
REMARK    4  A    between atoms: N1_8  and  C18_30
REMARK    5  A    between atoms: C8_9  and  C9_10
REMARK    6  A    between atoms: N5_17  and  C10_18
REMARK    7  A    between atoms: C13_21  and  C14_22
REMARK    8  A    between atoms: C14_22  and  C15_23
REMARK    9  A    between atoms: C18_30  and  N8_32
REMARK   10  A    between atoms: N8_32  and  C19_34
ROOT
HETATM    1  C9  UNL     1     -53.828   6.050  -0.778  1.00  0.00     0.160 A
HETATM    2  N2  UNL     1     -53.803   4.686  -0.838  1.00  0.00    -0.267 N
ATOM      3  H2  UNL     1     -54.338   4.069  -0.226  1.00  0.00     0.190 HD
HETATM    4  N3  UNL     1     -53.004   4.278  -1.782  1.00  0.00    -0.226 N
ATOM      5  H3  UNL     1     -52.809   3.308  -2.032  1.00  0.00     0.210 HD
HETATM    6  N4  UNL     1     -52.497   5.352  -2.353  1.00  0.00    -0.219 N
ATOM      7  H4  UNL     1     -51.835   5.354  -3.129  1.00  0.00     0.210 HD
HETATM    8  N5  UNL     1     -52.989   6.433  -1.752  1.00  0.00    -0.222 N
ENDROOT
BRANCH   1   9
HETATM    9  C8  UNL     1     -54.603   6.816   0.170  1.00  0.00     0.145 C
BRANCH   9  10
HETATM   10  N1  UNL     1     -55.984   6.458   0.369  1.00  0.00    -0.326 N
BRANCH  10  11
HETATM   11  C7  UNL     1     -57.045   7.160  -0.297  1.00  0.00     0.169 C
BRANCH  11  12
HETATM   12  C6  UNL     1     -57.034   7.161  -1.750  1.00  0.00    -0.039 A
HETATM   13  C5  UNL     1     -56.656   8.267  -2.456  1.00  0.00     0.009 A
HETATM   14  C4  UNL     1     -56.665   8.241  -3.855  1.00  0.00     0.001 A
HETATM   15  C3  UNL     1     -57.059   7.092  -4.497  1.00  0.00     0.007 A
HETATM   16  C2  UNL     1     -57.447   5.956  -3.807  1.00  0.00    -0.061 A
HETATM   17  C1  UNL     1     -57.862   4.743  -4.561  1.00  0.00     0.048 C
HETATM   18  C25 UNL     1     -57.419   6.038  -2.442  1.00  0.00     0.015 A
ENDBRANCH  11  12
ENDBRANCH  10  11
BRANCH  10  19
HETATM   19  C18 UNL     1     -56.304   5.418   1.249  1.00  0.00     0.178 C
HETATM   20  S1  UNL     1     -56.617   5.811   2.801  1.00  0.00    -0.040 SA
BRANCH  19  21
HETATM   21  N8  UNL     1     -56.389   4.091   0.849  1.00  0.00    -0.333 N
ATOM     22  H8  UNL     1     -55.721   3.461   1.294  1.00  0.00     0.168 HD
BRANCH  21  23
HETATM   23  C19 UNL     1     -57.260   3.483  -0.080  1.00  0.00     0.034 A
HETATM   24  C20 UNL     1     -56.677   2.738  -1.114  1.00  0.00     0.029 A
HETATM   25  C21 UNL     1     -57.392   2.069  -2.071  1.00  0.00     0.002 A
HETATM   26  C22 UNL     1     -58.780   2.131  -2.014  1.00  0.00     0.000 A
HETATM   27  C23 UNL     1     -59.387   2.852  -1.014  1.00  0.00     0.002 A
HETATM   28  C24 UNL     1     -58.609   3.518  -0.060  1.00  0.00     0.029 A
ENDBRANCH  21  23
ENDBRANCH  19  21
ENDBRANCH  10  19
ENDBRANCH   9  10
ENDBRANCH   1   9
BRANCH   8  29
HETATM   29  C10 UNL     1     -52.643   7.737  -2.127  1.00  0.00     0.060 A
HETATM   30  C11 UNL     1     -53.073   8.235  -3.338  1.00  0.00     0.032 A
HETATM   31  C12 UNL     1     -52.746   9.529  -3.743  1.00  0.00     0.010 A
HETATM   32  C13 UNL     1     -51.984  10.349  -2.947  1.00  0.00    -0.051 A
HETATM   33  C16 UNL     1     -51.560   9.832  -1.732  1.00  0.00     0.010 A
HETATM   34  C17 UNL     1     -51.876   8.554  -1.319  1.00  0.00     0.032 A
BRANCH  32  35
HETATM   35  C14 UNL     1     -51.620  11.740  -3.356  1.00  0.00     0.111 C
BRANCH  35  36
HETATM   36  C15 UNL     1     -50.151  11.864  -3.599  1.00  0.00     0.090 C
HETATM   37  N6  UNL     1     -49.445  12.732  -2.964  1.00  0.00    -0.391 N
ATOM     38  H62 UNL     1     -49.922  13.331  -2.290  1.00  0.00     0.157 HD
ATOM     39  H61 UNL     1     -48.442  12.817  -3.129  1.00  0.00     0.157 HD
HETATM   40  N7  UNL     1     -49.490  11.035  -4.531  1.00  0.00    -0.088 NA
ENDBRANCH  35  36
ENDBRANCH  32  35
ENDBRANCH   8  29
TORSDOF 10
ENDMDL