MODEL 3
REMARK VINA RESULT: -7.745501878      4.583      8.419
REMARK  9 active torsions:
REMARK  status: ('A' for Active; 'I' for Inactive)
REMARK    1  A    between atoms: C6_9  and  N2_10
REMARK    2  A    between atoms: N2_10  and  C7_12
REMARK    3  A    between atoms: C7_12  and  C8_13
REMARK    4  A    between atoms: C8_13  and  C9_14
REMARK    5  A    between atoms: C9_14  and  O2_15
REMARK    6  A    between atoms: N5_24  and  C13_25
REMARK    7  A    between atoms: C13_25  and  C14_26
REMARK    8  A    between atoms: N6_33  and  C21_34
REMARK    9  A    between atoms: C21_34  and  C22_35
ROOT
HETATM    1  O1  UNL     1     -55.353   3.587  -2.405  1.00  0.00    -0.267 OA
HETATM    2  C1  UNL     1     -56.380   3.409  -1.709  1.00  0.00     0.262 A
HETATM    3  C2  UNL     1     -56.525   4.106  -0.565  1.00  0.00     0.060 A
HETATM    4  C3  UNL     1     -55.618   5.080   0.001  1.00  0.00     0.066 A
HETATM    5  C4  UNL     1     -54.455   5.426  -0.583  1.00  0.00     0.048 A
HETATM    6  C5  UNL     1     -53.637   6.382   0.038  1.00  0.00     0.108 A
HETATM    7  N1  UNL     1     -54.013   6.936   1.194  1.00  0.00    -0.202 N
ATOM      8  H1  UNL     1     -53.413   7.630   1.641  1.00  0.00     0.183 HD
HETATM    9  C6  UNL     1     -55.165   6.592   1.770  1.00  0.00     0.678 A
HETATM   10  N3  UNL     1     -55.937   5.692   1.186  1.00  0.00    -0.191 N
ATOM     11  H3  UNL     1     -56.814   5.440   1.641  1.00  0.00     0.184 HD
HETATM   12  C10 UNL     1     -57.687   3.859   0.157  1.00  0.00     0.036 A
HETATM   13  C11 UNL     1     -58.579   2.955  -0.325  1.00  0.00     0.028 A
HETATM   14  C12 UNL     1     -59.783   2.542   0.167  1.00  0.00     0.122 A
HETATM   15  N4  UNL     1     -60.253   1.664  -0.696  1.00  0.00    -0.307 N
ATOM     16  H4  UNL     1     -61.144   1.178  -0.595  1.00  0.00     0.186 HD
HETATM   17  N5  UNL     1     -59.403   1.490  -1.734  1.00  0.00    -0.272 N
HETATM   18  C20 UNL     1     -58.374   2.278  -1.500  1.00  0.00     0.139 A
HETATM   19  N6  UNL     1     -57.262   2.489  -2.217  1.00  0.00    -0.293 N
ENDROOT
BRANCH  19  20
HETATM   20  C21 UNL     1     -56.921   1.831  -3.425  1.00  0.00     0.172 C
BRANCH  20  21
HETATM   21  C22 UNL     1     -57.425   2.588  -4.646  1.00  0.00    -0.040 A
HETATM   22  C23 UNL     1     -58.306   3.630  -4.572  1.00  0.00     0.009 A
HETATM   23  C24 UNL     1     -58.733   4.309  -5.683  1.00  0.00     0.001 A
HETATM   24  C25 UNL     1     -58.278   3.955  -6.933  1.00  0.00     0.000 A
HETATM   25  C26 UNL     1     -57.389   2.911  -7.058  1.00  0.00     0.001 A
HETATM   26  C27 UNL     1     -56.984   2.255  -5.923  1.00  0.00     0.009 A
ENDBRANCH  20  21
ENDBRANCH  19  20
BRANCH   9  27
HETATM   27  N2  UNL     1     -55.537   7.124   2.889  1.00  0.00    -0.226 N
ATOM     28  H2  UNL     1     -55.853   8.093   2.900  1.00  0.00     0.177 HD
BRANCH  27  29
HETATM   29  C7  UNL     1     -55.516   6.369   4.132  1.00  0.00     0.140 C
BRANCH  29  30
HETATM   30  C8  UNL     1     -54.197   6.653   4.830  1.00  0.00     0.046 C
BRANCH  30  31
HETATM   31  C9  UNL     1     -53.306   5.450   4.830  1.00  0.00     0.165 C
BRANCH  31  32
HETATM   32  O2  UNL     1     -52.006   5.849   4.443  1.00  0.00    -0.401 OA
ATOM     33  H2  UNL     1     -51.660   5.209   3.831  1.00  0.00     0.209 HD
ENDBRANCH  31  32
ENDBRANCH  30  31
ENDBRANCH  29  30
ENDBRANCH  27  29
ENDBRANCH   9  27
BRANCH  17  34
HETATM   34  C13 UNL     1     -59.834   0.677  -2.821  1.00  0.00     0.189 C
BRANCH  34  35
HETATM   35  C14 UNL     1     -59.415  -0.741  -2.683  1.00  0.00    -0.038 A
HETATM   36  C15 UNL     1     -60.047  -1.631  -1.871  1.00  0.00     0.009 A
HETATM   37  C16 UNL     1     -59.635  -2.964  -1.747  1.00  0.00     0.001 A
HETATM   38  C17 UNL     1     -58.552  -3.420  -2.464  1.00  0.00     0.000 A
HETATM   39  C18 UNL     1     -57.900  -2.543  -3.287  1.00  0.00     0.001 A
HETATM   40  C19 UNL     1     -58.324  -1.248  -3.387  1.00  0.00     0.009 A
ENDBRANCH  34  35
ENDBRANCH  17  34
TORSDOF 9
ENDMDL