MODEL 3
REMARK VINA RESULT: -6.723733935      5.021     11.431
REMARK  10 active torsions:
REMARK  status: ('A' for Active; 'I' for Inactive)
REMARK    1  A    between atoms: C2_2  and  C3_3
REMARK    2  A    between atoms: C3_3  and  N1_4
REMARK    3  A    between atoms: N1_4  and  C4_6
REMARK    4  A    between atoms: C8_16  and  C9_17
REMARK    5  A    between atoms: C9_17  and  N5_18
REMARK    6  A    between atoms: C9_17  and  C12_28
REMARK    7  A    between atoms: N5_18  and  C10_20
REMARK    8  A    between atoms: C15_31  and  O1_32
REMARK    9  A    between atoms: N9_36  and  C19_37
REMARK   10  A    between atoms: C19_37  and  C20_38
ROOT
HETATM    1  C4  UNL     1     -56.625   2.819  -1.577  1.00  0.00     0.679 A
HETATM    2  N2  UNL     1     -56.811   1.740  -2.382  1.00  0.00    -0.174 N
ATOM      3  H2  UNL     1     -55.995   1.263  -2.766  1.00  0.00     0.186 HD
HETATM    4  C5  UNL     1     -58.035   1.284  -2.690  1.00  0.00     0.157 A
HETATM    5  C6  UNL     1     -59.097   1.941  -2.165  1.00  0.00     0.095 A
HETATM    6  C7  UNL     1     -58.900   3.034  -1.348  1.00  0.00     0.139 A
HETATM    7  N3  UNL     1     -57.655   3.495  -1.039  1.00  0.00    -0.200 N
ATOM      8  H3  UNL     1     -57.513   4.304  -0.436  1.00  0.00     0.183 HD
HETATM    9  N4  UNL     1     -60.167   1.311  -2.599  1.00  0.00    -0.336 N
ATOM     10  H4  UNL     1     -61.123   1.579  -2.368  1.00  0.00     0.168 HD
HETATM   11  C8  UNL     1     -59.836   0.250  -3.401  1.00  0.00     0.142 A
HETATM   12  N9  UNL     1     -58.472   0.236  -3.457  1.00  0.00    -0.289 N
ENDROOT
BRANCH  11  13
HETATM   13  C9  UNL     1     -60.828  -0.612  -3.970  1.00  0.00     0.104 C
BRANCH  13  14
HETATM   14  N5  UNL     1     -62.056  -0.119  -4.441  1.00  0.00    -0.186 N
ATOM     15  H5  UNL     1     -62.866  -0.717  -4.276  1.00  0.00     0.184 HD
BRANCH  14  16
HETATM   16  C10 UNL     1     -62.295   0.991  -5.054  1.00  0.00     0.698 A
HETATM   17  N6  UNL     1     -61.767   1.459  -6.187  1.00  0.00    -0.185 N
HETATM   18  C11 UNL     1     -62.321   2.650  -6.433  1.00  0.00     0.215 A
ATOM     19  H6  UNL     1     -61.067   0.991  -6.762  1.00  0.00     0.185 HD
HETATM   20  N7  UNL     1     -63.186   2.887  -5.434  1.00  0.00    -0.281 N
HETATM   21  N8  UNL     1     -63.178   1.879  -4.584  1.00  0.00    -0.131 N
ATOM     22  H7  UNL     1     -63.763   3.723  -5.345  1.00  0.00     0.188 HD
ATOM     23  H8  UNL     1     -63.736   1.793  -3.735  1.00  0.00     0.205 HD
ENDBRANCH  14  16
ENDBRANCH  13  14
BRANCH  13  24
HETATM   24  C12 UNL     1     -61.025  -1.945  -3.355  1.00  0.00    -0.005 A
HETATM   25  C13 UNL     1     -60.876  -2.147  -1.986  1.00  0.00     0.016 A
HETATM   26  C14 UNL     1     -61.036  -3.377  -1.399  1.00  0.00     0.037 A
HETATM   27  C15 UNL     1     -61.355  -4.485  -2.154  1.00  0.00     0.068 A
HETATM   28  C17 UNL     1     -61.502  -4.295  -3.506  1.00  0.00     0.037 A
HETATM   29  C18 UNL     1     -61.342  -3.052  -4.100  1.00  0.00     0.016 A
BRANCH  27  30
HETATM   30  O1  UNL     1     -61.522  -5.744  -1.590  1.00  0.00    -0.356 OA
HETATM   31  C16 UNL     1     -60.557  -6.389  -0.817  1.00  0.00     0.210 C
ENDBRANCH  27  30
ENDBRANCH  13  24
ENDBRANCH  11  13
BRANCH  12  32
HETATM   32  C19 UNL     1     -57.605  -0.646  -4.112  1.00  0.00     0.112 C
BRANCH  32  33
HETATM   33  C20 UNL     1     -57.624  -2.073  -3.730  1.00  0.00    -0.020 A
HETATM   34  C21 UNL     1     -57.777  -3.076  -4.679  1.00  0.00     0.013 A
HETATM   35  C22 UNL     1     -57.794  -4.417  -4.337  1.00  0.00     0.001 A
HETATM   36  C23 UNL     1     -57.661  -4.813  -3.037  1.00  0.00     0.000 A
HETATM   37  C24 UNL     1     -57.510  -3.862  -2.083  1.00  0.00     0.001 A
HETATM   38  C25 UNL     1     -57.494  -2.529  -2.432  1.00  0.00     0.013 A
ENDBRANCH  32  33
ENDBRANCH  12  32
BRANCH   1  39
HETATM   39  N1  UNL     1     -55.435   3.224  -1.307  1.00  0.00    -0.226 N
ATOM     40  H1  UNL     1     -54.920   2.721  -0.584  1.00  0.00     0.177 HD
BRANCH  39  41
HETATM   41  C3  UNL     1     -54.777   4.321  -1.937  1.00  0.00     0.137 C
BRANCH  41  42
HETATM   42  C2  UNL     1     -53.649   4.901  -1.125  1.00  0.00     0.016 C
HETATM   43  C1  UNL     1     -52.358   4.899  -1.931  1.00  0.00     0.006 C
ENDBRANCH  41  42
ENDBRANCH  39  41
ENDBRANCH   1  39
TORSDOF 10
ENDMDL