MODEL 3
REMARK VINA RESULT: -6.829679159      4.978      9.052
REMARK  9 active torsions:
REMARK  status: ('A' for Active; 'I' for Inactive)
REMARK    1  A    between atoms: C2_2  and  N1_3
REMARK    2  A    between atoms: N1_3  and  C3_4
REMARK    3  A    between atoms: C4_7  and  C5_8
REMARK    4  A    between atoms: C5_8  and  N3_9
REMARK    5  A    between atoms: N4_12  and  C8_13
REMARK    6  A    between atoms: C8_13  and  C9_14
REMARK    7  A    between atoms: C9_14  and  N5_15
REMARK    8  A    between atoms: N5_15  and  C10_18
REMARK    9  A    between atoms: C10_18  and  C11_19
ROOT
HETATM    1  N3  UNL     1     -57.267   8.006   4.201  1.00  0.00    -0.384 N
HETATM    2  C6  UNL     1     -58.641   8.214   4.016  1.00  0.00     0.142 C
HETATM    3  C7  UNL     1     -59.372   8.506   5.353  1.00  0.00     0.141 C
HETATM    4  N4  UNL     1     -58.548   9.178   6.249  1.00  0.00    -0.389 N
HETATM    5  C18 UNL     1     -57.473   9.943   5.630  1.00  0.00     0.141 C
HETATM    6  C19 UNL     1     -56.534   8.943   5.003  1.00  0.00     0.142 C
ENDROOT
BRANCH   4   7
HETATM    7  C8  UNL     1     -58.377   8.880   7.583  1.00  0.00     0.085 C
BRANCH   7   8
HETATM    8  C9  UNL     1     -58.046  10.049   8.456  1.00  0.00     0.277 C
BRANCH   8   9
HETATM    9  N5  UNL     1     -56.684   9.927   8.960  1.00  0.00    -0.067 N
ATOM     10  H52 UNL     1     -56.653   9.370   9.814  1.00  0.00     0.277 HD
ATOM     11  H51 UNL     1     -56.118   9.329   8.357  1.00  0.00     0.277 HD
BRANCH   9  12
HETATM   12  C10 UNL     1     -56.078  11.186   9.148  1.00  0.00     0.273 C
BRANCH  12  13
HETATM   13  C11 UNL     1     -54.784  11.456   8.544  1.00  0.00    -0.004 A
HETATM   14  C12 UNL     1     -54.415  10.935   7.339  1.00  0.00     0.011 A
HETATM   15  C13 UNL     1     -53.245  11.350   6.753  1.00  0.00     0.003 A
HETATM   16  C14 UNL     1     -52.427  12.289   7.358  1.00  0.00     0.032 A
HETATM   17  C15 UNL     1     -52.813  12.810   8.588  1.00  0.00     0.060 A
HETATM   18  N6  UNL     1     -52.215  13.706   9.393  1.00  0.00    -0.350 N
HETATM   19  C17 UNL     1     -53.984  12.393   9.180  1.00  0.00     0.068 A
HETATM   20  C16 UNL     1     -53.015  13.842  10.471  1.00  0.00     0.181 A
ATOM     21  H6  UNL     1     -51.332  14.188   9.223  1.00  0.00     0.166 HD
HETATM   22  N7  UNL     1     -54.086  13.049  10.351  1.00  0.00    -0.350 N
ATOM     23  H7  UNL     1     -54.844  12.957  11.027  1.00  0.00     0.166 HD
ENDBRANCH  12  13
ENDBRANCH   9  12
ENDBRANCH   8   9
ENDBRANCH   7   8
ENDBRANCH   4   7
BRANCH   1  24
HETATM   24  C5  UNL     1     -56.651   6.782   4.144  1.00  0.00     0.134 C
BRANCH  24  25
HETATM   25  C4  UNL     1     -56.274   6.246   2.811  1.00  0.00     0.123 A
HETATM   26  N2  UNL     1     -56.994   5.333   2.157  1.00  0.00    -0.315 N
HETATM   27  C3  UNL     1     -56.539   4.912   0.929  1.00  0.00     0.200 A
ATOM     28  H2  UNL     1     -57.855   4.959   2.556  1.00  0.00     0.170 HD
HETATM   29  C23 UNL     1     -55.344   5.460   0.417  1.00  0.00     0.089 A
HETATM   30  C20 UNL     1     -54.626   6.395   1.104  1.00  0.00     0.056 A
HETATM   31  S1  UNL     1     -54.423   5.246  -1.011  1.00  0.00    -0.095 SA
HETATM   32  N8  UNL     1     -55.138   6.764   2.321  1.00  0.00    -0.340 N
HETATM   33  C21 UNL     1     -53.491   6.843   0.516  1.00  0.00     0.038 A
ATOM     34  H8  UNL     1     -54.636   7.457   2.875  1.00  0.00     0.167 HD
HETATM   35  C22 UNL     1     -53.156   6.338  -0.702  1.00  0.00     0.053 A
BRANCH  27  36
HETATM   36  N1  UNL     1     -57.132   4.087   0.308  1.00  0.00    -0.390 NA
BRANCH  36  37
HETATM   37  C2  UNL     1     -58.134   3.468  -0.337  1.00  0.00     0.087 A
HETATM   38  C1  UNL     1     -59.292   2.717  -0.131  1.00  0.00     0.021 A
HETATM   39  C24 UNL     1     -58.951   2.994  -1.520  1.00  0.00     0.102 A
ENDBRANCH  36  37
ENDBRANCH  27  36
ENDBRANCH  24  25
ENDBRANCH   1  24
TORSDOF 9
ENDMDL