MODEL 4
REMARK VINA RESULT: -6.378273673      2.670      4.366
REMARK  5 active torsions:
REMARK  status: ('A' for Active; 'I' for Inactive)
REMARK    1  A    between atoms: C3_3  and  C4_4
REMARK    2  A    between atoms: C6_6  and  O1_7
REMARK    3  A    between atoms: C8_10  and  N1_11
REMARK    4  A    between atoms: C14_20  and  C15_21
REMARK    5  A    between atoms: C15_21  and  C17_23
ROOT
HETATM    1  C1  UNL     1      20.492 -22.476 -17.864  1.00  0.00     0.012 C
HETATM    2  C2  UNL     1      21.006 -21.845 -18.753  1.00  0.00    -0.114 C
HETATM    3  C3  UNL     1      21.607 -21.067 -19.828  1.00  0.00     0.120 C
ENDROOT
BRANCH   3   4
HETATM    4  C4  UNL     1      21.223 -21.564 -21.188  1.00  0.00    -0.005 C
HETATM    5  C5  UNL     1      21.078 -20.767 -22.192  1.00  0.00    -0.029 C
HETATM    6  C6  UNL     1      21.290 -19.312 -21.982  1.00  0.00     0.153 C
HETATM    7  C23 UNL     1      20.694 -21.231 -23.544  1.00  0.00    -0.060 C
HETATM    8  C7  UNL     1      20.118 -18.541 -22.613  1.00  0.00     0.070 C
HETATM    9  C8  UNL     1      20.197 -18.760 -24.067  1.00  0.00     0.194 C
HETATM   10  C9  UNL     1      20.485 -20.115 -24.527  1.00  0.00     0.046 C
HETATM   11  C10 UNL     1      21.603 -19.985 -25.550  1.00  0.00     0.012 C
HETATM   12  C11 UNL     1      21.743 -21.274 -26.305  1.00  0.00     0.011 C
HETATM   13  C12 UNL     1      22.298 -22.262 -25.293  1.00  0.00    -0.033 C
HETATM   14  C13 UNL     1      23.533 -21.709 -24.718  1.00  0.00     0.016 C
HETATM   15  C14 UNL     1      22.257 -23.651 -25.773  1.00  0.00    -0.002 C
HETATM   16  C22 UNL     1      21.249 -22.413 -24.148  1.00  0.00     0.024 C
HETATM   17  C20 UNL     1      22.494 -24.401 -24.456  1.00  0.00     0.006 C
HETATM   18  C21 UNL     1      21.872 -23.511 -23.401  1.00  0.00     0.010 C
BRANCH   6  19
HETATM   19  O1  UNL     1      22.484 -18.813 -22.423  1.00  0.00    -0.391 OA
ATOM     20  H1  UNL     1      22.499 -17.883 -22.616  1.00  0.00     0.210 HD
ENDBRANCH   6  19
BRANCH   9  21
HETATM   21  N1  UNL     1      19.000 -18.257 -24.764  1.00  0.00    -0.074 N
ATOM     22  H13 UNL     1      19.183 -17.363 -25.220  1.00  0.00     0.274 HD
ATOM     23  H12 UNL     1      18.788 -18.817 -25.590  1.00  0.00     0.274 HD
ATOM     24  H11 UNL     1      18.194 -18.197 -24.140  1.00  0.00     0.274 HD
ENDBRANCH   9  21
BRANCH  15  25
HETATM   25  C15 UNL     1      22.874 -24.235 -26.916  1.00  0.00    -0.010 C
HETATM   26  C16 UNL     1      24.251 -24.812 -26.354  1.00  0.00     0.011 C
BRANCH  25  27
HETATM   27  C17 UNL     1      23.224 -23.596 -28.182  1.00  0.00    -0.019 C
HETATM   28  C18 UNL     1      22.054 -22.737 -28.730  1.00  0.00     0.010 C
HETATM   29  C19 UNL     1      24.394 -22.669 -28.193  1.00  0.00     0.010 C
ENDBRANCH  25  27
ENDBRANCH  15  25
ENDBRANCH   3   4
TORSDOF 5
ENDMDL