MODEL 3
REMARK VINA RESULT: -6.683822275      0.883      1.106
REMARK  5 active torsions:
REMARK  status: ('A' for Active; 'I' for Inactive)
REMARK    1  A    between atoms: C2_2  and  C3_3
REMARK    2  A    between atoms: C3_3  and  C4_4
REMARK    3  A    between atoms: C4_4  and  C5_6
REMARK    4  A    between atoms: C16_17  and  O2_18
REMARK    5  A    between atoms: C17_20  and  O3_21
ROOT
HETATM    1  C5  UNL     1      23.150 -18.896 -22.001  1.00  0.00     0.060 C
HETATM    2  C6  UNL     1      22.718 -18.193 -20.705  1.00  0.00     0.013 C
HETATM    3  C7  UNL     1      21.670 -19.149 -20.200  1.00  0.00     0.010 C
HETATM    4  C8  UNL     1      21.030 -19.764 -21.426  1.00  0.00    -0.039 C
HETATM    5  C9  UNL     1      19.591 -19.235 -21.490  1.00  0.00     0.015 C
HETATM    6  C10 UNL     1      21.026 -21.229 -21.250  1.00  0.00     0.010 C
HETATM    7  C11 UNL     1      21.108 -22.064 -22.476  1.00  0.00     0.006 C
HETATM    8  C12 UNL     1      22.056 -21.503 -23.485  1.00  0.00    -0.003 C
HETATM    9  C13 UNL     1      21.806 -20.057 -23.791  1.00  0.00    -0.004 C
HETATM   10  C14 UNL     1      20.481 -19.949 -24.513  1.00  0.00     0.008 C
HETATM   11  C15 UNL     1      20.741 -20.526 -25.912  1.00  0.00     0.041 C
HETATM   12  C16 UNL     1      20.970 -22.013 -25.697  1.00  0.00     0.087 C
HETATM   13  C17 UNL     1      21.476 -22.659 -26.977  1.00  0.00     0.153 C
HETATM   14  C18 UNL     1      22.950 -22.326 -26.967  1.00  0.00     0.035 C
HETATM   15  C19 UNL     1      23.351 -22.093 -25.546  1.00  0.00     0.011 C
HETATM   16  C20 UNL     1      22.099 -22.296 -24.748  1.00  0.00     0.027 C
HETATM   17  C21 UNL     1      21.806 -19.215 -22.585  1.00  0.00     0.009 C
ENDROOT
BRANCH   1  18
HETATM   18  C4  UNL     1      23.992 -18.000 -22.816  1.00  0.00     0.131 C
HETATM   19  O1  UNL     1      24.526 -17.041 -22.309  1.00  0.00    -0.298 OA
BRANCH  18  20
HETATM   20  C3  UNL     1      24.241 -18.201 -24.264  1.00  0.00     0.078 C
BRANCH  20  21
HETATM   21  C2  UNL     1      25.166 -17.171 -24.842  1.00  0.00     0.003 C
HETATM   22  C1  UNL     1      26.528 -17.768 -25.183  1.00  0.00     0.005 C
ENDBRANCH  20  21
ENDBRANCH  18  20
ENDBRANCH   1  18
BRANCH  12  23
HETATM   23  O2  UNL     1      19.760 -22.555 -25.281  1.00  0.00    -0.387 OA
ATOM     24  H2  UNL     1      19.807 -22.644 -24.337  1.00  0.00     0.210 HD
ENDBRANCH  12  23
BRANCH  13  25
HETATM   25  O3  UNL     1      20.798 -22.097 -28.034  1.00  0.00    -0.393 OA
ATOM     26  H3  UNL     1      19.868 -22.220 -27.886  1.00  0.00     0.210 HD
ENDBRANCH  13  25
TORSDOF 5
ENDMDL