MODEL 3
REMARK VINA RESULT: -6.625576480      1.682      2.893
REMARK  3 active torsions:
REMARK  status: ('A' for Active; 'I' for Inactive)
REMARK    1  A    between atoms: C2_2  and  O1_3
REMARK    2  A    between atoms: O1_3  and  C3_4
REMARK    3  A    between atoms: C6_7  and  C7_8
ROOT
HETATM    1  C3  UNL     1      21.123 -18.713 -21.461  1.00  0.00     0.121 C
HETATM    2  C4  UNL     1      20.723 -20.172 -21.342  1.00  0.00     0.033 C
HETATM    3  C5  UNL     1      21.615 -21.082 -22.117  1.00  0.00     0.024 C
HETATM    4  C6  UNL     1      22.214 -20.484 -23.361  1.00  0.00     0.056 C
HETATM    5  C8  UNL     1      21.355 -19.333 -23.890  1.00  0.00     0.007 C
HETATM    6  C9  UNL     1      20.111 -19.780 -24.578  1.00  0.00     0.006 C
HETATM    7  C10 UNL     1      20.426 -20.733 -25.709  1.00  0.00     0.006 C
HETATM    8  C11 UNL     1      21.090 -21.943 -25.027  1.00  0.00    -0.004 C
HETATM    9  C12 UNL     1      21.139 -23.082 -25.942  1.00  0.00    -0.002 C
HETATM   10  C13 UNL     1      20.770 -22.713 -27.387  1.00  0.00     0.006 C
HETATM   11  C14 UNL     1      21.193 -23.941 -28.166  1.00  0.00     0.001 C
HETATM   12  C15 UNL     1      22.542 -24.252 -27.525  1.00  0.00     0.009 C
HETATM   13  C16 UNL     1      22.404 -23.828 -26.077  1.00  0.00    -0.040 C
HETATM   14  C17 UNL     1      22.359 -25.076 -25.184  1.00  0.00     0.015 C
HETATM   15  C18 UNL     1      23.642 -23.077 -25.710  1.00  0.00     0.010 C
HETATM   16  C19 UNL     1      23.403 -22.520 -24.293  1.00  0.00     0.007 C
HETATM   17  C20 UNL     1      22.404 -21.423 -24.496  1.00  0.00     0.009 C
HETATM   18  C21 UNL     1      21.101 -18.261 -22.894  1.00  0.00     0.038 C
ENDROOT
BRANCH   1  19
HETATM   19  O1  UNL     1      20.283 -17.991 -20.647  1.00  0.00    -0.386 OA
BRANCH  19  20
HETATM   20  C2  UNL     1      20.964 -17.175 -19.747  1.00  0.00     0.163 C
HETATM   21  C1  UNL     1      22.439 -17.113 -20.074  1.00  0.00     0.033 C
ENDBRANCH  19  20
ENDBRANCH   1  19
BRANCH   4  22
HETATM   22  C7  UNL     1      23.523 -19.879 -23.014  1.00  0.00     0.182 C
HETATM   23  O2  UNL     1      24.072 -20.213 -21.922  1.00  0.00    -0.647 OA
HETATM   24  O3  UNL     1      24.197 -18.963 -23.806  1.00  0.00    -0.647 OA
ENDBRANCH   4  22
TORSDOF 3
ENDMDL