MODEL 4
REMARK VINA RESULT: -6.850967754      1.679      6.541
REMARK  4 active torsions:
REMARK  status: ('A' for Active; 'I' for Inactive)
REMARK    1  A    between atoms: C2_2  and  C3_3
REMARK    2  A    between atoms: C2_2  and  C5_7
REMARK    3  A    between atoms: C3_3  and  C4_4
REMARK    4  A    between atoms: C14_16  and  O3_17
ROOT
HETATM    1  C5  UNL     1      21.582 -23.133 -24.974  1.00  0.00    -0.002 C
HETATM    2  C6  UNL     1      20.776 -22.261 -25.958  1.00  0.00     0.006 C
HETATM    3  C7  UNL     1      20.093 -21.243 -25.020  1.00  0.00     0.006 C
HETATM    4  C8  UNL     1      21.258 -20.936 -24.165  1.00  0.00    -0.002 C
HETATM    5  C9  UNL     1      21.074 -20.222 -22.894  1.00  0.00    -0.005 C
HETATM    6  C10 UNL     1      20.276 -18.915 -23.067  1.00  0.00     0.006 C
HETATM    7  C11 UNL     1      20.141 -18.400 -21.625  1.00  0.00     0.006 C
HETATM    8  C12 UNL     1      21.459 -17.969 -21.072  1.00  0.00    -0.001 C
HETATM    9  C13 UNL     1      21.666 -18.225 -19.595  1.00  0.00     0.038 C
HETATM   10  C14 UNL     1      22.528 -19.438 -19.983  1.00  0.00     0.127 C
HETATM   11  C15 UNL     1      22.595 -18.894 -21.346  1.00  0.00    -0.010 C
HETATM   12  C16 UNL     1      23.870 -18.033 -21.485  1.00  0.00     0.018 C
HETATM   13  C17 UNL     1      22.489 -19.751 -22.544  1.00  0.00     0.001 C
HETATM   14  C18 UNL     1      23.506 -20.823 -22.604  1.00  0.00     0.007 C
HETATM   15  C19 UNL     1      23.169 -22.136 -23.206  1.00  0.00     0.010 C
HETATM   16  C20 UNL     1      21.835 -22.313 -23.814  1.00  0.00    -0.036 C
HETATM   17  C21 UNL     1      20.911 -22.812 -22.676  1.00  0.00     0.016 C
ENDROOT
BRANCH   1  18
HETATM   18  C2  UNL     1      22.585 -23.893 -25.719  1.00  0.00    -0.004 C
HETATM   19  C1  UNL     1      23.164 -25.049 -24.880  1.00  0.00     0.011 C
BRANCH  18  20
HETATM   20  C3  UNL     1      23.693 -23.160 -26.413  1.00  0.00     0.117 C
BRANCH  20  21
HETATM   21  C4  UNL     1      23.407 -23.231 -27.894  1.00  0.00     0.172 C
HETATM   22  O1  UNL     1      23.973 -22.507 -28.741  1.00  0.00    -0.648 OA
HETATM   23  O2  UNL     1      22.462 -24.147 -28.383  1.00  0.00    -0.648 OA
ENDBRANCH  20  21
ENDBRANCH  18  20
ENDBRANCH   1  18
BRANCH  10  24
HETATM   24  O3  UNL     1      21.942 -20.646 -19.732  1.00  0.00    -0.395 OA
ATOM     25  H3  UNL     1      22.556 -21.355 -19.587  1.00  0.00     0.210 HD
ENDBRANCH  10  24
TORSDOF 4
ENDMDL