MODEL 5
REMARK VINA RESULT: -5.011783231      1.877      4.137
REMARK  5 active torsions:
REMARK  status: ('A' for Active; 'I' for Inactive)
REMARK    1  A    between atoms: C2_2  and  C3_3
REMARK    2  A    between atoms: C3_3  and  C4_4
REMARK    3  A    between atoms: C6_6  and  O1_7
REMARK    4  A    between atoms: C20_22  and  C21_23
REMARK    5  A    between atoms: C21_23  and  O2_24
ROOT
HETATM    1  C4  UNL     1      23.005 -18.722 -21.333  1.00  0.00    -0.010 C
HETATM    2  C5  UNL     1      24.044 -19.434 -20.424  1.00  0.00     0.018 C
HETATM    3  C6  UNL     1      22.129 -17.950 -20.401  1.00  0.00     0.127 C
HETATM    4  C7  UNL     1      20.920 -18.639 -19.853  1.00  0.00     0.033 C
HETATM    5  C8  UNL     1      20.202 -19.476 -20.895  1.00  0.00     0.012 C
HETATM    6  C9  UNL     1      21.192 -20.423 -21.408  1.00  0.00    -0.038 C
HETATM    7  C10 UNL     1      21.621 -21.353 -20.309  1.00  0.00     0.015 C
HETATM    8  C11 UNL     1      20.683 -21.390 -22.495  1.00  0.00     0.015 C
HETATM    9  C12 UNL     1      20.708 -20.470 -23.637  1.00  0.00    -0.000 C
HETATM   10  C13 UNL     1      20.359 -20.912 -24.981  1.00  0.00    -0.004 C
HETATM   11  C14 UNL     1      19.876 -19.616 -25.660  1.00  0.00     0.005 C
HETATM   12  C15 UNL     1      20.805 -18.479 -25.457  1.00  0.00     0.001 C
HETATM   13  C16 UNL     1      21.687 -18.444 -24.276  1.00  0.00     0.010 C
HETATM   14  C17 UNL     1      22.035 -19.682 -23.572  1.00  0.00    -0.031 C
HETATM   15  C18 UNL     1      23.085 -20.374 -24.413  1.00  0.00     0.011 C
HETATM   16  C19 UNL     1      22.702 -20.972 -25.674  1.00  0.00     0.008 C
HETATM   17  C20 UNL     1      21.351 -21.516 -25.880  1.00  0.00     0.014 C
HETATM   18  C22 UNL     1      22.358 -19.762 -22.156  1.00  0.00     0.013 C
ENDROOT
BRANCH   1  19
HETATM   19  C3  UNL     1      23.834 -17.692 -22.052  1.00  0.00     0.038 C
BRANCH  19  20
HETATM   20  C2  UNL     1      24.582 -16.870 -21.061  1.00  0.00    -0.036 C
HETATM   21  C1  UNL     1      24.877 -15.582 -21.267  1.00  0.00     0.007 C
ENDBRANCH  19  20
ENDBRANCH   1  19
BRANCH   3  22
HETATM   22  O1  UNL     1      21.686 -16.713 -20.943  1.00  0.00    -0.395 OA
ATOM     23  H1  UNL     1      21.206 -16.811 -21.758  1.00  0.00     0.210 HD
ENDBRANCH   3  22
BRANCH  17  24
HETATM   24  C21 UNL     1      21.280 -23.015 -26.065  1.00  0.00     0.169 C
BRANCH  24  25
HETATM   25  O2  UNL     1      21.244 -23.398 -27.392  1.00  0.00    -0.400 OA
ATOM     26  H2  UNL     1      21.971 -23.958 -27.640  1.00  0.00     0.209 HD
ENDBRANCH  24  25
ENDBRANCH  17  24
TORSDOF 5
ENDMDL