MODEL 3
REMARK VINA RESULT: -6.998525594      1.931      3.251
REMARK  4 active torsions:
REMARK  status: ('A' for Active; 'I' for Inactive)
REMARK    1  A    between atoms: C2_2  and  C3_3
REMARK    2  A    between atoms: C2_2  and  C20_24
REMARK    3  A    between atoms: C12_12  and  N1_13
REMARK    4  A    between atoms: C20_24  and  O1_27
ROOT
HETATM    1  C3  UNL     1      21.761 -20.088 -21.921  1.00  0.00     0.001 C
HETATM    2  C4  UNL     1      23.229 -20.350 -21.993  1.00  0.00     0.006 C
HETATM    3  C5  UNL     1      23.557 -19.724 -23.332  1.00  0.00     0.006 C
HETATM    4  C6  UNL     1      22.354 -19.983 -24.168  1.00  0.00    -0.002 C
HETATM    5  C7  UNL     1      22.588 -20.872 -25.336  1.00  0.00    -0.005 C
HETATM    6  C8  UNL     1      23.528 -22.000 -25.153  1.00  0.00     0.006 C
HETATM    7  C9  UNL     1      23.170 -23.253 -25.918  1.00  0.00     0.012 C
HETATM    8  C10 UNL     1      22.539 -23.013 -27.238  1.00  0.00    -0.012 A
HETATM    9  C11 UNL     1      23.562 -22.891 -28.361  1.00  0.00     0.018 C
HETATM   10  C12 UNL     1      21.471 -24.070 -27.550  1.00  0.00     0.192 A
HETATM   11  C13 UNL     1      20.421 -22.986 -27.661  1.00  0.00     0.039 A
HETATM   12  C14 UNL     1      21.455 -21.993 -27.244  1.00  0.00     0.002 A
HETATM   13  C15 UNL     1      21.248 -21.289 -25.943  1.00  0.00    -0.005 C
HETATM   14  C16 UNL     1      20.362 -21.956 -24.971  1.00  0.00     0.006 C
HETATM   15  C17 UNL     1      20.725 -21.791 -23.511  1.00  0.00     0.010 C
HETATM   16  C18 UNL     1      21.216 -20.426 -23.246  1.00  0.00    -0.036 C
HETATM   17  C19 UNL     1      20.001 -19.494 -23.466  1.00  0.00     0.016 C
ENDROOT
BRANCH   1  18
HETATM   18  C2  UNL     1      21.061 -20.280 -20.672  1.00  0.00     0.020 C
HETATM   19  C1  UNL     1      21.892 -19.596 -19.533  1.00  0.00     0.013 C
BRANCH  18  20
HETATM   20  C20 UNL     1      20.804 -21.639 -20.108  1.00  0.00     0.054 C
HETATM   21  C21 UNL     1      19.285 -21.845 -20.398  1.00  0.00     0.045 C
HETATM   22  C22 UNL     1      20.959 -21.813 -18.645  1.00  0.00     0.045 C
BRANCH  20  23
HETATM   23  O1  UNL     1      21.380 -22.704 -20.747  1.00  0.00    -0.390 OA
ATOM     24  H1  UNL     1      22.318 -22.816 -20.647  1.00  0.00     0.210 HD
ENDBRANCH  20  23
ENDBRANCH  18  20
ENDBRANCH   1  18
BRANCH  10  25
HETATM   25  N1  UNL     1      21.763 -24.789 -28.753  1.00  0.00    -0.074 N
ATOM     26  H13 UNL     1      21.527 -25.777 -28.660  1.00  0.00     0.274 HD
ATOM     27  H12 UNL     1      21.115 -24.539 -29.500  1.00  0.00     0.274 HD
ATOM     28  H11 UNL     1      22.731 -24.666 -29.048  1.00  0.00     0.274 HD
ENDBRANCH  10  25
TORSDOF 4
ENDMDL