MODEL 4
REMARK VINA RESULT: -6.863828640      2.035      2.697
REMARK  6 active torsions:
REMARK  status: ('A' for Active; 'I' for Inactive)
REMARK    1  A    between atoms: C7_7  and  C8_8
REMARK    2  A    between atoms: C8_8  and  C14_14
REMARK    3  A    between atoms: C9_9  and  C10_10
REMARK    4  A    between atoms: C10_10  and  C11_11
REMARK    5  A    between atoms: C14_14  and  C15_15
REMARK    6  A    between atoms: C23_24  and  O1_25
ROOT
HETATM    1  C1  UNL     1      22.407 -25.771 -24.896  1.00  0.00     0.013 C
HETATM    2  C2  UNL     1      22.656 -24.658 -25.252  1.00  0.00    -0.104 C
HETATM    3  C3  UNL     1      22.967 -23.340 -25.699  1.00  0.00     0.053 C
HETATM    4  C4  UNL     1      23.180 -22.307 -24.639  1.00  0.00     0.036 C
HETATM    5  C5  UNL     1      21.795 -22.146 -24.093  1.00  0.00    -0.031 C
HETATM    6  C6  UNL     1      21.516 -23.108 -22.957  1.00  0.00     0.016 C
HETATM    7  C7  UNL     1      21.309 -20.830 -23.689  1.00  0.00     0.023 C
HETATM    8  C17 UNL     1      21.164 -20.131 -24.999  1.00  0.00     0.010 C
HETATM    9  C18 UNL     1      20.157 -21.137 -25.624  1.00  0.00     0.006 C
HETATM   10  C19 UNL     1      20.862 -22.466 -25.299  1.00  0.00     0.000 C
HETATM   11  C20 UNL     1      21.793 -22.684 -26.402  1.00  0.00     0.014 C
HETATM   12  C21 UNL     1      21.546 -23.719 -27.427  1.00  0.00     0.009 C
HETATM   13  C22 UNL     1      22.981 -23.967 -27.933  1.00  0.00     0.034 C
HETATM   14  C23 UNL     1      23.904 -23.359 -26.858  1.00  0.00     0.139 C
ENDROOT
BRANCH  14  15
HETATM   15  O1  UNL     1      24.282 -22.095 -27.245  1.00  0.00    -0.394 OA
ATOM     16  H1  UNL     1      25.014 -21.767 -26.737  1.00  0.00     0.210 HD
ENDBRANCH  14  15
BRANCH   7  17
HETATM   17  C8  UNL     1      21.849 -20.082 -22.552  1.00  0.00    -0.074 C
HETATM   18  C9  UNL     1      23.099 -19.798 -22.338  1.00  0.00     0.012 C
BRANCH  18  19
HETATM   19  C10 UNL     1      23.911 -19.116 -21.355  1.00  0.00     0.065 C
BRANCH  19  20
HETATM   20  C11 UNL     1      24.180 -17.729 -21.383  1.00  0.00    -0.079 C
HETATM   21  C12 UNL     1      24.455 -16.556 -21.409  1.00  0.00    -0.106 C
HETATM   22  C13 UNL     1      24.767 -15.131 -21.427  1.00  0.00     0.112 C
ENDBRANCH  19  20
ENDBRANCH  18  19
BRANCH  17  23
HETATM   23  C14 UNL     1      20.801 -19.567 -21.606  1.00  0.00     0.048 C
BRANCH  23  24
HETATM   24  C15 UNL     1      19.927 -20.698 -21.065  1.00  0.00     0.128 C
HETATM   25  C16 UNL     1      20.687 -21.420 -20.014  1.00  0.00     0.059 C
HETATM   26  N1  UNL     1      21.283 -21.995 -19.209  1.00  0.00    -0.197 NA
ENDBRANCH  23  24
ENDBRANCH  17  23
ENDBRANCH   7  17
TORSDOF 6
ENDMDL