MODEL 3
REMARK VINA RESULT: -6.212522795      1.799      5.416
REMARK  5 active torsions:
REMARK  status: ('A' for Active; 'I' for Inactive)
REMARK    1  A    between atoms: C2_2  and  C3_3
REMARK    2  A    between atoms: N1_9  and  C9_10
REMARK    3  A    between atoms: C9_10  and  C10_11
REMARK    4  A    between atoms: C10_11  and  O1_13
REMARK    5  A    between atoms: C18_21  and  O2_22
ROOT
HETATM    1  C3  UNL     1      21.260 -20.819 -20.879  1.00  0.00    -0.010 C
HETATM    2  C4  UNL     1      21.925 -21.838 -21.755  1.00  0.00     0.006 C
HETATM    3  C5  UNL     1      22.930 -21.338 -22.721  1.00  0.00     0.010 C
HETATM    4  C6  UNL     1      22.567 -19.962 -23.307  1.00  0.00    -0.033 C
HETATM    5  C7  UNL     1      22.864 -19.992 -24.800  1.00  0.00     0.029 C
HETATM    6  C8  UNL     1      22.096 -18.946 -25.565  1.00  0.00     0.117 C
HETATM    7  N1  UNL     1      20.705 -19.131 -25.322  1.00  0.00    -0.410 N
HETATM    8  C12 UNL     1      20.410 -18.844 -23.964  1.00  0.00     0.122 C
HETATM    9  C13 UNL     1      21.116 -19.793 -23.065  1.00  0.00     0.017 C
HETATM   10  C14 UNL     1      20.899 -19.546 -21.580  1.00  0.00     0.001 C
HETATM   11  C15 UNL     1      21.650 -18.354 -21.201  1.00  0.00     0.001 C
HETATM   12  C16 UNL     1      21.504 -17.761 -19.863  1.00  0.00     0.008 C
HETATM   13  C17 UNL     1      22.625 -16.715 -19.863  1.00  0.00     0.033 C
HETATM   14  C18 UNL     1      23.385 -16.905 -21.186  1.00  0.00     0.126 C
HETATM   15  C19 UNL     1      23.137 -18.417 -21.379  1.00  0.00    -0.013 C
HETATM   16  C20 UNL     1      23.905 -19.040 -20.263  1.00  0.00     0.018 C
HETATM   17  C21 UNL     1      23.463 -18.921 -22.712  1.00  0.00     0.022 C
ENDROOT
BRANCH   7  18
HETATM   18  C9  UNL     1      20.114 -20.272 -25.909  1.00  0.00     0.148 C
BRANCH  18  19
HETATM   19  C10 UNL     1      21.058 -21.439 -26.066  1.00  0.00     0.131 C
HETATM   20  C11 UNL     1      21.001 -21.957 -27.512  1.00  0.00     0.041 C
BRANCH  19  21
HETATM   21  O1  UNL     1      20.701 -22.518 -25.276  1.00  0.00    -0.394 OA
ATOM     22  H1  UNL     1      19.928 -22.965 -25.601  1.00  0.00     0.210 HD
ENDBRANCH  19  21
ENDBRANCH  18  19
ENDBRANCH   7  18
BRANCH   1  23
HETATM   23  C2  UNL     1      19.935 -21.470 -20.446  1.00  0.00     0.000 C
HETATM   24  C1  UNL     1      20.090 -22.374 -19.271  1.00  0.00     0.005 C
ENDBRANCH   1  23
BRANCH  14  25
HETATM   25  O2  UNL     1      24.722 -16.626 -21.044  1.00  0.00    -0.395 OA
ATOM     26  H2  UNL     1      25.019 -16.785 -20.157  1.00  0.00     0.210 HD
ENDBRANCH  14  25
TORSDOF 5
ENDMDL