MODEL 1
REMARK VINA RESULT: -8.886110617      0.000      0.000
REMARK  5 active torsions:
REMARK  status: ('A' for Active; 'I' for Inactive)
REMARK    1  A    between atoms: C2_2  and  C4_4
REMARK    2  A    between atoms: C5_5  and  C6_6
REMARK    3  A    between atoms: C7_7  and  C8_8
REMARK    4  A    between atoms: C11_11  and  O1_12
REMARK    5  A    between atoms: C22_24  and  O2_25
ROOT
HETATM    1  C8  UNL     1      22.294 -19.542 -23.548  1.00  0.00     0.008 C
HETATM    2  C9  UNL     1      22.088 -18.497 -24.659  1.00  0.00     0.019 C
HETATM    3  C10 UNL     1      20.949 -18.831 -25.553  1.00  0.00     0.033 C
HETATM    4  C11 UNL     1      19.618 -18.863 -24.853  1.00  0.00     0.118 C
HETATM    5  C12 UNL     1      19.919 -18.713 -23.360  1.00  0.00     0.038 C
HETATM    6  C13 UNL     1      20.935 -19.748 -22.913  1.00  0.00     0.011 C
HETATM    7  C14 UNL     1      20.947 -19.920 -21.445  1.00  0.00    -0.035 C
HETATM    8  C15 UNL     1      20.662 -18.685 -20.643  1.00  0.00     0.016 C
HETATM    9  C16 UNL     1      19.830 -20.911 -21.092  1.00  0.00     0.010 C
HETATM   10  C17 UNL     1      20.272 -21.955 -20.122  1.00  0.00     0.001 C
HETATM   11  C18 UNL     1      21.042 -21.425 -18.948  1.00  0.00     0.000 C
HETATM   12  C19 UNL     1      22.236 -20.679 -19.443  1.00  0.00     0.005 C
HETATM   13  C20 UNL     1      22.240 -20.522 -20.953  1.00  0.00    -0.004 C
HETATM   14  C21 UNL     1      23.422 -19.645 -21.304  1.00  0.00     0.038 C
HETATM   15  C22 UNL     1      23.253 -18.929 -22.599  1.00  0.00     0.131 C
ENDROOT
BRANCH   1  16
HETATM   16  C7  UNL     1      22.765 -20.752 -24.255  1.00  0.00    -0.014 C
HETATM   17  C6  UNL     1      22.253 -21.947 -24.228  1.00  0.00    -0.003 C
BRANCH  17  18
HETATM   18  C5  UNL     1      22.797 -23.081 -24.966  1.00  0.00     0.000 C
HETATM   19  C4  UNL     1      22.806 -23.143 -26.279  1.00  0.00     0.006 C
BRANCH  19  20
HETATM   20  C2  UNL     1      23.363 -24.298 -26.945  1.00  0.00    -0.071 C
HETATM   21  C1  UNL     1      22.776 -24.844 -28.008  1.00  0.00     0.018 C
HETATM   22  C3  UNL     1      24.628 -24.912 -26.445  1.00  0.00     0.047 C
ENDBRANCH  19  20
ENDBRANCH  17  18
ENDBRANCH   1  16
BRANCH  15  23
HETATM   23  O2  UNL     1      24.454 -18.671 -23.253  1.00  0.00    -0.394 OA
ATOM     24  H2  UNL     1      25.155 -18.605 -22.615  1.00  0.00     0.210 HD
ENDBRANCH  15  23
BRANCH   4  25
HETATM   25  O1  UNL     1      18.903 -17.701 -25.200  1.00  0.00    -0.396 OA
ATOM     26  H1  UNL     1      18.469 -17.852 -26.031  1.00  0.00     0.210 HD
ENDBRANCH   4  25
TORSDOF 5
ENDMDL