MODEL 2
REMARK VINA RESULT: -2.198125784     10.229     12.006
REMARK  3 active torsions:
REMARK  status: ('A' for Active; 'I' for Inactive)
REMARK       I    between atoms: C1_2  and  N1_3
REMARK       I    between atoms: C1_2  and  N2_12
REMARK    1  A    between atoms: N1_3  and  C2_5
REMARK    2  A    between atoms: N2_12  and  C9_14
REMARK    3  A    between atoms: N3_17  and  C12_18
ROOT
HETATM    1  C9  UNL     1      24.108 -17.365 -23.591  1.00  0.00     0.089 C
HETATM    2  C10 UNL     1      23.442 -18.632 -24.065  1.00  0.00     0.055 C
HETATM    3  C11 UNL     1      22.173 -18.885 -23.243  1.00  0.00     0.275 C
HETATM    4  N3  UNL     1      22.551 -19.027 -21.884  1.00  0.00     0.093 N
HETATM    5  C19 UNL     1      23.096 -17.765 -21.422  1.00  0.00     0.275 C
HETATM    6  C20 UNL     1      24.451 -17.588 -22.120  1.00  0.00     0.055 C
ENDROOT
BRANCH   1   7
HETATM    7  N2  UNL     1      25.238 -17.060 -24.397  1.00  0.00    -0.338 N
HETATM    8  C1  UNL     1      26.119 -18.098 -24.795  1.00  0.00     0.316 C
HETATM    9  O1  UNL     1      25.945 -19.305 -24.462  1.00  0.00    -0.247 OA
HETATM   10  N1  UNL     1      27.256 -17.814 -25.601  1.00  0.00    -0.339 N
ATOM     11  H1  UNL     1      27.422 -16.848 -25.882  1.00  0.00     0.164 HD
ATOM     12  H2  UNL     1      25.415 -16.099 -24.688  1.00  0.00     0.164 HD
BRANCH  10  13
HETATM   13  C2  UNL     1      28.184 -18.824 -26.038  1.00  0.00     0.086 C
HETATM   14  C3  UNL     1      29.067 -18.359 -27.174  1.00  0.00     0.025 C
HETATM   15  C4  UNL     1      29.297 -19.503 -28.100  1.00  0.00     0.002 C
HETATM   16  C5  UNL     1      30.259 -20.531 -27.606  1.00  0.00     0.000 C
HETATM   17  C6  UNL     1      29.997 -21.002 -26.206  1.00  0.00     0.000 C
HETATM   18  C7  UNL     1      30.312 -19.888 -25.233  1.00  0.00     0.002 C
HETATM   19  C8  UNL     1      29.029 -19.221 -24.848  1.00  0.00     0.025 C
ENDBRANCH  10  13
ENDBRANCH   1   7
BRANCH   4  20
HETATM   20  C12 UNL     1      21.536 -19.541 -21.005  1.00  0.00     0.223 C
HETATM   21  C13 UNL     1      22.154 -20.373 -19.930  1.00  0.00     0.036 C
HETATM   22  C14 UNL     1      21.172 -20.826 -18.883  1.00  0.00     0.002 C
HETATM   23  C15 UNL     1      20.815 -22.268 -19.196  1.00  0.00     0.000 C
HETATM   24  C16 UNL     1      20.455 -22.395 -20.641  1.00  0.00     0.000 C
HETATM   25  C17 UNL     1      19.637 -21.195 -21.033  1.00  0.00     0.002 C
HETATM   26  C18 UNL     1      20.428 -20.160 -21.756  1.00  0.00     0.036 C
ENDBRANCH   4  20
TORSDOF 3
ENDMDL