MODEL 4
REMARK VINA RESULT: -7.242472844      1.943      2.506
REMARK  6 active torsions:
REMARK  status: ('A' for Active; 'I' for Inactive)
REMARK    1  A    between atoms: N1_1  and  C1_4
REMARK    2  A    between atoms: C2_7  and  O1_8
REMARK    3  A    between atoms: C3_10  and  C4_11
REMARK    4  A    between atoms: C4_11  and  C5_12
REMARK    5  A    between atoms: N3_15  and  N4_16
REMARK    6  A    between atoms: N5_19  and  O2_20
ROOT
HETATM    1  C1  UNL     1      17.102  67.614  22.353  1.00  0.00     0.678 A
HETATM    2  N2  UNL     1      17.779  67.194  23.426  1.00  0.00    -0.169 N
ATOM      3  H2  UNL     1      18.783  67.304  23.566  1.00  0.00     0.186 HD
HETATM    4  C2  UNL     1      16.939  66.605  24.293  1.00  0.00     0.179 A
HETATM    5  C3  UNL     1      15.684  66.659  23.741  1.00  0.00     0.082 A
HETATM    6  N6  UNL     1      15.813  67.279  22.559  1.00  0.00    -0.191 N
ATOM      7  H6  UNL     1      15.049  67.469  21.910  1.00  0.00     0.184 HD
ENDROOT
BRANCH   5   8
HETATM    8  C4  UNL     1      14.417  66.160  24.287  1.00  0.00     0.102 C
BRANCH   8   9
HETATM    9  C5  UNL     1      13.905  64.942  23.648  1.00  0.00    -0.031 A
HETATM   10  C6  UNL     1      12.563  64.659  23.643  1.00  0.00     0.030 A
HETATM   11  C7  UNL     1      12.054  63.523  23.048  1.00  0.00     0.139 A
HETATM   12  N3  UNL     1      12.897  62.659  22.451  1.00  0.00    -0.189 N
HETATM   13  N5  UNL     1      14.198  62.913  22.444  1.00  0.00    -0.154 N
HETATM   14  C8  UNL     1      14.728  64.011  23.015  1.00  0.00     0.153 A
BRANCH  12  15
HETATM   15  N4  UNL     1      12.409  61.493  21.838  1.00  0.00    -0.323 N
ATOM     16  H42 UNL     1      11.507  61.509  21.362  1.00  0.00     0.179 HD
ATOM     17  H41 UNL     1      12.950  60.629  21.862  1.00  0.00     0.179 HD
ENDBRANCH  12  15
BRANCH  13  18
HETATM   18  O2  UNL     1      15.057  62.011  21.825  1.00  0.00    -0.267 OA
ATOM     19  H2  UNL     1      15.907  62.315  21.530  1.00  0.00     0.247 HD
ENDBRANCH  13  18
ENDBRANCH   8   9
ENDBRANCH   5   8
BRANCH   4  20
HETATM   20  O1  UNL     1      17.312  66.045  25.532  1.00  0.00    -0.344 OA
ATOM     21  H1  UNL     1      16.896  66.234  26.366  1.00  0.00     0.219 HD
ENDBRANCH   4  20
BRANCH   1  22
HETATM   22  N1  UNL     1      17.584  68.231  21.298  1.00  0.00    -0.234 N
ATOM     23  H12 UNL     1      18.238  69.014  21.306  1.00  0.00     0.174 HD
ATOM     24  H11 UNL     1      17.383  68.030  20.318  1.00  0.00     0.174 HD
ENDBRANCH   1  22
TORSDOF 6
ENDMDL