MODEL 4
REMARK VINA RESULT: -6.697301057      2.105      3.142
REMARK  3 active torsions:
REMARK  status: ('A' for Active; 'I' for Inactive)
REMARK    1  A    between atoms: C3_3  and  C4_4
REMARK    2  A    between atoms: C4_4  and  S1_5
REMARK    3  A    between atoms: S1_5  and  N1_6
ROOT
HETATM    1  C1  UNL     1      15.847  70.094  21.714  1.00  0.00     0.015 C
HETATM    2  C2  UNL     1      15.804  69.236  22.548  1.00  0.00    -0.074 C
HETATM    3  C3  UNL     1      15.765  68.205  23.566  1.00  0.00     0.193 C
HETATM    4  N2  UNL     1      16.889  68.260  24.480  1.00  0.00    -0.314 N
ATOM      5  H2  UNL     1      17.841  68.539  24.240  1.00  0.00     0.166 HD
HETATM    6  C5  UNL     1      16.437  67.860  25.767  1.00  0.00     0.324 C
HETATM    7  O3  UNL     1      17.145  67.471  26.755  1.00  0.00    -0.247 OA
HETATM    8  N3  UNL     1      15.030  67.956  25.806  1.00  0.00    -0.276 N
ATOM      9  H3  UNL     1      14.424  67.737  26.597  1.00  0.00     0.173 HD
HETATM   10  C6  UNL     1      14.624  68.422  24.520  1.00  0.00     0.267 C
HETATM   11  O4  UNL     1      13.536  68.933  24.159  1.00  0.00    -0.269 OA
ENDROOT
BRANCH   3  12
HETATM   12  C4  UNL     1      15.579  66.826  22.994  1.00  0.00     0.217 C
BRANCH  12  13
HETATM   13  S1  UNL     1      16.958  66.239  22.082  1.00  0.00     0.228 S
HETATM   14  O1  UNL     1      18.263  66.700  22.614  1.00  0.00    -0.206 OA
HETATM   15  O2  UNL     1      16.931  64.731  21.970  1.00  0.00    -0.206 OA
BRANCH  13  16
HETATM   16  N1  UNL     1      16.820  66.848  20.466  1.00  0.00    -0.328 N
ATOM     17  H12 UNL     1      15.945  66.982  19.959  1.00  0.00     0.168 HD
ATOM     18  H11 UNL     1      17.761  67.044  20.127  1.00  0.00     0.168 HD
ENDBRANCH  13  16
ENDBRANCH  12  13
ENDBRANCH   3  12
TORSDOF 3
ENDMDL