MODEL 3
REMARK VINA RESULT: -6.912427990      2.387      7.056
REMARK  2 active torsions:
REMARK  status: ('A' for Active; 'I' for Inactive)
REMARK       I    between atoms: N1_2  and  C3_4
REMARK       I    between atoms: C3_4  and  N4_9
REMARK    1  A    between atoms: N4_9  and  N5_11
REMARK    2  A    between atoms: C5_13  and  N6_14
REMARK       I    between atoms: N6_14  and  C6_16
ROOT
HETATM    1  C1  UNL     1      12.476  63.313  22.202  1.00  0.00     0.168 C
HETATM    2  N1  UNL     1      12.334  63.534  23.631  1.00  0.00    -0.225 N
HETATM    3  C2  UNL     1      12.159  62.435  24.565  1.00  0.00     0.168 C
HETATM    4  C3  UNL     1      12.364  64.848  24.160  1.00  0.00     0.703 C
HETATM    5  N2  UNL     1      11.238  65.446  24.348  1.00  0.00    -0.125 N
ATOM      6  H2  UNL     1      10.375  64.956  24.111  1.00  0.00     0.197 HD
HETATM    7  C4  UNL     1      11.157  66.745  24.865  1.00  0.00     0.196 C
HETATM    8  N3  UNL     1      11.081  67.833  25.284  1.00  0.00    -0.171 NA
HETATM    9  N4  UNL     1      13.615  65.449  24.458  1.00  0.00    -0.131 N
ATOM     10  H4  UNL     1      13.807  65.831  25.384  1.00  0.00     0.205 HD
ENDROOT
BRANCH   9  11
HETATM   11  N5  UNL     1      14.573  65.502  23.447  1.00  0.00    -0.282 N
HETATM   12  C5  UNL     1      15.765  65.885  23.687  1.00  0.00     0.200 C
ATOM     13  H5  UNL     1      14.316  65.230  22.498  1.00  0.00     0.188 HD
BRANCH  12  14
HETATM   14  N6  UNL     1      16.115  66.259  25.006  1.00  0.00    -0.325 N
HETATM   15  C6  UNL     1      15.932  67.644  25.347  1.00  0.00     0.202 C
HETATM   16  N7  UNL     1      14.615  68.133  25.579  1.00  0.00    -0.062 NA
HETATM   17  N8  UNL     1      16.968  68.374  25.424  1.00  0.00    -0.267 N
HETATM   18  C7  UNL     1      16.803  69.739  25.758  1.00  0.00     0.184 C
ATOM     19  H8  UNL     1      17.896  67.986  25.250  1.00  0.00     0.180 HD
HETATM   20  N9  UNL     1      16.649  70.855  26.031  1.00  0.00    -0.172 NA
ATOM     21  H6  UNL     1      16.477  65.583  25.678  1.00  0.00     0.169 HD
ENDBRANCH  12  14
ENDBRANCH   9  11
TORSDOF 2
ENDMDL