MODEL 1
REMARK VINA RESULT: -5.607267943      0.000      0.000
REMARK  4 active torsions:
REMARK  status: ('A' for Active; 'I' for Inactive)
REMARK    1  A    between atoms: N1_1  and  C1_5
REMARK    2  A    between atoms: C1_5  and  C2_6
REMARK    3  A    between atoms: C2_6  and  S1_7
REMARK    4  A    between atoms: S1_7  and  N2_8
ROOT
HETATM    1  C1  UNL     1      15.894  68.824  23.636  1.00  0.00     0.310 C
HETATM    2  C3  UNL     1      16.428  67.442  23.378  1.00  0.00     0.180 C
HETATM    3  S2  UNL     1      16.820  66.913  25.052  1.00  0.00     0.045 S
HETATM    4  O3  UNL     1      18.465  66.537  25.147  1.00  0.00    -0.256 OA
HETATM    5  C4  UNL     1      16.543  68.499  25.856  1.00  0.00     0.343 C
HETATM    6  N3  UNL     1      16.589  69.379  24.754  1.00  0.00    -0.028 N
ATOM      7  H31 UNL     1      16.238  70.305  24.996  1.00  0.00     0.281 HD
ATOM      8  H32 UNL     1      17.546  69.635  24.515  1.00  0.00     0.281 HD
ENDROOT
BRANCH   1   9
HETATM    9  N1  UNL     1      14.493  68.752  23.924  1.00  0.00    -0.043 N
ATOM     10  H13 UNL     1      14.268  69.245  24.787  1.00  0.00     0.277 HD
ATOM     11  H12 UNL     1      13.953  69.316  23.268  1.00  0.00     0.277 HD
ATOM     12  H11 UNL     1      14.151  67.791  23.951  1.00  0.00     0.277 HD
ENDBRANCH   1   9
BRANCH   1  13
HETATM   13  C2  UNL     1      16.201  69.774  22.494  1.00  0.00     0.233 C
BRANCH  13  14
HETATM   14  S1  UNL     1      15.591  71.397  22.739  1.00  0.00     0.228 S
HETATM   15  O1  UNL     1      14.811  71.583  23.982  1.00  0.00    -0.206 OA
HETATM   16  O2  UNL     1      14.826  71.879  21.539  1.00  0.00    -0.206 OA
BRANCH  14  17
HETATM   17  N2  UNL     1      16.985  72.438  22.866  1.00  0.00    -0.328 N
ATOM     18  H22 UNL     1      17.739  72.515  22.184  1.00  0.00     0.168 HD
ATOM     19  H21 UNL     1      16.892  72.943  23.748  1.00  0.00     0.168 HD
ENDBRANCH  14  17
ENDBRANCH  13  14
ENDBRANCH   1  13
TORSDOF 4
ENDMDL