MODEL 4
REMARK VINA RESULT: -7.046750304      1.354      1.531
REMARK  4 active torsions:
REMARK  status: ('A' for Active; 'I' for Inactive)
REMARK    1  A    between atoms: N1_1  and  S1_4
REMARK    2  A    between atoms: S1_4  and  N2_7
REMARK    3  A    between atoms: N2_7  and  N3_9
REMARK    4  A    between atoms: N3_9  and  C1_11
ROOT
HETATM    1  N3  UNL     1      16.131  69.312  21.341  1.00  0.00    -0.274 N
ATOM      2  H3  UNL     1      15.554  69.580  20.544  1.00  0.00     0.189 HD
ENDROOT
BRANCH   1   3
HETATM    3  N2  UNL     1      16.720  70.335  22.045  1.00  0.00    -0.209 N
ATOM      4  H2  UNL     1      17.671  70.639  21.834  1.00  0.00     0.201 HD
BRANCH   3   5
HETATM    5  S1  UNL     1      15.803  71.090  23.298  1.00  0.00     0.330 S
HETATM    6  O1  UNL     1      14.525  70.316  23.457  1.00  0.00    -0.181 OA
HETATM    7  O2  UNL     1      15.497  72.518  22.885  1.00  0.00    -0.181 OA
BRANCH   5   8
HETATM    8  N1  UNL     1      16.751  71.095  24.734  1.00  0.00    -0.310 N
ATOM      9  H12 UNL     1      16.406  71.452  25.625  1.00  0.00     0.170 HD
ATOM     10  H11 UNL     1      17.682  70.704  24.588  1.00  0.00     0.170 HD
ENDBRANCH   5   8
ENDBRANCH   3   5
ENDBRANCH   1   3
BRANCH   1  11
HETATM   11  C1  UNL     1      16.230  68.069  21.577  1.00  0.00     0.135 A
HETATM   12  C2  UNL     1      16.921  67.244  20.717  1.00  0.00     0.057 A
HETATM   13  C3  UNL     1      17.005  65.881  21.016  1.00  0.00     0.079 A
HETATM   14  C4  UNL     1      16.404  65.391  22.153  1.00  0.00     0.259 A
HETATM   15  O3  UNL     1      16.499  64.152  22.396  1.00  0.00    -0.267 OA
HETATM   16  N4  UNL     1      15.745  66.238  22.955  1.00  0.00    -0.265 N
HETATM   17  N5  UNL     1      15.658  67.549  22.678  1.00  0.00    -0.282 N
ATOM     18  H4  UNL     1      15.298  65.878  23.798  1.00  0.00     0.190 HD
ATOM     19  H5  UNL     1      15.148  68.163  23.314  1.00  0.00     0.188 HD
ENDBRANCH   1  11
TORSDOF 4
ENDMDL