MODEL 5
REMARK VINA RESULT: -6.737112965      3.125      3.972
REMARK  4 active torsions:
REMARK  status: ('A' for Active; 'I' for Inactive)
REMARK    1  A    between atoms: C2_3  and  C3_4
REMARK    2  A    between atoms: C3_4  and  N2_5
REMARK    3  A    between atoms: N2_5  and  C4_7
REMARK       I    between atoms: N5_13  and  C6_15
REMARK    4  A    between atoms: N8_21  and  O1_22
ROOT
HETATM    1  N1  UNL     1      12.053  62.803  22.155  1.00  0.00    -0.197 NA
HETATM    2  C1  UNL     1      11.318  63.609  22.541  1.00  0.00     0.060 C
HETATM    3  C2  UNL     1      10.400  64.650  23.038  1.00  0.00     0.144 C
ENDROOT
BRANCH   3   4
HETATM    4  C3  UNL     1      10.787  64.918  24.478  1.00  0.00     0.152 C
BRANCH   4   5
HETATM    5  N2  UNL     1      11.218  66.279  24.570  1.00  0.00    -0.222 N
ATOM      6  H2  UNL     1      10.509  66.996  24.725  1.00  0.00     0.177 HD
BRANCH   5   7
HETATM    7  C4  UNL     1      12.450  66.655  24.468  1.00  0.00     0.718 A
HETATM    8  N3  UNL     1      13.478  65.795  24.332  1.00  0.00    -0.129 N
HETATM    9  N4  UNL     1      14.745  66.201  24.228  1.00  0.00    -0.270 N
ATOM     10  H3  UNL     1      13.280  64.794  24.308  1.00  0.00     0.205 HD
HETATM   11  C5  UNL     1      15.079  67.504  24.252  1.00  0.00     0.141 A
ATOM     12  H4  UNL     1      15.482  65.503  24.127  1.00  0.00     0.189 HD
HETATM   13  N5  UNL     1      16.291  67.936  24.154  1.00  0.00    -0.315 N
HETATM   14  C7  UNL     1      14.037  68.399  24.390  1.00  0.00     0.192 A
HETATM   15  C6  UNL     1      17.417  67.123  24.012  1.00  0.00     0.187 C
ATOM     16  H5  UNL     1      16.437  68.945  24.183  1.00  0.00     0.170 HD
HETATM   17  N6  UNL     1      18.012  67.047  22.876  1.00  0.00    -0.373 N
HETATM   18  N7  UNL     1      17.916  66.372  25.122  1.00  0.00    -0.064 NA
ATOM     19  H62 UNL     1      17.656  67.583  22.085  1.00  0.00     0.158 HD
ATOM     20  H61 UNL     1      18.834  66.454  22.772  1.00  0.00     0.158 HD
HETATM   21  N8  UNL     1      12.766  67.963  24.494  1.00  0.00    -0.059 N
BRANCH  21  22
HETATM   22  O1  UNL     1      11.724  68.854  24.631  1.00  0.00    -0.270 OA
ATOM     23  H1  UNL     1      11.927  69.698  25.018  1.00  0.00     0.245 HD
ENDBRANCH  21  22
ENDBRANCH   5   7
ENDBRANCH   4   5
ENDBRANCH   3   4
TORSDOF 4
ENDMDL