MODEL 1
REMARK VINA RESULT: -7.417340039      0.000      0.000
REMARK  5 active torsions:
REMARK  status: ('A' for Active; 'I' for Inactive)
REMARK    1  A    between atoms: N1_1  and  N2_4
REMARK    2  A    between atoms: N2_4  and  C1_5
REMARK    3  A    between atoms: C1_5  and  C2_6
REMARK    4  A    between atoms: C2_6  and  N3_7
REMARK    5  A    between atoms: N3_7  and  C3_9
ROOT
HETATM    1  C3  UNL     1      16.436  68.771  21.902  1.00  0.00     0.685 C
HETATM    2  N4  UNL     1      16.654  68.515  23.205  1.00  0.00    -0.141 N
ATOM      3  H4  UNL     1      16.598  69.324  23.824  1.00  0.00     0.189 HD
HETATM    4  C4  UNL     1      16.938  67.339  23.812  1.00  0.00     0.341 C
HETATM    5  O1  UNL     1      16.941  67.348  25.082  1.00  0.00    -0.246 OA
HETATM    6  N5  UNL     1      17.220  66.145  23.262  1.00  0.00    -0.270 N
ATOM      7  H5  UNL     1      17.541  65.424  23.909  1.00  0.00     0.174 HD
HETATM    8  C5  UNL     1      17.135  65.773  21.962  1.00  0.00     0.318 C
HETATM    9  O2  UNL     1      17.206  64.532  21.759  1.00  0.00    -0.262 OA
HETATM   10  C6  UNL     1      16.982  66.608  20.885  1.00  0.00     0.328 C
HETATM   11  O3  UNL     1      17.118  66.043  19.771  1.00  0.00    -0.261 OA
HETATM   12  N6  UNL     1      16.711  67.924  20.893  1.00  0.00    -0.151 N
ATOM     13  H6  UNL     1      16.713  68.358  19.970  1.00  0.00     0.188 HD
ENDROOT
BRANCH   1  14
HETATM   14  N3  UNL     1      15.936  69.879  21.535  1.00  0.00    -0.220 N
ATOM     15  H3  UNL     1      16.226  70.252  20.631  1.00  0.00     0.178 HD
BRANCH  14  16
HETATM   16  C2  UNL     1      14.986  70.650  22.302  1.00  0.00     0.199 C
BRANCH  16  17
HETATM   17  C1  UNL     1      15.466  72.041  22.421  1.00  0.00     0.201 C
BRANCH  17  18
HETATM   18  N2  UNL     1      16.492  72.300  23.061  1.00  0.00    -0.348 NA
BRANCH  18  19
HETATM   19  N1  UNL     1      17.431  72.193  23.877  1.00  0.00    -0.281 N
ATOM     20  H12 UNL     1      18.101  72.753  23.349  1.00  0.00     0.191 HD
ATOM     21  H11 UNL     1      17.962  71.922  24.705  1.00  0.00     0.191 HD
ENDBRANCH  18  19
ENDBRANCH  17  18
ENDBRANCH  16  17
ENDBRANCH  14  16
ENDBRANCH   1  14
TORSDOF 5
ENDMDL