MODEL 5
REMARK VINA RESULT: -6.092241898      2.254      2.854
REMARK  3 active torsions:
REMARK  status: ('A' for Active; 'I' for Inactive)
REMARK       I    between atoms: C2_5  and  N4_7
REMARK    1  A    between atoms: N6_12  and  C5_13
REMARK    2  A    between atoms: C5_13  and  C6_14
REMARK    3  A    between atoms: C6_14  and  N7_15
ROOT
HETATM    1  N1  UNL     1      15.457  63.251  22.481  1.00  0.00    -0.172 NA
HETATM    2  C1  UNL     1      15.478  64.421  22.471  1.00  0.00     0.184 C
HETATM    3  N2  UNL     1      15.478  65.813  22.457  1.00  0.00    -0.267 N
ATOM      4  H2  UNL     1      14.716  66.280  21.963  1.00  0.00     0.180 HD
HETATM    5  C2  UNL     1      16.362  66.552  23.017  1.00  0.00     0.199 C
HETATM    6  N3  UNL     1      17.428  65.928  23.712  1.00  0.00    -0.063 NA
HETATM    7  N4  UNL     1      16.236  67.963  22.941  1.00  0.00    -0.352 N
HETATM    8  C3  UNL     1      16.090  68.588  24.257  1.00  0.00     0.146 C
HETATM    9  C4  UNL     1      14.703  69.249  24.301  1.00  0.00     0.153 C
HETATM   10  N5  UNL     1      14.290  69.407  22.940  1.00  0.00    -0.353 N
ATOM     11  H5  UNL     1      13.602  68.790  22.509  1.00  0.00     0.174 HD
HETATM   12  N6  UNL     1      14.868  70.427  22.257  1.00  0.00    -0.233 NA
HETATM   13  C7  UNL     1      16.018  69.976  21.535  1.00  0.00     0.133 C
HETATM   14  C8  UNL     1      16.265  68.486  21.621  1.00  0.00     0.141 C
ENDROOT
BRANCH  12  15
HETATM   15  C5  UNL     1      15.052  71.631  22.985  1.00  0.00     0.140 C
BRANCH  15  16
HETATM   16  C6  UNL     1      16.274  72.416  22.636  1.00  0.00     0.245 C
BRANCH  16  17
HETATM   17  N7  UNL     1      17.230  72.255  23.748  1.00  0.00    -0.078 N
ATOM     18  H73 UNL     1      17.194  71.329  24.174  1.00  0.00     0.274 HD
ATOM     19  H72 UNL     1      18.200  72.219  23.437  1.00  0.00     0.274 HD
ATOM     20  H71 UNL     1      17.050  73.008  24.413  1.00  0.00     0.274 HD
ENDBRANCH  16  17
ENDBRANCH  15  16
ENDBRANCH  12  15
TORSDOF 3
ENDMDL