MODEL 4
REMARK VINA RESULT: -7.085630661      5.682      8.241
REMARK  2 active torsions:
REMARK  status: ('A' for Active; 'I' for Inactive)
REMARK    1  A    between atoms: C3_3  and  C4_4
REMARK    2  A    between atoms: C4_4  and  N1_5
ROOT
HETATM    1  C1  UNL     1      17.084  66.539  20.610  1.00  0.00     0.012 C
HETATM    2  C2  UNL     1      16.520  66.195  21.622  1.00  0.00    -0.116 C
HETATM    3  C3  UNL     1      15.837  65.795  22.852  1.00  0.00     0.112 C
ENDROOT
BRANCH   3   4
HETATM    4  C4  UNL     1      15.295  64.381  22.657  1.00  0.00     0.133 C
BRANCH   4   5
HETATM    5  N1  UNL     1      13.943  64.263  23.058  1.00  0.00    -0.371 N
HETATM    6  C5  UNL     1      13.126  63.296  22.880  1.00  0.00     0.174 C
HETATM    7  N2  UNL     1      11.868  63.472  23.387  1.00  0.00    -0.290 N
HETATM    8  C8  UNL     1      13.524  62.158  22.211  1.00  0.00     0.293 C
HETATM    9  C6  UNL     1      10.873  62.582  23.566  1.00  0.00     0.329 C
ATOM     10  H2  UNL     1      11.650  64.426  23.675  1.00  0.00     0.172 HD
HETATM   11  O1  UNL     1       9.768  63.084  23.910  1.00  0.00    -0.246 OA
HETATM   12  N3  UNL     1      10.912  61.224  23.426  1.00  0.00    -0.260 N
HETATM   13  C7  UNL     1      11.880  60.464  22.877  1.00  0.00     0.331 C
ATOM     14  H3  UNL     1      10.103  60.718  23.785  1.00  0.00     0.175 HD
HETATM   15  O2  UNL     1      11.660  59.244  22.825  1.00  0.00    -0.246 OA
HETATM   16  N4  UNL     1      13.058  60.884  22.377  1.00  0.00    -0.272 N
ATOM     17  H4  UNL     1      13.695  60.145  22.080  1.00  0.00     0.174 HD
HETATM   18  O3  UNL     1      14.414  62.341  21.364  1.00  0.00    -0.264 OA
ATOM     19  H1  UNL     1      13.566  65.065  23.562  1.00  0.00     0.161 HD
ENDBRANCH   4   5
ENDBRANCH   3   4
TORSDOF 2
ENDMDL