MODEL 2
REMARK VINA RESULT: -6.538613144      1.558      2.727
REMARK  7 active torsions:
REMARK  status: ('A' for Active; 'I' for Inactive)
REMARK    1  A    between atoms: C2_2  and  C4_4
REMARK    2  A    between atoms: C2_2  and  C7_10
REMARK    3  A    between atoms: C4_4  and  C5_5
REMARK    4  A    between atoms: C5_5  and  S1_6
REMARK    5  A    between atoms: C7_10  and  O4_12
REMARK    6  A    between atoms: O4_12  and  C8_13
REMARK    7  A    between atoms: C13_19  and  O6_20
ROOT
HETATM    1  C8  UNL     1       9.235 -10.325   6.193  1.00  0.00     0.210 C
HETATM    2  C9  UNL     1       9.591  -9.863   7.554  1.00  0.00     0.166 C
HETATM    3  O5  UNL     1       8.824  -9.331   8.323  1.00  0.00    -0.294 OA
HETATM    4  C10 UNL     1      10.996 -10.163   7.778  1.00  0.00     0.031 C
HETATM    5  C11 UNL     1      11.981  -9.056   7.495  1.00  0.00     0.020 C
HETATM    6  C12 UNL     1      12.384  -8.466   8.841  1.00  0.00     0.033 C
HETATM    7  C13 UNL     1      13.301  -9.443   9.573  1.00  0.00     0.118 C
HETATM    8  C14 UNL     1      12.887 -10.828   9.200  1.00  0.00     0.037 C
HETATM    9  C15 UNL     1      11.380 -10.892   9.017  1.00  0.00     0.005 C
HETATM   10  C16 UNL     1      11.041 -12.198   8.299  1.00  0.00     0.012 C
HETATM   11  C17 UNL     1      11.215 -11.428   6.984  1.00  0.00     0.013 C
HETATM   12  C18 UNL     1      10.054 -11.586   6.055  1.00  0.00    -0.009 C
HETATM   13  C19 UNL     1       9.189 -12.743   6.508  1.00  0.00     0.018 C
HETATM   14  C20 UNL     1      10.489 -11.857   4.653  1.00  0.00     0.018 C
ENDROOT
BRANCH   1  15
HETATM   15  O4  UNL     1       7.850 -10.631   6.073  1.00  0.00    -0.307 OA
BRANCH  15  16
HETATM   16  C7  UNL     1       7.011  -9.817   5.334  1.00  0.00     0.267 C
HETATM   17  O3  UNL     1       6.752  -8.676   5.797  1.00  0.00    -0.264 OA
BRANCH  16  18
HETATM   18  C2  UNL     1       6.415 -10.229   4.042  1.00  0.00     0.042 C
HETATM   19  C1  UNL     1       5.244 -11.156   4.280  1.00  0.00     0.025 C
HETATM   20  C3  UNL     1       5.879  -9.026   3.273  1.00  0.00     0.025 C
BRANCH  18  21
HETATM   21  C4  UNL     1       7.436 -10.983   3.231  1.00  0.00     0.034 C
BRANCH  21  22
HETATM   22  C5  UNL     1       7.194 -12.461   3.257  1.00  0.00     0.141 C
BRANCH  22  23
HETATM   23  S1  UNL     1       8.024 -13.215   1.882  1.00  0.00     0.140 S
HETATM   24  C6  UNL     1       9.002 -14.599   2.359  1.00  0.00     0.161 C
HETATM   25  O1  UNL     1       8.863 -12.156   1.218  1.00  0.00    -0.228 OA
HETATM   26  O2  UNL     1       7.014 -13.667   0.861  1.00  0.00    -0.228 OA
ENDBRANCH  22  23
ENDBRANCH  21  22
ENDBRANCH  18  21
ENDBRANCH  16  18
ENDBRANCH  15  16
ENDBRANCH   1  15
BRANCH   7  27
HETATM   27  O6  UNL     1      13.233  -9.293  10.937  1.00  0.00    -0.396 OA
ATOM     28  H6  UNL     1      13.565 -10.055  11.398  1.00  0.00     0.210 HD
ENDBRANCH   7  27
TORSDOF 7
ENDMDL