MODEL 2
REMARK VINA RESULT: -7.493994735      1.294      4.238
REMARK  7 active torsions:
REMARK  status: ('A' for Active; 'I' for Inactive)
REMARK    1  A    between atoms: C4_7  and  C5_8
REMARK    2  A    between atoms: C5_8  and  N2_9
REMARK       I    between atoms: N2_9  and  C6_11
REMARK    3  A    between atoms: C6_11  and  C7_13
REMARK    4  A    between atoms: C7_13  and  C8_14
REMARK    5  A    between atoms: C8_14  and  C9_15
REMARK       I    between atoms: N3_21  and  C15_22
REMARK    6  A    between atoms: C15_22  and  O5_24
REMARK    7  A    between atoms: O5_24  and  C16_25
ROOT
HETATM    1  C1  UNL     1       8.269  -7.758  10.666  1.00  0.00     0.144 C
HETATM    2  N1  UNL     1       8.587  -7.630   9.268  1.00  0.00    -0.193 NA
HETATM    3  O1  UNL     1       8.178  -6.477   8.731  1.00  0.00    -0.301 OA
HETATM    4  C2  UNL     1       7.891  -6.686   7.375  1.00  0.00     0.227 C
HETATM    5  C3  UNL     1       8.373  -8.055   7.077  1.00  0.00     0.171 C
HETATM    6  O2  UNL     1       7.674  -8.799   6.179  1.00  0.00    -0.356 OA
HETATM    7  C4  UNL     1       8.450  -9.953   5.928  1.00  0.00     0.246 C
HETATM    8  N3  UNL     1       9.246 -10.312   7.082  1.00  0.00    -0.298 N
HETATM    9  C15 UNL     1      10.400 -11.097   6.840  1.00  0.00     0.365 C
HETATM   10  O4  UNL     1      10.748 -11.483   5.684  1.00  0.00    -0.238 OA
HETATM   11  C20 UNL     1       8.965  -9.941   8.451  1.00  0.00     0.155 C
HETATM   12  C21 UNL     1       8.120  -8.701   8.457  1.00  0.00     0.135 C
ENDROOT
BRANCH   7  13
HETATM   13  C5  UNL     1       7.603 -11.079   5.442  1.00  0.00     0.176 C
BRANCH  13  14
HETATM   14  N2  UNL     1       8.276 -11.803   4.398  1.00  0.00    -0.357 N
HETATM   15  C6  UNL     1       8.159 -11.582   3.022  1.00  0.00     0.217 C
HETATM   16  O3  UNL     1       7.418 -10.680   2.563  1.00  0.00    -0.274 OA
ATOM     17  H2  UNL     1       8.901 -12.554   4.690  1.00  0.00     0.162 HD
BRANCH  15  18
HETATM   18  C7  UNL     1       8.937 -12.442   2.075  1.00  0.00     0.103 C
BRANCH  18  19
HETATM   19  C8  UNL     1       8.275 -13.776   1.989  1.00  0.00     0.014 C
BRANCH  19  20
HETATM   20  C9  UNL     1       9.239 -14.940   1.988  1.00  0.00    -0.014 C
HETATM   21  C10 UNL     1       9.736 -15.164   3.380  1.00  0.00     0.004 C
HETATM   22  C11 UNL     1      10.442 -16.468   3.590  1.00  0.00     0.000 C
HETATM   23  C12 UNL     1      10.327 -17.403   2.411  1.00  0.00     0.000 C
HETATM   24  C13 UNL     1       8.872 -17.435   2.024  1.00  0.00     0.000 C
HETATM   25  C14 UNL     1       8.587 -16.108   1.352  1.00  0.00     0.004 C
ENDBRANCH  19  20
ENDBRANCH  18  19
ENDBRANCH  15  18
ENDBRANCH  13  14
ENDBRANCH   7  13
BRANCH   9  26
HETATM   26  O5  UNL     1      11.237 -11.500   7.871  1.00  0.00    -0.294 OA
BRANCH  26  27
HETATM   27  C16 UNL     1      11.214 -12.768   8.454  1.00  0.00     0.061 C
HETATM   28  C17 UNL     1      10.287 -13.704   7.681  1.00  0.00     0.046 C
HETATM   29  C18 UNL     1      12.605 -13.361   8.337  1.00  0.00     0.046 C
HETATM   30  C19 UNL     1      10.841 -12.759   9.914  1.00  0.00     0.046 C
ENDBRANCH  26  27
ENDBRANCH   9  26
TORSDOF 7
ENDMDL