MODEL 2
REMARK VINA RESULT: -8.062211278      1.088      1.785
REMARK  6 active torsions:
REMARK  status: ('A' for Active; 'I' for Inactive)
REMARK    1  A    between atoms: C5_5  and  N1_6
REMARK    2  A    between atoms: N1_6  and  C6_9
REMARK    3  A    between atoms: C6_9  and  C7_10
REMARK    4  A    between atoms: C8_15  and  C9_16
REMARK    5  A    between atoms: N4_20  and  S1_21
REMARK    6  A    between atoms: S1_21  and  N5_24
ROOT
HETATM    1  C7  UNL     1      11.242 -12.671   9.488  1.00  0.00     0.166 A
HETATM    2  N2  UNL     1      10.917 -13.859   8.958  1.00  0.00    -0.280 N
ATOM      3  H2  UNL     1      11.041 -14.768   9.404  1.00  0.00     0.189 HD
HETATM    4  N3  UNL     1      10.403 -13.647   7.746  1.00  0.00    -0.281 N
ATOM      5  H3  UNL     1      10.064 -14.359   7.099  1.00  0.00     0.189 HD
HETATM    6  C8  UNL     1      10.415 -12.321   7.537  1.00  0.00     0.146 A
HETATM    7  O3  UNL     1      10.928 -11.769   8.608  1.00  0.00    -0.280 OA
ENDROOT
BRANCH   6   8
HETATM    8  C9  UNL     1       9.932 -11.645   6.315  1.00  0.00     0.081 C
HETATM    9  C10 UNL     1       8.749 -10.752   6.583  1.00  0.00     0.016 C
HETATM   10  C11 UNL     1       7.571 -11.082   5.700  1.00  0.00     0.021 C
HETATM   11  C12 UNL     1       7.972 -11.203   4.222  1.00  0.00     0.137 C
HETATM   12  N4  UNL     1       9.105 -12.011   4.116  1.00  0.00    -0.293 N
HETATM   13  C17 UNL     1       9.440 -12.694   5.317  1.00  0.00     0.149 C
BRANCH  12  14
HETATM   14  S1  UNL     1       9.425 -12.846   2.693  1.00  0.00     0.322 S
HETATM   15  O1  UNL     1      10.880 -12.732   2.278  1.00  0.00    -0.182 OA
HETATM   16  O2  UNL     1       8.614 -12.170   1.581  1.00  0.00    -0.182 OA
BRANCH  14  17
HETATM   17  N5  UNL     1       8.908 -14.452   2.771  1.00  0.00    -0.274 N
HETATM   18  C13 UNL     1       8.155 -14.990   1.716  1.00  0.00     0.077 C
HETATM   19  C14 UNL     1       8.885 -16.247   1.296  1.00  0.00     0.047 C
HETATM   20  C15 UNL     1       9.629 -16.684   2.512  1.00  0.00     0.026 C
HETATM   21  C16 UNL     1       9.918 -15.365   3.203  1.00  0.00     0.142 C
ENDBRANCH  14  17
ENDBRANCH  12  14
ENDBRANCH   6   8
BRANCH   1  22
HETATM   22  C6  UNL     1      11.844 -12.483  10.827  1.00  0.00     0.318 C
BRANCH  22  23
HETATM   23  N1  UNL     1      11.262 -13.416  11.768  1.00  0.00    -0.064 N
ATOM     24  H12 UNL     1      11.868 -13.547  12.577  1.00  0.00     0.278 HD
ATOM     25  H11 UNL     1      11.274 -14.366  11.398  1.00  0.00     0.278 HD
BRANCH  23  26
HETATM   26  C5  UNL     1       9.937 -13.036  12.173  1.00  0.00     0.186 C
HETATM   27  C4  UNL     1       9.927 -11.862  13.102  1.00  0.00     0.033 C
HETATM   28  C3  UNL     1      10.822 -12.188  14.269  1.00  0.00     0.006 C
HETATM   29  C2  UNL     1      10.173 -13.320  15.031  1.00  0.00    -0.019 C
HETATM   30  C1  UNL     1      11.229 -14.291  15.476  1.00  0.00     0.010 C
HETATM   31  C19 UNL     1       9.025 -13.950  14.318  1.00  0.00     0.006 C
HETATM   32  C18 UNL     1       9.249 -14.196  12.862  1.00  0.00     0.033 C
ENDBRANCH  23  26
ENDBRANCH  22  23
ENDBRANCH   1  22
TORSDOF 6
ENDMDL