MODEL 4
REMARK VINA RESULT: -6.164934006      3.862      7.534
REMARK  10 active torsions:
REMARK  status: ('A' for Active; 'I' for Inactive)
REMARK    1  A    between atoms: O1_2  and  C2_3
REMARK    2  A    between atoms: C2_3  and  C3_5
REMARK    3  A    between atoms: C3_5  and  C4_6
REMARK    4  A    between atoms: C3_5  and  N1_14
REMARK    5  A    between atoms: C4_6  and  O3_7
REMARK    6  A    between atoms: O3_7  and  C5_8
REMARK    7  A    between atoms: C5_8  and  C6_10
REMARK       I    between atoms: N1_14  and  C10_16
REMARK    8  A    between atoms: C10_16  and  C11_18
REMARK       I    between atoms: N2_21  and  C14_22
REMARK    9  A    between atoms: C14_22  and  O7_24
REMARK   10  A    between atoms: O7_24  and  C15_25
ROOT
HETATM    1  N1  UNL     1       6.407  -9.232   3.595  1.00  0.00    -0.345 N
ATOM      2  H1  UNL     1       7.145  -8.644   3.205  1.00  0.00     0.163 HD
HETATM    3  C10 UNL     1       6.498 -10.643   3.451  1.00  0.00     0.224 C
HETATM    4  O5  UNL     1       5.563 -11.351   3.946  1.00  0.00    -0.273 OA
ENDROOT
BRANCH   1   5
HETATM    5  C3  UNL     1       5.294  -8.604   4.280  1.00  0.00     0.208 C
BRANCH   5   6
HETATM    6  C2  UNL     1       5.836  -7.874   5.469  1.00  0.00     0.283 C
HETATM    7  O2  UNL     1       5.143  -7.025   6.063  1.00  0.00    -0.263 OA
BRANCH   6   8
HETATM    8  O1  UNL     1       7.132  -8.179   5.883  1.00  0.00    -0.325 OA
HETATM    9  C1  UNL     1       7.299  -8.853   7.092  1.00  0.00     0.213 C
ENDBRANCH   6   8
ENDBRANCH   5   6
BRANCH   5  10
HETATM   10  C4  UNL     1       4.630  -7.685   3.313  1.00  0.00     0.214 C
BRANCH  10  11
HETATM   11  O3  UNL     1       5.443  -7.134   2.330  1.00  0.00    -0.318 OA
BRANCH  11  12
HETATM   12  C5  UNL     1       5.853  -5.811   2.239  1.00  0.00     0.266 C
HETATM   13  O4  UNL     1       6.149  -5.248   3.323  1.00  0.00    -0.264 OA
BRANCH  12  14
HETATM   14  C6  UNL     1       5.951  -5.071   0.979  1.00  0.00     0.037 C
HETATM   15  C7  UNL     1       7.371  -4.725   0.584  1.00  0.00     0.025 C
HETATM   16  C8  UNL     1       5.206  -3.761   1.117  1.00  0.00     0.025 C
HETATM   17  C9  UNL     1       5.354  -5.833  -0.191  1.00  0.00     0.025 C
ENDBRANCH  12  14
ENDBRANCH  11  12
ENDBRANCH  10  11
ENDBRANCH   5  10
ENDBRANCH   1   5
BRANCH   3  18
HETATM   18  C11 UNL     1       7.605 -11.320   2.764  1.00  0.00     0.097 C
HETATM   19  C12 UNL     1       8.669 -11.776   3.731  1.00  0.00     0.035 C
HETATM   20  C13 UNL     1       9.401 -12.825   2.888  1.00  0.00     0.129 C
HETATM   21  N2  UNL     1       8.309 -13.499   2.178  1.00  0.00    -0.327 N
HETATM   22  C14 UNL     1       8.362 -14.817   1.696  1.00  0.00     0.363 C
HETATM   23  C19 UNL     1       7.192 -12.582   2.067  1.00  0.00     0.142 C
HETATM   24  O6  UNL     1       7.376 -15.305   1.101  1.00  0.00    -0.238 OA
BRANCH  22  25
HETATM   25  O7  UNL     1       9.465 -15.647   1.836  1.00  0.00    -0.294 OA
BRANCH  25  26
HETATM   26  C15 UNL     1       9.417 -16.778   2.631  1.00  0.00     0.061 C
HETATM   27  C16 UNL     1       9.053 -17.963   1.735  1.00  0.00     0.046 C
HETATM   28  C17 UNL     1      10.776 -17.108   3.224  1.00  0.00     0.046 C
HETATM   29  C18 UNL     1       8.422 -16.743   3.742  1.00  0.00     0.046 C
ENDBRANCH  25  26
ENDBRANCH  22  25
ENDBRANCH   3  18
TORSDOF 10
ENDMDL