MODEL 4
REMARK VINA RESULT: -6.183326009      6.390      9.826
REMARK  6 active torsions:
REMARK  status: ('A' for Active; 'I' for Inactive)
REMARK    1  A    between atoms: C2_2  and  N1_3
REMARK    2  A    between atoms: C2_2  and  C3_7
REMARK       I    between atoms: N2_10  and  C6_11
REMARK    3  A    between atoms: C6_11  and  C7_13
REMARK    4  A    between atoms: N3_16  and  C10_17
REMARK    5  A    between atoms: C12_21  and  C13_22
REMARK    6  A    between atoms: C13_22  and  N5_23
ROOT
HETATM    1  C7  UNL     1      10.317 -10.449   8.340  1.00  0.00     0.081 C
HETATM    2  C8  UNL     1      11.640  -9.858   7.821  1.00  0.00     0.034 C
HETATM    3  C9  UNL     1      12.713 -10.831   8.265  1.00  0.00     0.125 C
HETATM    4  N3  UNL     1      12.587 -11.083   9.669  1.00  0.00    -0.361 N
HETATM    5  C18 UNL     1      11.467 -10.782  10.493  1.00  0.00     0.125 C
HETATM    6  C19 UNL     1      10.329 -10.115   9.819  1.00  0.00     0.034 C
ENDROOT
BRANCH   1   7
HETATM    7  C6  UNL     1       9.242  -9.786   7.596  1.00  0.00     0.224 C
HETATM    8  N2  UNL     1       8.472 -10.414   6.580  1.00  0.00    -0.352 N
HETATM    9  C5  UNL     1       7.425  -9.757   5.878  1.00  0.00     0.126 C
HETATM   10  C20 UNL     1       8.800 -11.787   6.262  1.00  0.00     0.126 C
HETATM   11  C4  UNL     1       6.597 -10.622   4.993  1.00  0.00     0.026 C
HETATM   12  C3  UNL     1       7.315 -11.753   4.338  1.00  0.00     0.018 C
HETATM   13  C21 UNL     1       8.756 -11.889   4.761  1.00  0.00     0.026 C
HETATM   14  O1  UNL     1       8.930  -8.566   7.834  1.00  0.00    -0.273 OA
BRANCH  12  15
HETATM   15  C2  UNL     1       7.325 -11.602   2.827  1.00  0.00     0.183 C
HETATM   16  C1  UNL     1       8.642 -11.967   2.214  1.00  0.00     0.040 C
BRANCH  15  17
HETATM   17  N1  UNL     1       6.931 -10.237   2.496  1.00  0.00    -0.075 N
ATOM     18  H13 UNL     1       7.325  -9.568   3.157  1.00  0.00     0.274 HD
ATOM     19  H12 UNL     1       7.392  -9.914   1.646  1.00  0.00     0.274 HD
ATOM     20  H11 UNL     1       5.918 -10.139   2.429  1.00  0.00     0.274 HD
ENDBRANCH  15  17
ENDBRANCH  12  15
ENDBRANCH   1   7
BRANCH   4  21
HETATM   21  C10 UNL     1      13.720 -11.710  10.314  1.00  0.00     0.146 A
HETATM   22  N4  UNL     1      14.241 -12.900  10.131  1.00  0.00    -0.345 N
HETATM   23  C11 UNL     1      15.270 -13.283  10.814  1.00  0.00     0.106 A
ATOM     24  H4  UNL     1      13.830 -13.530   9.442  1.00  0.00     0.167 HD
HETATM   25  C12 UNL     1      15.791 -12.403  11.731  1.00  0.00     0.029 A
HETATM   26  S1  UNL     1      14.743 -11.066  11.537  1.00  0.00    -0.056 SA
BRANCH  25  27
HETATM   27  C13 UNL     1      16.955 -12.568  12.647  1.00  0.00     0.320 C
BRANCH  27  28
HETATM   28  N5  UNL     1      16.559 -13.433  13.716  1.00  0.00     0.093 N
HETATM   29  C14 UNL     1      16.794 -12.846  14.999  1.00  0.00     0.273 C
HETATM   30  C15 UNL     1      17.726 -13.769  15.761  1.00  0.00     0.032 C
HETATM   31  C16 UNL     1      17.633 -15.097  15.030  1.00  0.00     0.032 C
HETATM   32  C17 UNL     1      17.298 -14.665  13.631  1.00  0.00     0.273 C
ENDBRANCH  27  28
ENDBRANCH  25  27
ENDBRANCH   4  21
TORSDOF 6
ENDMDL