MODEL 1
REMARK VINA RESULT: -8.001016863      0.000      0.000
REMARK  6 active torsions:
REMARK  status: ('A' for Active; 'I' for Inactive)
REMARK    1  A    between atoms: O1_2  and  C2_3
REMARK       I    between atoms: C2_3  and  N1_5
REMARK    2  A    between atoms: N2_9  and  C5_10
REMARK    3  A    between atoms: C5_10  and  C6_11
REMARK    4  A    between atoms: C6_11  and  N3_12
REMARK    5  A    between atoms: N3_12  and  C7_15
REMARK    6  A    between atoms: C7_15  and  C8_16
ROOT
HETATM    1  N3  UNL     1       6.758  -9.844   3.733  1.00  0.00    -0.074 N
ATOM      2  H31 UNL     1       5.851  -9.469   3.455  1.00  0.00     0.277 HD
ATOM      3  H32 UNL     1       7.274  -8.965   3.762  1.00  0.00     0.277 HD
ENDROOT
BRANCH   1   4
HETATM    4  C6  UNL     1       7.285 -10.748   2.773  1.00  0.00     0.248 C
BRANCH   4   5
HETATM    5  C5  UNL     1       6.591 -12.076   2.770  1.00  0.00     0.148 C
BRANCH   5   6
HETATM    6  N2  UNL     1       7.673 -13.041   2.409  1.00  0.00    -0.194 NA
HETATM    7  O3  UNL     1       8.716 -12.299   1.902  1.00  0.00    -0.302 OA
HETATM    8  C4  UNL     1       9.890 -12.919   2.263  1.00  0.00     0.213 C
HETATM    9  C3  UNL     1       9.625 -14.163   3.114  1.00  0.00     0.156 C
HETATM   10  N1  UNL     1       9.016 -15.205   2.331  1.00  0.00    -0.325 N
HETATM   11  C2  UNL     1       9.649 -16.491   2.469  1.00  0.00     0.362 C
HETATM   12  C21 UNL     1       7.890 -15.194   1.435  1.00  0.00     0.145 C
HETATM   13  O2  UNL     1       9.261 -17.513   1.864  1.00  0.00    -0.238 OA
HETATM   14  C20 UNL     1       7.204 -13.846   1.325  1.00  0.00     0.140 C
BRANCH  11  15
HETATM   15  O1  UNL     1      10.754 -16.637   3.316  1.00  0.00    -0.309 OA
HETATM   16  C1  UNL     1      10.612 -16.958   4.678  1.00  0.00     0.215 C
ENDBRANCH  11  15
ENDBRANCH   5   6
ENDBRANCH   4   5
ENDBRANCH   1   4
BRANCH   1  17
HETATM   17  C7  UNL     1       6.712 -10.488   5.004  1.00  0.00     0.237 C
BRANCH  17  18
HETATM   18  C8  UNL     1       7.967 -10.408   5.805  1.00  0.00     0.011 C
HETATM   19  C9  UNL     1       8.369 -11.822   6.170  1.00  0.00     0.011 C
HETATM   20  C10 UNL     1       9.794 -12.142   6.000  1.00  0.00     0.044 C
HETATM   21  C11 UNL     1      10.781 -11.040   6.144  1.00  0.00     0.058 C
HETATM   22  N4  UNL     1      11.013 -10.529   7.427  1.00  0.00    -0.388 N
HETATM   23  C12 UNL     1      12.404 -10.375   7.768  1.00  0.00     0.122 C
HETATM   24  C17 UNL     1      10.077  -9.748   8.104  1.00  0.00     0.087 C
HETATM   25  C13 UNL     1      12.764  -8.931   7.880  1.00  0.00     0.020 C
HETATM   26  C14 UNL     1      12.001  -8.391   9.063  1.00  0.00     0.008 C
HETATM   27  C15 UNL     1      10.660  -8.976   9.276  1.00  0.00     0.004 C
HETATM   28  C16 UNL     1      10.581  -9.819  10.549  1.00  0.00     0.012 C
HETATM   29  C18 UNL     1       9.199  -8.829   7.288  1.00  0.00     0.026 C
HETATM   30  C19 UNL     1       7.855  -9.463   6.928  1.00  0.00     0.008 C
ENDBRANCH  17  18
ENDBRANCH   1  17
TORSDOF 6
ENDMDL