MODEL 5
REMARK VINA RESULT: -5.031469644      3.109      6.625
REMARK  6 active torsions:
REMARK  status: ('A' for Active; 'I' for Inactive)
REMARK    1  A    between atoms: O1_2  and  C2_3
REMARK    2  A    between atoms: C9_12  and  O4_13
REMARK    3  A    between atoms: C10_15  and  C11_16
REMARK    4  A    between atoms: C11_16  and  C12_17
REMARK    5  A    between atoms: C20_26  and  C21_27
REMARK    6  A    between atoms: C21_27  and  N1_28
ROOT
HETATM    1  C2  UNL     1      12.500  -9.746  10.719  1.00  0.00     0.131 C
HETATM    2  C3  UNL     1      12.144  -9.435  12.208  1.00  0.00     0.067 C
HETATM    3  C4  UNL     1      10.766  -9.825  12.437  1.00  0.00     0.159 C
HETATM    4  O2  UNL     1      10.226  -9.598  13.695  1.00  0.00    -0.348 OA
HETATM    5  C5  UNL     1       8.879  -9.269  13.450  1.00  0.00     0.158 C
HETATM    6  C6  UNL     1       8.676  -7.865  14.009  1.00  0.00     0.078 C
HETATM    7  C7  UNL     1       7.913 -10.199  14.089  1.00  0.00     0.078 C
HETATM    8  O3  UNL     1       8.727  -9.184  12.038  1.00  0.00    -0.345 OA
HETATM    9  C8  UNL     1       9.954  -8.727  11.722  1.00  0.00     0.183 C
HETATM   10  C9  UNL     1      10.471  -8.560  10.394  1.00  0.00     0.157 C
HETATM   11  C10 UNL     1      11.298  -9.776   9.850  1.00  0.00     0.059 C
ENDROOT
BRANCH  11  12
HETATM   12  C11 UNL     1      11.257  -9.695   8.430  1.00  0.00    -0.002 C
HETATM   13  C15 UNL     1      10.003  -9.084   7.924  1.00  0.00    -0.008 C
HETATM   14  C16 UNL     1       9.378  -9.823   7.041  1.00  0.00    -0.025 C
HETATM   15  C17 UNL     1       8.525 -10.505   6.034  1.00  0.00     0.149 C
HETATM   16  C19 UNL     1      10.221 -11.043   6.738  1.00  0.00     0.160 C
HETATM   17  C18 UNL     1       7.047 -10.470   6.267  1.00  0.00     0.044 C
HETATM   18  O5  UNL     1       9.015 -11.762   6.531  1.00  0.00    -0.372 OA
HETATM   19  C20 UNL     1      10.947 -11.187   7.984  1.00  0.00     0.060 C
BRANCH  12  20
HETATM   20  C12 UNL     1      12.293  -9.281   7.483  1.00  0.00    -0.001 A
HETATM   21  C13 UNL     1      12.464  -7.932   6.903  1.00  0.00     0.006 A
HETATM   22  C14 UNL     1      13.574  -8.620   7.642  1.00  0.00     0.006 A
ENDBRANCH  12  20
BRANCH  19  23
HETATM   23  C21 UNL     1      12.182 -11.996   8.023  1.00  0.00     0.280 C
BRANCH  23  24
HETATM   24  N1  UNL     1      11.947 -13.427   8.152  1.00  0.00     0.080 N
HETATM   25  C22 UNL     1      11.074 -13.516   9.365  1.00  0.00     0.309 C
HETATM   26  C23 UNL     1      13.189 -14.074   8.639  1.00  0.00     0.309 C
ENDBRANCH  23  24
ENDBRANCH  19  23
ENDBRANCH  11  12
BRANCH   1  27
HETATM   27  O1  UNL     1      12.986 -11.067  10.942  1.00  0.00    -0.390 OA
HETATM   28  C1  UNL     1      14.368 -11.088  10.894  1.00  0.00     0.202 C
ENDBRANCH   1  27
BRANCH  10  29
HETATM   29  O4  UNL     1      11.447  -7.520  10.486  1.00  0.00    -0.392 OA
ATOM     30  H4  UNL     1      11.969  -7.722  11.254  1.00  0.00     0.210 HD
ENDBRANCH  10  29
TORSDOF 6
ENDMDL