MODEL 3
REMARK VINA RESULT: -5.430416748      2.417      3.606
REMARK  8 active torsions:
REMARK  status: ('A' for Active; 'I' for Inactive)
REMARK    1  A    between atoms: O1_2  and  C2_3
REMARK    2  A    between atoms: C2_3  and  C3_5
REMARK    3  A    between atoms: C3_5  and  C21_29
REMARK    4  A    between atoms: N1_8  and  C15_23
REMARK    5  A    between atoms: C7_10  and  C8_11
REMARK    6  A    between atoms: C10_13  and  C11_14
REMARK    7  A    between atoms: C11_14  and  O3_16
REMARK    8  A    between atoms: C14_19  and  N2_20
ROOT
HETATM    1  C3  UNL     1       7.978  -6.337   7.362  1.00  0.00     0.105 C
HETATM    2  C4  UNL     1       8.215  -5.933   5.898  1.00  0.00     0.071 C
HETATM    3  C5  UNL     1       6.982  -5.942   5.053  1.00  0.00     0.065 C
HETATM    4  N1  UNL     1       5.889  -6.202   5.847  1.00  0.00    -0.368 N
HETATM    5  C6  UNL     1       5.622  -7.545   6.096  1.00  0.00     0.074 C
HETATM    6  C7  UNL     1       6.679  -8.437   6.652  1.00  0.00     0.082 C
HETATM    7  C14 UNL     1       7.824  -7.797   7.354  1.00  0.00     0.087 C
ENDROOT
BRANCH   6   8
HETATM    8  C8  UNL     1       7.094  -9.317   5.467  1.00  0.00     0.001 C
HETATM    9  C9  UNL     1       5.936  -9.915   4.702  1.00  0.00     0.012 C
HETATM   10  C10 UNL     1       6.836 -11.102   4.423  1.00  0.00     0.015 C
HETATM   11  C13 UNL     1       7.506 -10.728   5.765  1.00  0.00     0.012 C
BRANCH  10  12
HETATM   12  C11 UNL     1       7.657 -10.884   3.206  1.00  0.00     0.118 C
HETATM   13  C12 UNL     1       8.538 -12.070   2.863  1.00  0.00     0.040 C
BRANCH  12  14
HETATM   14  O3  UNL     1       6.790 -10.665   2.120  1.00  0.00    -0.396 OA
ATOM     15  H3  UNL     1       7.282 -10.781   1.316  1.00  0.00     0.210 HD
ENDBRANCH  12  14
ENDBRANCH  10  12
ENDBRANCH   6   8
BRANCH   7  16
HETATM   16  N2  UNL     1       8.238  -8.516   8.541  1.00  0.00    -0.122 N
HETATM   17  O4  UNL     1       9.098  -9.409   8.566  1.00  0.00    -0.532 OA
HETATM   18  O5  UNL     1       7.695  -8.309   9.797  1.00  0.00    -0.532 OA
ENDBRANCH   7  16
BRANCH   4  19
HETATM   19  C15 UNL     1       4.818  -5.283   5.974  1.00  0.00     0.088 C
HETATM   20  C16 UNL     1       3.513  -5.928   6.333  1.00  0.00     0.026 C
HETATM   21  C17 UNL     1       3.273  -6.770   5.118  1.00  0.00     0.012 C
HETATM   22  C18 UNL     1       4.244  -6.367   4.097  1.00  0.00    -0.029 A
HETATM   23  C19 UNL     1       4.445  -4.967   4.482  1.00  0.00     0.036 C
HETATM   24  C20 UNL     1       4.011  -7.068   2.858  1.00  0.00     0.022 A
HETATM   25  C21 UNL     1       5.354  -6.778   3.351  1.00  0.00    -0.013 A
HETATM   26  C22 UNL     1       5.952  -5.753   2.358  1.00  0.00     0.018 C
ENDBRANCH   4  19
BRANCH   1  27
HETATM   27  C2  UNL     1       9.336  -6.034   7.945  1.00  0.00     0.274 C
HETATM   28  O2  UNL     1       9.393  -5.450   9.084  1.00  0.00    -0.264 OA
BRANCH  27  29
HETATM   29  O1  UNL     1      10.531  -6.329   7.365  1.00  0.00    -0.326 OA
HETATM   30  C1  UNL     1      11.630  -6.976   7.972  1.00  0.00     0.213 C
ENDBRANCH  27  29
ENDBRANCH   1  27
TORSDOF 8
ENDMDL