MODEL 1
REMARK VINA RESULT: -8.250735345      0.000      0.000
REMARK  6 active torsions:
REMARK  status: ('A' for Active; 'I' for Inactive)
REMARK    1  A    between atoms: C2_2  and  O1_3
REMARK    2  A    between atoms: C2_2  and  C13_20
REMARK    3  A    between atoms: O1_3  and  C3_4
REMARK    4  A    between atoms: C3_4  and  C4_6
REMARK    5  A    between atoms: N1_9  and  C7_10
REMARK       I    between atoms: C13_20  and  N4_22
REMARK    6  A    between atoms: N4_22  and  C14_24
ROOT
HETATM    1  O1  UNL     1       6.767  -9.049   4.391  1.00  0.00    -0.306 OA
ENDROOT
BRANCH   1   2
HETATM    2  C2  UNL     1       6.703  -8.695   5.759  1.00  0.00     0.219 C
HETATM    3  C1  UNL     1       7.152  -7.269   5.998  1.00  0.00     0.050 C
BRANCH   2   4
HETATM    4  C13 UNL     1       7.559  -9.580   6.587  1.00  0.00     0.247 C
HETATM    5  O3  UNL     1       7.113 -10.599   7.172  1.00  0.00    -0.271 OA
HETATM    6  N4  UNL     1       8.933  -9.255   6.718  1.00  0.00    -0.354 N
ATOM      7  H4  UNL     1       9.300  -8.428   6.245  1.00  0.00     0.162 HD
BRANCH   6   8
HETATM    8  C14 UNL     1       9.835 -10.089   7.524  1.00  0.00     0.085 C
HETATM    9  C15 UNL     1      11.100 -10.274   6.777  1.00  0.00     0.030 C
HETATM   10  C16 UNL     1      12.286 -10.620   7.636  1.00  0.00    -0.009 C
HETATM   11  C17 UNL     1      11.962 -11.908   8.365  1.00  0.00     0.005 C
HETATM   12  C21 UNL     1      12.444  -9.636   8.790  1.00  0.00    -0.010 C
HETATM   13  C18 UNL     1      11.290 -11.500   9.635  1.00  0.00     0.005 C
HETATM   14  C19 UNL     1      11.221  -9.973   9.614  1.00  0.00    -0.009 C
HETATM   15  C20 UNL     1       9.983  -9.550   8.914  1.00  0.00     0.030 C
HETATM   16  C22 UNL     1      13.730  -9.939   9.484  1.00  0.00     0.011 C
ENDBRANCH   6   8
ENDBRANCH   2   4
ENDBRANCH   1   2
BRANCH   1  17
HETATM   17  C3  UNL     1       6.378 -10.272   3.885  1.00  0.00     0.264 C
HETATM   18  O2  UNL     1       5.185 -10.627   4.029  1.00  0.00    -0.265 OA
BRANCH  17  19
HETATM   19  C4  UNL     1       7.324 -11.145   3.195  1.00  0.00     0.088 C
HETATM   20  C5  UNL     1       6.573 -12.419   2.801  1.00  0.00     0.035 C
HETATM   21  C6  UNL     1       7.480 -13.106   1.773  1.00  0.00     0.142 C
HETATM   22  N1  UNL     1       8.666 -13.507   2.519  1.00  0.00    -0.218 N
HETATM   23  C11 UNL     1       9.361 -12.516   3.280  1.00  0.00     0.142 C
HETATM   24  C12 UNL     1       8.495 -11.557   4.016  1.00  0.00     0.035 C
BRANCH  22  25
HETATM   25  C7  UNL     1       9.060 -14.871   2.439  1.00  0.00     0.679 A
HETATM   26  N2  UNL     1      10.035 -15.377   3.216  1.00  0.00    -0.202 N
HETATM   27  C8  UNL     1      10.417 -16.663   3.149  1.00  0.00     0.107 A
ATOM     28  H2  UNL     1      10.503 -14.760   3.880  1.00  0.00     0.183 HD
HETATM   29  C9  UNL     1       9.821 -17.540   2.273  1.00  0.00     0.035 A
HETATM   30  C10 UNL     1       8.811 -17.019   1.468  1.00  0.00     0.107 A
HETATM   31  N3  UNL     1       8.469 -15.721   1.576  1.00  0.00    -0.202 N
ATOM     32  H3  UNL     1       7.725 -15.363   0.976  1.00  0.00     0.183 HD
ENDBRANCH  22  25
ENDBRANCH  17  19
ENDBRANCH   1  17
TORSDOF 6
ENDMDL