MODEL 3
REMARK VINA RESULT: -7.558943749      7.291      9.285
REMARK  5 active torsions:
REMARK  status: ('A' for Active; 'I' for Inactive)
REMARK    1  A    between atoms: C7_11  and  S1_12
REMARK    2  A    between atoms: S1_12  and  C8_13
REMARK    3  A    between atoms: C8_13  and  C9_14
REMARK       I    between atoms: C9_14  and  N3_16
REMARK    4  A    between atoms: C12_19  and  C13_20
REMARK       I    between atoms: C13_20  and  N4_22
REMARK    5  A    between atoms: N4_22  and  C14_24
ROOT
HETATM    1  C9  UNL     1       3.409  -6.522   5.227  1.00  0.00     0.229 C
HETATM    2  O1  UNL     1       3.641  -5.705   6.130  1.00  0.00    -0.273 OA
HETATM    3  N3  UNL     1       4.458  -7.458   4.928  1.00  0.00    -0.351 N
HETATM    4  C10 UNL     1       5.690  -7.377   5.663  1.00  0.00     0.126 C
HETATM    5  C11 UNL     1       6.533  -8.609   5.574  1.00  0.00     0.034 C
HETATM    6  C12 UNL     1       6.802  -8.984   4.141  1.00  0.00     0.081 C
HETATM    7  C19 UNL     1       5.672  -8.715   3.207  1.00  0.00     0.034 C
HETATM    8  C20 UNL     1       4.338  -8.491   3.930  1.00  0.00     0.126 C
ENDROOT
BRANCH   1   9
HETATM    9  C8  UNL     1       2.191  -6.645   4.426  1.00  0.00     0.183 C
BRANCH   9  10
HETATM   10  S1  UNL     1       1.949  -5.569   3.043  1.00  0.00    -0.102 SA
BRANCH  10  11
HETATM   11  C7  UNL     1       2.880  -6.057   1.626  1.00  0.00     0.081 A
HETATM   12  C4  UNL     1       4.218  -5.810   1.442  1.00  0.00     0.029 A
HETATM   13  C3  UNL     1       5.233  -5.051   2.210  1.00  0.00     0.078 C
HETATM   14  C5  UNL     1       4.898  -6.267   0.312  1.00  0.00     0.152 A
HETATM   15  C2  UNL     1       6.219  -4.662   1.114  1.00  0.00     0.131 C
HETATM   16  C1  UNL     1       7.568  -4.345   1.680  1.00  0.00     0.040 C
HETATM   17  O3  UNL     1       6.241  -5.881   0.370  1.00  0.00    -0.330 OA
HETATM   18  N1  UNL     1       4.260  -6.965  -0.634  1.00  0.00    -0.333 N
HETATM   19  C6  UNL     1       2.951  -7.210  -0.461  1.00  0.00     0.183 A
ATOM     20  H1  UNL     1       4.753  -7.301  -1.461  1.00  0.00     0.168 HD
HETATM   21  N2  UNL     1       2.287  -6.778   0.618  1.00  0.00    -0.346 N
ATOM     22  H2  UNL     1       1.293  -6.994   0.696  1.00  0.00     0.167 HD
ENDBRANCH  10  11
ENDBRANCH   9  10
ENDBRANCH   1   9
BRANCH   6  23
HETATM   23  C13 UNL     1       7.174 -10.421   4.116  1.00  0.00     0.222 C
HETATM   24  O2  UNL     1       7.102 -11.069   5.199  1.00  0.00    -0.273 OA
HETATM   25  N4  UNL     1       7.595 -11.049   2.917  1.00  0.00    -0.356 N
ATOM     26  H4  UNL     1       7.646 -10.515   2.050  1.00  0.00     0.162 HD
BRANCH  25  27
HETATM   27  C14 UNL     1       7.947 -12.430   2.926  1.00  0.00     0.084 C
HETATM   28  C15 UNL     1       7.284 -13.218   1.810  1.00  0.00     0.025 C
HETATM   29  C16 UNL     1       8.108 -14.492   1.812  1.00  0.00     0.002 C
HETATM   30  C17 UNL     1       9.460 -14.134   2.331  1.00  0.00     0.002 C
HETATM   31  C18 UNL     1       9.405 -12.652   2.584  1.00  0.00     0.025 C
ENDBRANCH  25  27
ENDBRANCH   6  23
TORSDOF 5
ENDMDL