MODEL 4
REMARK VINA RESULT: -6.050035294      2.262      4.056
REMARK  3 active torsions:
REMARK  status: ('A' for Active; 'I' for Inactive)
REMARK    1  A    between atoms: N1_1  and  N2_4
REMARK       I    between atoms: N2_4  and  C1_6
REMARK    2  A    between atoms: C1_6  and  C2_8
REMARK    3  A    between atoms: N5_15  and  N6_16
ROOT
HETATM    1  C2  UNL     1      57.558 -26.144  -4.267  1.00  0.00     0.171 A
HETATM    2  C3  UNL     1      58.452 -25.140  -4.679  1.00  0.00     0.155 A
HETATM    3  N3  UNL     1      58.965 -24.924  -5.982  1.00  0.00    -0.080 NA
HETATM    4  N4  UNL     1      58.731 -24.411  -3.581  1.00  0.00    -0.293 N
ATOM      5  H4  UNL     1      59.353 -23.602  -3.544  1.00  0.00     0.172 HD
HETATM    6  C4  UNL     1      58.056 -24.926  -2.549  1.00  0.00     0.347 A
HETATM    7  O2  UNL     1      58.054 -24.526  -1.358  1.00  0.00    -0.245 OA
HETATM    8  N5  UNL     1      57.328 -25.997  -2.958  1.00  0.00    -0.203 N
ENDROOT
BRANCH   1   9
HETATM    9  C1  UNL     1      57.035 -27.136  -5.213  1.00  0.00     0.291 C
HETATM   10  N2  UNL     1      57.747 -27.728  -6.263  1.00  0.00    -0.271 N
ATOM     11  H2  UNL     1      58.723 -27.474  -6.420  1.00  0.00     0.189 HD
HETATM   12  O1  UNL     1      55.811 -27.519  -5.095  1.00  0.00    -0.264 OA
BRANCH  10  13
HETATM   13  N1  UNL     1      57.133 -28.660  -7.096  1.00  0.00    -0.342 N
ATOM     14  H12 UNL     1      57.561 -29.581  -7.202  1.00  0.00     0.176 HD
ATOM     15  H11 UNL     1      56.272 -28.425  -7.590  1.00  0.00     0.176 HD
ENDBRANCH  10  13
ENDBRANCH   1   9
BRANCH   8  16
HETATM   16  N6  UNL     1      56.498 -26.794  -2.172  1.00  0.00    -0.334 N
ATOM     17  H62 UNL     1      55.505 -26.975  -2.318  1.00  0.00     0.177 HD
ATOM     18  H61 UNL     1      56.772 -27.310  -1.335  1.00  0.00     0.177 HD
ENDBRANCH   8  16
TORSDOF 3
ENDMDL