MODEL 2
REMARK VINA RESULT: -6.193823744      7.495      9.367
REMARK  3 active torsions:
REMARK  status: ('A' for Active; 'I' for Inactive)
REMARK    1  A    between atoms: N1_1  and  C1_4
REMARK    2  A    between atoms: C2_7  and  C3_8
REMARK       I    between atoms: C3_8  and  N3_10
REMARK    3  A    between atoms: N3_10  and  N4_12
ROOT
HETATM    1  C1  UNL     1      56.835 -29.789   1.801  1.00  0.00     0.681 A
HETATM    2  N2  UNL     1      56.861 -31.124   1.972  1.00  0.00    -0.171 N
ATOM      3  H2  UNL     1      56.394 -31.527   2.785  1.00  0.00     0.186 HD
HETATM    4  C2  UNL     1      57.489 -31.949   1.099  1.00  0.00     0.195 A
HETATM    5  N5  UNL     1      58.100 -31.436   0.041  1.00  0.00    -0.289 N
ATOM      6  H5  UNL     1      58.578 -32.042  -0.627  1.00  0.00     0.172 HD
HETATM    7  C4  UNL     1      58.080 -30.102  -0.138  1.00  0.00     0.340 A
HETATM    8  O2  UNL     1      58.665 -29.631  -1.148  1.00  0.00    -0.246 OA
HETATM    9  N6  UNL     1      57.450 -29.268   0.736  1.00  0.00    -0.141 N
ATOM     10  H6  UNL     1      57.449 -28.260   0.580  1.00  0.00     0.189 HD
ENDROOT
BRANCH   4  11
HETATM   11  C3  UNL     1      57.482 -33.398   1.343  1.00  0.00     0.304 C
HETATM   12  O1  UNL     1      57.948 -34.178   0.478  1.00  0.00    -0.263 OA
HETATM   13  N3  UNL     1      56.942 -33.885   2.563  1.00  0.00    -0.270 N
ATOM     14  H3  UNL     1      56.567 -33.239   3.257  1.00  0.00     0.189 HD
BRANCH  13  15
HETATM   15  N4  UNL     1      56.934 -35.261   2.797  1.00  0.00    -0.342 N
ATOM     16  H42 UNL     1      57.530 -35.650   3.527  1.00  0.00     0.176 HD
ATOM     17  H41 UNL     1      56.330 -35.855   2.230  1.00  0.00     0.176 HD
ENDBRANCH  13  15
ENDBRANCH   4  11
BRANCH   1  18
HETATM   18  N1  UNL     1      56.221 -29.052   2.664  1.00  0.00    -0.234 N
ATOM     19  H12 UNL     1      56.630 -28.829   3.571  1.00  0.00     0.174 HD
ATOM     20  H11 UNL     1      55.298 -28.680   2.439  1.00  0.00     0.174 HD
ENDBRANCH   1  18
TORSDOF 3
ENDMDL