MODEL 4
REMARK VINA RESULT: -6.412334242      1.390      5.262
REMARK  3 active torsions:
REMARK  status: ('A' for Active; 'I' for Inactive)
REMARK       I    between atoms: C2_2  and  N1_4
REMARK    1  A    between atoms: N1_4  and  N2_6
REMARK    2  A    between atoms: N2_6  and  C3_8
REMARK    3  A    between atoms: N6_17  and  N7_18
ROOT
HETATM    1  C3  UNL     1      58.126 -31.938   1.311  1.00  0.00     0.747 A
HETATM    2  N3  UNL     1      58.275 -33.017   0.648  1.00  0.00    -0.124 N
ATOM      3  H3  UNL     1      58.756 -32.935  -0.247  1.00  0.00     0.206 HD
HETATM    4  N4  UNL     1      57.856 -34.290   1.006  1.00  0.00    -0.236 N
ATOM      5  H4  UNL     1      58.037 -35.078   0.385  1.00  0.00     0.192 HD
HETATM    6  C4  UNL     1      57.174 -34.499   2.240  1.00  0.00     0.355 A
HETATM    7  O2  UNL     1      56.798 -35.639   2.566  1.00  0.00    -0.244 OA
HETATM    8  N5  UNL     1      56.971 -33.327   3.036  1.00  0.00    -0.214 N
ATOM      9  H5  UNL     1      56.490 -33.397   3.932  1.00  0.00     0.194 HD
HETATM   10  N6  UNL     1      57.430 -32.093   2.587  1.00  0.00    -0.020 N
ENDROOT
BRANCH   1  11
HETATM   11  N2  UNL     1      58.570 -30.661   0.908  1.00  0.00    -0.125 N
ATOM     12  H2  UNL     1      59.479 -30.384   1.277  1.00  0.00     0.206 HD
BRANCH  11  13
HETATM   13  N1  UNL     1      57.974 -29.741   0.104  1.00  0.00    -0.256 N
HETATM   14  C2  UNL     1      56.930 -28.842   0.304  1.00  0.00     0.232 C
HETATM   15  C1  UNL     1      56.522 -27.929  -0.847  1.00  0.00     0.119 C
HETATM   16  O1  UNL     1      56.264 -28.679   1.340  1.00  0.00    -0.272 OA
ATOM     17  H1  UNL     1      58.370 -29.702  -0.835  1.00  0.00     0.190 HD
ENDBRANCH  11  13
ENDBRANCH   1  11
BRANCH  10  18
HETATM   18  N7  UNL     1      57.224 -30.959   3.358  1.00  0.00    -0.309 N
ATOM     19  H72 UNL     1      58.023 -30.440   3.721  1.00  0.00     0.179 HD
ATOM     20  H71 UNL     1      56.262 -30.677   3.544  1.00  0.00     0.179 HD
ENDBRANCH  10  18
TORSDOF 3
ENDMDL