MODEL 5
REMARK VINA RESULT: -6.872619203      1.274      4.070
REMARK  2 active torsions:
REMARK  status: ('A' for Active; 'I' for Inactive)
REMARK       I    between atoms: C1_4  and  N3_6
REMARK    1  A    between atoms: N3_6  and  C2_8
REMARK       I    between atoms: N7_15  and  C3_16
REMARK       I    between atoms: C3_16  and  N8_18
REMARK    2  A    between atoms: N8_18  and  N9_20
ROOT
HETATM    1  C2  UNL     1      58.577 -26.678  -5.366  1.00  0.00     0.727 A
HETATM    2  N4  UNL     1      58.581 -27.294  -6.558  1.00  0.00    -0.114 N
ATOM      3  H4  UNL     1      59.088 -26.977  -7.385  1.00  0.00     0.207 HD
HETATM    4  N5  UNL     1      57.826 -28.375  -6.493  1.00  0.00    -0.213 N
ATOM      5  H5  UNL     1      57.656 -29.026  -7.259  1.00  0.00     0.210 HD
HETATM    6  N6  UNL     1      57.333 -28.476  -5.284  1.00  0.00    -0.202 N
ATOM      7  H6  UNL     1      56.715 -29.213  -4.943  1.00  0.00     0.211 HD
HETATM    8  N7  UNL     1      57.789 -27.432  -4.577  1.00  0.00    -0.013 N
HETATM    9  C3  UNL     1      57.497 -27.154  -3.218  1.00  0.00     0.376 C
HETATM   10  O1  UNL     1      57.983 -26.148  -2.667  1.00  0.00    -0.243 OA
HETATM   11  N8  UNL     1      56.654 -28.016  -2.483  1.00  0.00    -0.256 N
ATOM     12  H8  UNL     1      56.267 -28.834  -2.954  1.00  0.00     0.191 HD
ENDROOT
BRANCH   1  13
HETATM   13  N3  UNL     1      59.158 -25.614  -4.972  1.00  0.00    -0.160 N
HETATM   14  C1  UNL     1      58.988 -24.325  -5.443  1.00  0.00     0.200 C
HETATM   15  N1  UNL     1      59.702 -23.909  -6.412  1.00  0.00    -0.373 N
HETATM   16  N2  UNL     1      58.038 -23.455  -4.871  1.00  0.00    -0.063 NA
ATOM     17  H12 UNL     1      59.577 -22.958  -6.759  1.00  0.00     0.158 HD
ATOM     18  H11 UNL     1      60.390 -24.537  -6.826  1.00  0.00     0.158 HD
ATOM     19  H3  UNL     1      59.831 -25.728  -4.216  1.00  0.00     0.187 HD
ENDBRANCH   1  13
BRANCH  11  20
HETATM   20  N9  UNL     1      56.325 -27.804  -1.142  1.00  0.00    -0.341 N
ATOM     21  H92 UNL     1      56.431 -26.858  -0.778  1.00  0.00     0.177 HD
ATOM     22  H91 UNL     1      55.988 -28.544  -0.526  1.00  0.00     0.177 HD
ENDBRANCH  11  20
TORSDOF 2
ENDMDL