MODEL 1
REMARK VINA RESULT: -6.435312598      0.000      0.000
REMARK  3 active torsions:
REMARK  status: ('A' for Active; 'I' for Inactive)
REMARK    1  A    between atoms: N1_1  and  C1_4
REMARK    2  A    between atoms: N4_13  and  O2_14
REMARK    3  A    between atoms: O2_14  and  N5_15
ROOT
HETATM    1  C1  UNL     1      60.189 -24.000  -5.410  1.00  0.00     0.680 A
HETATM    2  N2  UNL     1      59.970 -23.674  -4.125  1.00  0.00    -0.154 N
ATOM      3  H2  UNL     1      60.498 -22.901  -3.720  1.00  0.00     0.187 HD
HETATM    4  C2  UNL     1      59.078 -24.329  -3.347  1.00  0.00     0.290 A
HETATM    5  O1  UNL     1      58.872 -24.027  -2.146  1.00  0.00    -0.265 OA
HETATM    6  C3  UNL     1      58.351 -25.375  -3.868  1.00  0.00     0.150 A
HETATM    7  N3  UNL     1      57.412 -26.219  -3.397  1.00  0.00    -0.343 N
ATOM      8  H3  UNL     1      57.038 -26.216  -2.448  1.00  0.00     0.167 HD
HETATM    9  C4  UNL     1      57.044 -27.071  -4.384  1.00  0.00     0.219 A
HETATM   10  N4  UNL     1      57.769 -26.741  -5.472  1.00  0.00    -0.174 N
HETATM   11  C5  UNL     1      58.587 -25.700  -5.192  1.00  0.00     0.184 A
HETATM   12  N6  UNL     1      59.489 -25.015  -5.925  1.00  0.00    -0.172 N
ATOM     13  H6  UNL     1      59.641 -25.279  -6.899  1.00  0.00     0.186 HD
ENDROOT
BRANCH  10  14
HETATM   14  O2  UNL     1      57.735 -27.334  -6.718  1.00  0.00    -0.154 OA
BRANCH  14  15
HETATM   15  N5  UNL     1      57.141 -28.551  -6.941  1.00  0.00    -0.285 N
ATOM     16  H52 UNL     1      56.415 -28.850  -6.290  1.00  0.00     0.186 HD
ATOM     17  H51 UNL     1      57.399 -29.152  -7.723  1.00  0.00     0.186 HD
ENDBRANCH  14  15
ENDBRANCH  10  14
BRANCH   1  18
HETATM   18  N1  UNL     1      61.063 -23.334  -6.117  1.00  0.00    -0.234 N
ATOM     19  H12 UNL     1      61.668 -22.627  -5.699  1.00  0.00     0.174 HD
ATOM     20  H11 UNL     1      61.157 -23.513  -7.116  1.00  0.00     0.174 HD
ENDBRANCH   1  18
TORSDOF 3
ENDMDL