MODEL 5
REMARK VINA RESULT: -6.477520740      6.249      8.011
REMARK  3 active torsions:
REMARK  status: ('A' for Active; 'I' for Inactive)
REMARK    1  A    between atoms: C3_6  and  N2_7
REMARK    2  A    between atoms: N2_7  and  N3_9
REMARK    3  A    between atoms: N3_9  and  C4_11
ROOT
HETATM    1  N2  UNL     1      58.745 -27.237  -6.522  1.00  0.00    -0.257 N
ATOM      2  H2  UNL     1      58.957 -27.232  -7.520  1.00  0.00     0.190 HD
ENDROOT
BRANCH   1   3
HETATM    3  C3  UNL     1      58.944 -26.040  -5.782  1.00  0.00     0.197 A
HETATM    4  N1  UNL     1      60.036 -25.407  -5.661  1.00  0.00    -0.352 N
HETATM    5  C2  UNL     1      59.903 -24.227  -4.843  1.00  0.00     0.225 A
ATOM      6  H1  UNL     1      60.912 -25.700  -6.094  1.00  0.00     0.163 HD
HETATM    7  C1  UNL     1      58.484 -24.229  -4.457  1.00  0.00     0.242 A
HETATM    8  O1  UNL     1      57.909 -23.375  -3.734  1.00  0.00    -0.271 OA
HETATM    9  N8  UNL     1      57.908 -25.376  -5.059  1.00  0.00    -0.296 N
ATOM     10  H8  UNL     1      56.935 -25.671  -4.988  1.00  0.00     0.172 HD
ENDBRANCH   1   3
BRANCH   1  11
HETATM   11  N3  UNL     1      58.278 -28.416  -5.954  1.00  0.00    -0.127 N
ATOM     12  H3  UNL     1      57.656 -29.007  -6.505  1.00  0.00     0.205 HD
BRANCH  11  13
HETATM   13  C4  UNL     1      58.592 -28.799  -4.763  1.00  0.00     0.722 A
HETATM   14  N4  UNL     1      59.786 -29.168  -4.266  1.00  0.00    -0.115 N
HETATM   15  N5  UNL     1      59.660 -29.492  -2.975  1.00  0.00     0.006 NA
ATOM     16  H4  UNL     1      60.657 -29.197  -4.795  1.00  0.00     0.202 HD
HETATM   17  N6  UNL     1      58.382 -29.321  -2.682  1.00  0.00     0.006 NA
HETATM   18  N7  UNL     1      57.716 -28.900  -3.753  1.00  0.00    -0.115 N
ATOM     19  H7  UNL     1      56.718 -28.693  -3.798  1.00  0.00     0.202 HD
ENDBRANCH  11  13
ENDBRANCH   1  11
TORSDOF 3
ENDMDL