MODEL 4
REMARK VINA RESULT: -6.682635826      1.270      4.961
REMARK  2 active torsions:
REMARK  status: ('A' for Active; 'I' for Inactive)
REMARK    1  A    between atoms: N1_1  and  C1_4
REMARK       I    between atoms: N3_9  and  C3_10
REMARK       I    between atoms: C3_10  and  N4_12
REMARK    2  A    between atoms: N4_12  and  N5_14
ROOT
HETATM    1  C1  UNL     1      58.867 -23.697  -3.162  1.00  0.00     0.173 A
HETATM    2  N2  UNL     1      59.058 -23.870  -4.479  1.00  0.00    -0.289 N
ATOM      3  H2  UNL     1      59.566 -23.172  -5.023  1.00  0.00     0.172 HD
HETATM    4  C2  UNL     1      58.572 -24.975  -5.074  1.00  0.00     0.351 A
HETATM    5  O1  UNL     1      58.763 -25.120  -6.322  1.00  0.00    -0.244 OA
HETATM    6  N3  UNL     1      57.890 -25.933  -4.406  1.00  0.00    -0.149 N
HETATM    7  C3  UNL     1      57.412 -27.075  -5.133  1.00  0.00     0.364 C
HETATM    8  O2  UNL     1      57.638 -27.162  -6.388  1.00  0.00    -0.243 OA
HETATM    9  N4  UNL     1      56.695 -28.125  -4.533  1.00  0.00    -0.256 N
ATOM     10  H4  UNL     1      56.492 -28.095  -3.534  1.00  0.00     0.191 HD
HETATM   11  N6  UNL     1      57.702 -25.765  -3.113  1.00  0.00    -0.248 N
ATOM     12  H6  UNL     1      57.191 -26.471  -2.585  1.00  0.00     0.191 HD
HETATM   13  C4  UNL     1      58.178 -24.661  -2.471  1.00  0.00     0.304 A
HETATM   14  O3  UNL     1      57.994 -24.508  -1.238  1.00  0.00    -0.263 OA
ENDROOT
BRANCH   9  15
HETATM   15  N5  UNL     1      56.261 -29.201  -5.295  1.00  0.00    -0.341 N
ATOM     16  H52 UNL     1      55.774 -29.018  -6.173  1.00  0.00     0.177 HD
ATOM     17  H51 UNL     1      56.428 -30.156  -4.979  1.00  0.00     0.177 HD
ENDBRANCH   9  15
BRANCH   1  18
HETATM   18  N1  UNL     1      59.318 -22.644  -2.537  1.00  0.00    -0.381 N
ATOM     19  H12 UNL     1      58.715 -21.832  -2.406  1.00  0.00     0.157 HD
ATOM     20  H11 UNL     1      60.268 -22.606  -2.169  1.00  0.00     0.157 HD
ENDBRANCH   1  18
TORSDOF 2
ENDMDL