MODEL 1
REMARK VINA RESULT: -7.261695686      0.000      0.000
REMARK  2 active torsions:
REMARK  status: ('A' for Active; 'I' for Inactive)
REMARK    1  A    between atoms: N1_1  and  N2_4
REMARK       I    between atoms: N2_4  and  C1_5
REMARK    2  A    between atoms: C1_5  and  C2_7
ROOT
HETATM    1  C2  UNL     1      58.503 -26.640  -4.400  1.00  0.00     0.151 A
HETATM    2  N3  UNL     1      58.213 -25.452  -3.874  1.00  0.00    -0.301 N
ATOM      3  H3  UNL     1      58.520 -24.600  -4.343  1.00  0.00     0.171 HD
HETATM    4  C3  UNL     1      57.504 -25.369  -2.708  1.00  0.00     0.327 A
HETATM    5  O2  UNL     1      57.215 -24.255  -2.187  1.00  0.00    -0.247 OA
HETATM    6  N4  UNL     1      57.086 -26.471  -2.074  1.00  0.00    -0.274 N
ATOM      7  H4  UNL     1      56.556 -26.401  -1.205  1.00  0.00     0.173 HD
HETATM    8  C4  UNL     1      57.381 -27.686  -2.609  1.00  0.00     0.276 A
HETATM    9  O3  UNL     1      56.987 -28.712  -2.001  1.00  0.00    -0.266 OA
HETATM   10  C5  UNL     1      58.091 -27.787  -3.775  1.00  0.00     0.147 A
HETATM   11  N5  UNL     1      58.403 -29.077  -4.317  1.00  0.00    -0.094 NA
ENDROOT
BRANCH   1  12
HETATM   12  C1  UNL     1      59.257 -26.771  -5.674  1.00  0.00     0.363 C
HETATM   13  N2  UNL     1      60.587 -27.126  -5.592  1.00  0.00    -0.287 NA
HETATM   14  O1  UNL     1      58.602 -26.544  -6.749  1.00  0.00    -0.247 OA
BRANCH  13  15
HETATM   15  N1  UNL     1      61.839 -27.460  -5.515  1.00  0.00    -0.276 N
ATOM     16  H12 UNL     1      60.849 -27.218  -5.574  1.00  0.00     0.191 HD
ATOM     17  H11 UNL     1      62.823 -27.722  -5.455  1.00  0.00     0.191 HD
ENDBRANCH  13  15
ENDBRANCH   1  12
TORSDOF 2
ENDMDL