MODEL 1
REMARK VINA RESULT: -6.504141002      0.000      0.000
REMARK  4 active torsions:
REMARK  status: ('A' for Active; 'I' for Inactive)
REMARK    1  A    between atoms: C2_3  and  C3_4
REMARK       I    between atoms: C3_4  and  N2_6
REMARK    2  A    between atoms: N2_6  and  N3_8
REMARK    3  A    between atoms: C4_15  and  N6_16
REMARK    4  A    between atoms: C5_19  and  N7_20
ROOT
HETATM    1  C1  UNL     1      58.510 -30.178  -0.922  1.00  0.00     0.159 C
HETATM    2  N1  UNL     1      57.857 -30.000   0.335  1.00  0.00    -0.315 N
HETATM    3  C2  UNL     1      57.203 -28.833   0.601  1.00  0.00     0.194 A
HETATM    4  N4  UNL     1      56.570 -28.667   1.810  1.00  0.00    -0.279 N
ATOM      5  H4  UNL     1      56.084 -27.791   2.002  1.00  0.00     0.189 HD
HETATM    6  N5  UNL     1      56.575 -29.603   2.719  1.00  0.00    -0.281 N
ATOM      7  H5  UNL     1      56.094 -29.445   3.603  1.00  0.00     0.188 HD
HETATM    8  C4  UNL     1      57.200 -30.766   2.511  1.00  0.00     0.158 A
HETATM    9  C5  UNL     1      57.848 -30.938   1.276  1.00  0.00     0.148 A
ENDROOT
BRANCH   3  10
HETATM   10  C3  UNL     1      57.155 -27.741  -0.345  1.00  0.00     0.305 C
HETATM   11  O1  UNL     1      57.860 -26.731  -0.248  1.00  0.00    -0.263 OA
HETATM   12  N2  UNL     1      56.263 -27.800  -1.453  1.00  0.00    -0.270 N
ATOM     13  H2  UNL     1      55.671 -28.624  -1.554  1.00  0.00     0.189 HD
BRANCH  12  14
HETATM   14  N3  UNL     1      56.157 -26.794  -2.405  1.00  0.00    -0.342 N
ATOM     15  H32 UNL     1      56.192 -25.831  -2.072  1.00  0.00     0.176 HD
ATOM     16  H31 UNL     1      56.048 -26.973  -3.403  1.00  0.00     0.176 HD
ENDBRANCH  12  14
ENDBRANCH   3  10
BRANCH   9  17
HETATM   17  N7  UNL     1      58.422 -32.062   1.158  1.00  0.00    -0.382 N
ATOM     18  H72 UNL     1      59.039 -32.288   1.937  1.00  0.00     0.157 HD
ATOM     19  H71 UNL     1      58.290 -32.686   0.362  1.00  0.00     0.157 HD
ENDBRANCH   9  17
BRANCH   8  20
HETATM   20  N6  UNL     1      57.207 -31.692   3.409  1.00  0.00    -0.381 N
ATOM     21  H62 UNL     1      56.502 -32.430   3.417  1.00  0.00     0.157 HD
ATOM     22  H61 UNL     1      57.918 -31.716   4.140  1.00  0.00     0.157 HD
ENDBRANCH   8  20
TORSDOF 4
ENDMDL