MODEL 4
REMARK VINA RESULT: -6.311238430      7.873      9.085
REMARK  3 active torsions:
REMARK  status: ('A' for Active; 'I' for Inactive)
REMARK    1  A    between atoms: N1_1  and  C1_4
REMARK    2  A    between atoms: C2_7  and  C3_8
REMARK       I    between atoms: C3_8  and  N3_10
REMARK    3  A    between atoms: N3_10  and  N4_12
ROOT
HETATM    1  C1  UNL     1      57.209 -28.225  -4.933  1.00  0.00     0.691 A
HETATM    2  N2  UNL     1      57.141 -27.146  -4.117  1.00  0.00    -0.180 N
ATOM      3  H2  UNL     1      56.248 -26.909  -3.686  1.00  0.00     0.184 HD
HETATM    4  C2  UNL     1      58.216 -26.376  -3.858  1.00  0.00     0.187 A
HETATM    5  C4  UNL     1      59.398 -26.758  -4.479  1.00  0.00     0.293 A
HETATM    6  O2  UNL     1      60.409 -26.063  -4.257  1.00  0.00    -0.264 OA
HETATM    7  N5  UNL     1      59.477 -27.828  -5.291  1.00  0.00    -0.250 N
ATOM      8  H5  UNL     1      60.361 -28.083  -5.733  1.00  0.00     0.191 HD
HETATM    9  N6  UNL     1      58.372 -28.551  -5.507  1.00  0.00    -0.130 N
ATOM     10  H6  UNL     1      58.418 -29.364  -6.120  1.00  0.00     0.205 HD
ENDROOT
BRANCH   4  11
HETATM   11  C3  UNL     1      58.154 -25.214  -2.983  1.00  0.00     0.292 C
HETATM   12  O1  UNL     1      57.945 -25.363  -1.757  1.00  0.00    -0.264 OA
HETATM   13  N3  UNL     1      58.328 -23.920  -3.509  1.00  0.00    -0.271 N
ATOM     14  H3  UNL     1      58.497 -23.814  -4.510  1.00  0.00     0.189 HD
BRANCH  13  15
HETATM   15  N4  UNL     1      58.278 -22.781  -2.713  1.00  0.00    -0.342 N
ATOM     16  H42 UNL     1      57.641 -22.785  -1.916  1.00  0.00     0.176 HD
ATOM     17  H41 UNL     1      58.850 -21.957  -2.902  1.00  0.00     0.176 HD
ENDBRANCH  13  15
ENDBRANCH   4  11
BRANCH   1  18
HETATM   18  N1  UNL     1      56.166 -28.963  -5.177  1.00  0.00    -0.233 N
ATOM     19  H12 UNL     1      55.547 -28.694  -5.941  1.00  0.00     0.174 HD
ATOM     20  H11 UNL     1      55.959 -29.797  -4.628  1.00  0.00     0.174 HD
ENDBRANCH   1  18
TORSDOF 3
ENDMDL