MODEL 4
REMARK VINA RESULT: -7.653119682      2.497      4.144
REMARK  7 active torsions:
REMARK  status: ('A' for Active; 'I' for Inactive)
REMARK    1  A    between atoms: C6_6  and  N1_7
REMARK    2  A    between atoms: N1_7  and  C7_9
REMARK    3  A    between atoms: C7_9  and  N2_11
REMARK    4  A    between atoms: N2_11  and  C8_13
REMARK    5  A    between atoms: C8_13  and  C9_14
REMARK    6  A    between atoms: C9_14  and  C10_15
REMARK    7  A    between atoms: C10_15  and  N3_16
ROOT
HETATM    1  C1  UNL     1       1.761  38.447  24.915  1.00  0.00     0.046 C
HETATM    2  C2  UNL     1       2.283  37.134  25.556  1.00  0.00    -0.052 C
HETATM    3  C3  UNL     1       2.708  36.214  24.512  1.00  0.00     0.005 C
HETATM    4  C4  UNL     1       4.007  36.223  23.872  1.00  0.00     0.006 C
HETATM    5  C5  UNL     1       5.211  35.670  24.496  1.00  0.00    -0.039 C
HETATM    6  C6  UNL     1       5.094  34.351  25.210  1.00  0.00     0.115 C
HETATM    7  C13 UNL     1       4.428  34.385  26.525  1.00  0.00     0.040 C
HETATM    8  C14 UNL     1       4.605  35.508  27.417  1.00  0.00     0.053 C
HETATM    9  C15 UNL     1       5.956  35.352  28.148  1.00  0.00     0.186 C
HETATM   10  O1  UNL     1       7.050  35.693  27.379  1.00  0.00    -0.320 OA
HETATM   11  C16 UNL     1       7.111  35.965  26.022  1.00  0.00     0.272 C
HETATM   12  O2  UNL     1       8.131  35.581  25.371  1.00  0.00    -0.264 OA
HETATM   13  C17 UNL     1       6.087  36.668  25.248  1.00  0.00     0.076 C
HETATM   14  C18 UNL     1       6.751  37.582  24.202  1.00  0.00     0.031 C
HETATM   15  C19 UNL     1       5.191  37.563  26.038  1.00  0.00     0.049 C
HETATM   16  C20 UNL     1       5.936  38.806  26.569  1.00  0.00     0.015 C
HETATM   17  C21 UNL     1       4.837  39.809  26.872  1.00  0.00     0.071 C
HETATM   18  C22 UNL     1       3.749  39.308  27.745  1.00  0.00     0.194 C
HETATM   19  C23 UNL     1       3.173  40.538  28.470  1.00  0.00     0.082 C
HETATM   20  O3  UNL     1       4.169  38.458  28.756  1.00  0.00    -0.200 OA
HETATM   21  O4  UNL     1       4.786  37.493  28.286  1.00  0.00    -0.223 OA
HETATM   22  C24 UNL     1       4.352  36.920  27.053  1.00  0.00     0.137 C
HETATM   23  C25 UNL     1       2.923  37.304  26.853  1.00  0.00     0.192 C
HETATM   24  O5  UNL     1       2.708  38.682  27.151  1.00  0.00    -0.340 OA
ENDROOT
BRANCH   6  25
HETATM   25  N1  UNL     1       4.583  33.380  24.296  1.00  0.00    -0.359 N
ATOM     26  H1  UNL     1       4.228  33.745  23.412  1.00  0.00     0.162 HD
BRANCH  25  27
HETATM   27  C7  UNL     1       4.506  31.979  24.457  1.00  0.00     0.168 C
HETATM   28  S1  UNL     1       5.768  30.996  24.694  1.00  0.00    -0.041 SA
BRANCH  27  29
HETATM   29  N2  UNL     1       3.218  31.375  24.407  1.00  0.00    -0.367 N
ATOM     30  H2  UNL     1       2.866  31.085  23.494  1.00  0.00     0.161 HD
BRANCH  29  31
HETATM   31  C8  UNL     1       2.377  31.144  25.548  1.00  0.00     0.123 C
BRANCH  31  32
HETATM   32  C9  UNL     1       1.470  32.282  25.880  1.00  0.00     0.050 C
BRANCH  32  33
HETATM   33  C10 UNL     1       0.682  32.681  24.633  1.00  0.00     0.273 C
BRANCH  33  34
HETATM   34  N3  UNL     1      -0.641  33.091  25.083  1.00  0.00     0.080 N
HETATM   35  C11 UNL     1      -1.474  33.274  23.896  1.00  0.00     0.309 C
HETATM   36  C12 UNL     1      -1.235  32.070  25.930  1.00  0.00     0.309 C
ENDBRANCH  33  34
ENDBRANCH  32  33
ENDBRANCH  31  32
ENDBRANCH  29  31
ENDBRANCH  27  29
ENDBRANCH  25  27
ENDBRANCH   6  25
TORSDOF 7
ENDMDL