MODEL 4
REMARK VINA RESULT: -8.976434789      2.352      6.106
REMARK  8 active torsions:
REMARK  status: ('A' for Active; 'I' for Inactive)
REMARK    1  A    between atoms: C2_2  and  C3_3
REMARK    2  A    between atoms: C4_4  and  O1_5
REMARK    3  A    between atoms: C9_11  and  O2_12
REMARK    4  A    between atoms: O2_12  and  C10_13
REMARK    5  A    between atoms: C10_13  and  C11_15
REMARK    6  A    between atoms: C12_16  and  C13_17
REMARK    7  A    between atoms: C27_33  and  O5_34
REMARK    8  A    between atoms: C28_36  and  O6_37
ROOT
HETATM    1  C3  UNL     1       6.128  31.395  24.234  1.00  0.00     0.043 C
HETATM    2  C4  UNL     1       7.566  31.682  23.878  1.00  0.00     0.130 C
HETATM    3  C5  UNL     1       7.685  33.215  23.934  1.00  0.00     0.018 C
HETATM    4  C6  UNL     1       9.031  33.553  24.434  1.00  0.00     0.013 C
HETATM    5  C7  UNL     1       6.502  33.652  24.645  1.00  0.00     0.029 C
HETATM    6  C8  UNL     1       5.912  32.408  25.333  1.00  0.00     0.032 C
HETATM    7  C9  UNL     1       4.484  32.743  25.606  1.00  0.00     0.138 C
HETATM    8  C16 UNL     1       4.295  34.021  26.342  1.00  0.00     0.048 C
HETATM    9  C17 UNL     1       5.103  35.155  25.828  1.00  0.00     0.024 C
HETATM   10  C18 UNL     1       4.554  35.712  24.508  1.00  0.00     0.043 C
HETATM   11  C19 UNL     1       3.782  36.688  25.410  1.00  0.00     0.117 C
HETATM   12  N1  UNL     1       3.539  37.963  24.922  1.00  0.00    -0.382 N
HETATM   13  C20 UNL     1       2.182  38.228  24.512  1.00  0.00     0.146 C
HETATM   14  C21 UNL     1       4.278  39.062  25.340  1.00  0.00     0.249 A
HETATM   15  O4  UNL     1       3.350  40.232  25.569  1.00  0.00    -0.354 OA
HETATM   16  C22 UNL     1       4.096  39.698  26.581  1.00  0.00     0.176 A
HETATM   17  C23 UNL     1       3.483  38.929  27.710  1.00  0.00     0.015 C
HETATM   18  C24 UNL     1       3.161  39.937  28.815  1.00  0.00     0.012 C
HETATM   19  C25 UNL     1       4.566  38.015  28.286  1.00  0.00     0.010 C
HETATM   20  C26 UNL     1       4.375  36.603  27.785  1.00  0.00     0.041 C
HETATM   21  C27 UNL     1       4.899  36.509  26.391  1.00  0.00     0.088 C
HETATM   22  C28 UNL     1       6.577  34.686  25.703  1.00  0.00     0.137 C
ENDROOT
BRANCH  21  23
HETATM   23  O5  UNL     1       6.024  37.307  26.163  1.00  0.00    -0.387 OA
ATOM     24  H5  UNL     1       6.394  37.120  25.308  1.00  0.00     0.210 HD
ENDBRANCH  21  23
BRANCH  22  25
HETATM   25  O6  UNL     1       6.797  34.047  26.940  1.00  0.00    -0.389 OA
HETATM   26  C29 UNL     1       7.622  34.721  27.794  1.00  0.00     0.202 C
ENDBRANCH  22  25
BRANCH   7  27
HETATM   27  O2  UNL     1       3.720  32.659  24.419  1.00  0.00    -0.312 OA
BRANCH  27  28
HETATM   28  C10 UNL     1       2.456  32.114  24.341  1.00  0.00     0.283 C
HETATM   29  O3  UNL     1       2.324  30.871  24.521  1.00  0.00    -0.260 OA
BRANCH  28  30
HETATM   30  C11 UNL     1       1.294  32.946  24.057  1.00  0.00     0.082 C
HETATM   31  C12 UNL     1       1.417  34.250  23.898  1.00  0.00     0.006 C
BRANCH  31  32
HETATM   32  C13 UNL     1       0.269  35.092  23.615  1.00  0.00    -0.004 C
HETATM   33  C14 UNL     1       0.261  35.861  22.547  1.00  0.00    -0.031 C
HETATM   34  C15 UNL     1       1.424  35.874  21.625  1.00  0.00     0.036 C
ENDBRANCH  31  32
ENDBRANCH  28  30
ENDBRANCH  27  28
ENDBRANCH   7  27
BRANCH   1  35
HETATM   35  C2  UNL     1       5.973  30.013  24.693  1.00  0.00    -0.029 C
HETATM   36  C1  UNL     1       5.425  29.092  23.927  1.00  0.00     0.007 C
ENDBRANCH   1  35
BRANCH   2  37
HETATM   37  O1  UNL     1       7.942  31.214  22.632  1.00  0.00    -0.395 OA
ATOM     38  H1  UNL     1       8.836  30.895  22.592  1.00  0.00     0.210 HD
ENDBRANCH   2  37
TORSDOF 8
ENDMDL