MODEL 4
REMARK VINA RESULT: -6.554051532      2.967      6.999
REMARK  9 active torsions:
REMARK  status: ('A' for Active; 'I' for Inactive)
REMARK    1  A    between atoms: C2_2  and  O1_3
REMARK    2  A    between atoms: O1_3  and  C3_4
REMARK    3  A    between atoms: C3_4  and  C4_5
REMARK    4  A    between atoms: C4_5  and  O2_6
REMARK    5  A    between atoms: C4_5  and  C6_8
REMARK    6  A    between atoms: C11_14  and  O4_15
REMARK    7  A    between atoms: C15_21  and  O6_22
REMARK    8  A    between atoms: C16_24  and  C17_25
REMARK    9  A    between atoms: C17_25  and  O8_27
ROOT
HETATM    1  C6  UNL     1       1.691  34.193  23.967  1.00  0.00     0.058 C
HETATM    2  C7  UNL     1       0.637  33.965  22.925  1.00  0.00     0.159 A
HETATM    3  O3  UNL     1      -0.471  34.786  22.854  1.00  0.00    -0.374 OA
HETATM    4  C8  UNL     1       0.414  34.783  21.828  1.00  0.00     0.157 A
HETATM    5  C9  UNL     1       1.457  35.752  21.516  1.00  0.00     0.043 C
HETATM    6  C10 UNL     1       1.040  36.444  20.182  1.00  0.00     0.015 C
HETATM    7  C11 UNL     1       1.685  36.899  22.443  1.00  0.00     0.134 C
HETATM    8  C12 UNL     1       1.960  36.719  23.837  1.00  0.00     0.007 A
HETATM    9  C13 UNL     1       0.915  37.378  24.759  1.00  0.00     0.099 C
HETATM   10  C14 UNL     1       1.550  38.232  25.792  1.00  0.00     0.179 C
HETATM   11  O5  UNL     1       1.456  38.011  27.015  1.00  0.00    -0.291 OA
HETATM   12  C15 UNL     1       2.378  39.462  25.517  1.00  0.00     0.103 C
HETATM   13  C16 UNL     1       3.709  39.444  26.174  1.00  0.00     0.153 C
HETATM   14  C19 UNL     1       4.929  39.517  25.365  1.00  0.00    -0.029 C
HETATM   15  C20 UNL     1       6.109  39.223  26.312  1.00  0.00     0.016 C
HETATM   16  C21 UNL     1       5.218  40.931  24.842  1.00  0.00     0.016 C
HETATM   17  C22 UNL     1       5.105  38.592  24.205  1.00  0.00     0.011 C
HETATM   18  C23 UNL     1       5.392  37.183  24.459  1.00  0.00     0.010 C
HETATM   19  C24 UNL     1       4.396  36.128  24.512  1.00  0.00    -0.038 C
HETATM   20  C25 UNL     1       5.010  35.043  25.453  1.00  0.00     0.015 C
HETATM   21  C26 UNL     1       3.942  35.352  23.319  1.00  0.00     0.021 C
HETATM   22  C27 UNL     1       2.515  35.366  23.939  1.00  0.00    -0.015 A
HETATM   23  C28 UNL     1       2.986  36.396  24.741  1.00  0.00     0.016 A
ENDROOT
BRANCH   1  24
HETATM   24  C4  UNL     1       1.100  33.679  25.261  1.00  0.00     0.152 C
BRANCH  24  25
HETATM   25  C3  UNL     1       0.048  32.572  25.013  1.00  0.00     0.199 C
BRANCH  25  26
HETATM   26  O1  UNL     1      -1.111  32.766  25.690  1.00  0.00    -0.389 OA
BRANCH  26  27
HETATM   27  C2  UNL     1      -1.450  31.560  26.300  1.00  0.00     0.163 C
HETATM   28  C1  UNL     1      -0.692  31.301  27.564  1.00  0.00     0.033 C
ENDBRANCH  26  27
ENDBRANCH  25  26
ENDBRANCH  24  25
BRANCH  24  29
HETATM   29  O2  UNL     1       1.948  33.152  26.177  1.00  0.00    -0.388 OA
HETATM   30  C5  UNL     1       2.572  32.030  25.673  1.00  0.00     0.202 C
ENDBRANCH  24  29
ENDBRANCH   1  24
BRANCH   7  31
HETATM   31  O4  UNL     1       2.566  37.696  21.665  1.00  0.00    -0.394 OA
ATOM     32  H4  UNL     1       2.458  37.296  20.810  1.00  0.00     0.210 HD
ENDBRANCH   7  31
BRANCH  12  33
HETATM   33  O6  UNL     1       2.313  39.893  24.223  1.00  0.00    -0.360 OA
ATOM     34  H6  UNL     1       2.774  39.335  23.608  1.00  0.00     0.217 HD
ENDBRANCH  12  33
BRANCH  13  35
HETATM   35  C17 UNL     1       3.828  40.561  27.195  1.00  0.00     0.269 C
HETATM   36  O7  UNL     1       3.553  41.744  26.962  1.00  0.00    -0.264 OA
BRANCH  35  37
HETATM   37  O8  UNL     1       4.274  40.284  28.497  1.00  0.00    -0.326 OA
HETATM   38  C18 UNL     1       3.522  39.492  29.394  1.00  0.00     0.213 C
ENDBRANCH  35  37
ENDBRANCH  13  35
TORSDOF 9
ENDMDL