MODEL 3
REMARK VINA RESULT: -8.441864671      0.771      1.067
REMARK  7 active torsions:
REMARK  status: ('A' for Active; 'I' for Inactive)
REMARK    1  A    between atoms: C2_2  and  C3_3
REMARK    2  A    between atoms: C14_16  and  C15_17
REMARK    3  A    between atoms: C20_23  and  O3_24
REMARK    4  A    between atoms: C21_26  and  C22_27
REMARK       I    between atoms: C22_27  and  N2_29
REMARK    5  A    between atoms: N2_29  and  C23_31
REMARK    6  A    between atoms: C23_31  and  C24_32
REMARK    7  A    between atoms: C24_32  and  O6_34
ROOT
HETATM    1  C3  UNL     1       6.703  36.684  25.437  1.00  0.00     0.057 C
HETATM    2  C4  UNL     1       8.003  36.186  26.063  1.00  0.00     0.009 C
HETATM    3  C5  UNL     1       8.045  34.895  25.912  1.00  0.00     0.091 C
HETATM    4  N1  UNL     1       6.895  34.410  25.234  1.00  0.00    -0.327 N
HETATM    5  C6  UNL     1       6.449  35.550  24.452  1.00  0.00     0.152 C
HETATM    6  C7  UNL     1       6.284  33.151  25.265  1.00  0.00     0.228 C
HETATM    7  O1  UNL     1       6.618  32.254  26.094  1.00  0.00    -0.273 OA
HETATM    8  C8  UNL     1       5.183  32.753  24.322  1.00  0.00     0.078 C
HETATM    9  C9  UNL     1       5.744  31.658  23.452  1.00  0.00     0.020 C
HETATM   10  C10 UNL     1       4.020  32.303  25.159  1.00  0.00    -0.006 C
HETATM   11  C11 UNL     1       3.285  31.155  24.505  1.00  0.00     0.011 C
HETATM   12  C12 UNL     1       3.100  33.460  25.471  1.00  0.00     0.007 C
HETATM   13  C13 UNL     1       2.113  33.640  24.375  1.00  0.00     0.033 C
HETATM   14  C14 UNL     1       1.519  35.062  24.335  1.00  0.00     0.125 C
HETATM   15  O2  UNL     1       2.542  35.919  24.432  1.00  0.00    -0.378 OA
HETATM   16  C18 UNL     1       2.350  37.158  24.966  1.00  0.00     0.147 C
HETATM   17  C19 UNL     1       1.491  37.256  26.161  1.00  0.00     0.042 C
HETATM   18  C20 UNL     1       3.746  37.775  25.227  1.00  0.00     0.167 C
HETATM   19  C21 UNL     1       4.347  37.327  26.491  1.00  0.00     0.179 C
HETATM   20  C26 UNL     1       5.665  36.663  26.443  1.00  0.00     0.156 C
HETATM   21  O7  UNL     1       5.935  35.954  27.456  1.00  0.00    -0.296 OA
ENDROOT
BRANCH  19  22
HETATM   22  C22 UNL     1       4.400  38.336  27.566  1.00  0.00     0.232 C
HETATM   23  O4  UNL     1       5.075  39.375  27.351  1.00  0.00    -0.273 OA
HETATM   24  N2  UNL     1       3.771  38.254  28.812  1.00  0.00    -0.351 N
ATOM     25  H2  UNL     1       3.222  37.416  29.007  1.00  0.00     0.163 HD
BRANCH  24  26
HETATM   26  C23 UNL     1       3.835  39.256  29.839  1.00  0.00     0.233 C
BRANCH  26  27
HETATM   27  C24 UNL     1       2.620  40.075  29.981  1.00  0.00     0.276 C
HETATM   28  O5  UNL     1       2.458  41.120  29.310  1.00  0.00    -0.263 OA
BRANCH  27  29
HETATM   29  O6  UNL     1       1.601  39.735  30.857  1.00  0.00    -0.325 OA
HETATM   30  C25 UNL     1       1.854  39.226  32.141  1.00  0.00     0.213 C
ENDBRANCH  27  29
ENDBRANCH  26  27
ENDBRANCH  24  26
ENDBRANCH  19  22
BRANCH  18  31
HETATM   31  O3  UNL     1       3.529  39.176  25.187  1.00  0.00    -0.392 OA
ATOM     32  H3  UNL     1       4.266  39.546  25.659  1.00  0.00     0.210 HD
ENDBRANCH  18  31
BRANCH   1  33
HETATM   33  C2  UNL     1       7.092  37.958  24.807  1.00  0.00     0.018 C
HETATM   34  C1  UNL     1       8.329  38.470  25.562  1.00  0.00     0.006 C
ENDBRANCH   1  33
BRANCH  14  35
HETATM   35  C15 UNL     1       0.732  35.117  23.044  1.00  0.00     0.006 C
HETATM   36  C16 UNL     1       1.596  35.605  21.898  1.00  0.00     0.012 C
HETATM   37  C17 UNL     1       0.114  33.826  22.635  1.00  0.00     0.012 C
ENDBRANCH  14  35
TORSDOF 7
ENDMDL