MODEL 3
REMARK VINA RESULT: -9.634911038      2.372      5.110
REMARK  8 active torsions:
REMARK  status: ('A' for Active; 'I' for Inactive)
REMARK    1  A    between atoms: C9_9  and  O1_11
REMARK    2  A    between atoms: O1_11  and  C11_12
REMARK    3  A    between atoms: C11_12  and  C12_14
REMARK    4  A    between atoms: C12_14  and  C13_15
REMARK    5  A    between atoms: C13_15  and  C14_17
REMARK    6  A    between atoms: C22_27  and  O5_28
REMARK    7  A    between atoms: O5_28  and  C23_29
REMARK       I    between atoms: C23_29  and  N2_31
REMARK    8  A    between atoms: N2_31  and  C24_33
ROOT
HETATM    1  C14 UNL     1       4.575  37.240  25.074  1.00  0.00     0.103 C
HETATM    2  C15 UNL     1       3.883  36.015  24.460  1.00  0.00     0.057 C
HETATM    3  C16 UNL     1       3.239  36.520  23.195  1.00  0.00     0.004 C
HETATM    4  C17 UNL     1       2.395  37.512  23.419  1.00  0.00     0.024 C
HETATM    5  N1  UNL     1       1.713  38.087  22.313  1.00  0.00    -0.107 NA
HETATM    6  C18 UNL     1       2.140  38.039  24.749  1.00  0.00     0.097 C
HETATM    7  C19 UNL     1       2.507  37.128  25.901  1.00  0.00     0.126 A
HETATM    8  O4  UNL     1       2.917  37.759  26.966  1.00  0.00    -0.359 OA
HETATM    9  C20 UNL     1       3.973  37.212  26.436  1.00  0.00     0.103 A
HETATM   10  C21 UNL     1       4.456  35.973  27.213  1.00  0.00     0.050 C
HETATM   11  C22 UNL     1       2.673  35.760  25.380  1.00  0.00     0.180 C
ENDROOT
BRANCH   1  12
HETATM   12  C13 UNL     1       6.046  36.939  25.221  1.00  0.00     0.144 C
HETATM   13  O3  UNL     1       6.756  37.678  25.851  1.00  0.00    -0.297 OA
BRANCH  12  14
HETATM   14  C12 UNL     1       6.592  35.728  24.582  1.00  0.00     0.190 C
BRANCH  14  15
HETATM   15  C11 UNL     1       7.412  34.969  25.551  1.00  0.00     0.266 C
HETATM   16  O2  UNL     1       8.343  35.451  26.202  1.00  0.00    -0.265 OA
BRANCH  15  17
HETATM   17  O1  UNL     1       7.094  33.636  25.725  1.00  0.00    -0.309 OA
BRANCH  17  18
HETATM   18  C9  UNL     1       7.451  32.580  24.866  1.00  0.00     0.075 C
HETATM   19  C8  UNL     1       7.893  31.409  25.667  1.00  0.00     0.039 C
HETATM   20  C7  UNL     1       8.075  30.225  24.703  1.00  0.00     0.004 C
HETATM   21  C6  UNL     1       6.702  29.876  24.204  1.00  0.00     0.010 C
HETATM   22  C4  UNL     1       6.218  31.001  23.321  1.00  0.00    -0.030 C
HETATM   23  C3  UNL     1       4.694  31.112  23.480  1.00  0.00     0.043 C
HETATM   24  C5  UNL     1       6.673  30.884  21.903  1.00  0.00     0.016 C
HETATM   25  C28 UNL     1       6.278  32.335  23.963  1.00  0.00     0.057 C
HETATM   26  C2  UNL     1       4.975  32.079  24.585  1.00  0.00    -0.081 C
HETATM   27  C1  UNL     1       4.326  32.516  25.662  1.00  0.00     0.015 C
HETATM   28  C10 UNL     1       8.597  33.044  23.954  1.00  0.00     0.047 C
ENDBRANCH  17  18
ENDBRANCH  15  17
ENDBRANCH  14  15
ENDBRANCH  12  14
ENDBRANCH   1  12
BRANCH  11  29
HETATM   29  O5  UNL     1       1.557  35.335  24.582  1.00  0.00    -0.295 OA
BRANCH  29  30
HETATM   30  C23 UNL     1       1.040  34.049  24.657  1.00  0.00     0.361 C
HETATM   31  O6  UNL     1       0.517  33.594  23.609  1.00  0.00    -0.238 OA
HETATM   32  N2  UNL     1       1.072  33.254  25.812  1.00  0.00    -0.329 N
ATOM     33  H2  UNL     1       1.495  33.615  26.667  1.00  0.00     0.165 HD
BRANCH  32  34
HETATM   34  C24 UNL     1       0.508  31.924  25.792  1.00  0.00     0.024 C
HETATM   35  C25 UNL     1       1.156  31.022  24.779  1.00  0.00     0.037 C
HETATM   36  C26 UNL     1       0.766  31.297  27.168  1.00  0.00     0.037 C
HETATM   37  C27 UNL     1      -0.979  31.953  25.517  1.00  0.00     0.037 C
ENDBRANCH  32  34
ENDBRANCH  29  30
ENDBRANCH  11  29
TORSDOF 8
ENDMDL