MODEL 5
REMARK VINA RESULT: -8.712876674      2.397      4.950
REMARK  10 active torsions:
REMARK  status: ('A' for Active; 'I' for Inactive)
REMARK    1  A    between atoms: C4_4  and  C5_5
REMARK    2  A    between atoms: C5_5  and  O2_7
REMARK    3  A    between atoms: O2_7  and  C6_8
REMARK    4  A    between atoms: C8_10  and  O3_11
REMARK    5  A    between atoms: C11_16  and  C12_17
REMARK    6  A    between atoms: C12_17  and  C13_18
REMARK    7  A    between atoms: C18_23  and  O5_24
REMARK    8  A    between atoms: C20_27  and  O6_29
REMARK    9  A    between atoms: O6_29  and  C22_30
REMARK   10  A    between atoms: N1_36  and  C27_37
ROOT
HETATM    1  C1  UNL     1       1.871  37.349  19.616  1.00  0.00     0.017 C
HETATM    2  C2  UNL     1       1.036  36.647  20.135  1.00  0.00    -0.089 C
HETATM    3  C3  UNL     1       0.028  35.821  20.756  1.00  0.00     0.069 C
HETATM    4  C4  UNL     1       0.040  34.520  20.718  1.00  0.00     0.091 C
ENDROOT
BRANCH   4   5
HETATM    5  C5  UNL     1      -1.024  33.778  21.377  1.00  0.00     0.283 C
HETATM    6  O1  UNL     1      -2.129  33.626  20.764  1.00  0.00    -0.260 OA
BRANCH   5   7
HETATM    7  O2  UNL     1      -0.871  33.233  22.645  1.00  0.00    -0.307 OA
BRANCH   7   8
HETATM    8  C6  UNL     1       0.369  33.281  23.276  1.00  0.00     0.205 C
HETATM    9  C7  UNL     1       0.461  32.312  24.435  1.00  0.00     0.290 C
HETATM   10  C8  UNL     1      -0.271  33.348  25.251  1.00  0.00     0.191 C
HETATM   11  N1  UNL     1       1.802  32.215  24.987  1.00  0.00     0.126 N
HETATM   12  C9  UNL     1       0.460  34.356  24.348  1.00  0.00     0.117 C
HETATM   13  C10 UNL     1      -0.331  35.585  24.134  1.00  0.00     0.052 C
HETATM   14  O4  UNL     1       1.759  34.524  24.740  1.00  0.00    -0.341 OA
HETATM   15  C11 UNL     1       2.542  33.402  24.725  1.00  0.00     0.360 C
BRANCH  10  16
HETATM   16  O3  UNL     1      -1.623  33.325  24.910  1.00  0.00    -0.390 OA
ATOM     17  H3  UNL     1      -1.944  34.217  24.856  1.00  0.00     0.210 HD
ENDBRANCH  10  16
BRANCH  15  18
HETATM   18  C12 UNL     1       3.735  33.643  25.613  1.00  0.00     0.070 C
BRANCH  18  19
HETATM   19  C13 UNL     1       4.653  34.687  25.198  1.00  0.00     0.008 C
HETATM   20  C14 UNL     1       4.537  36.112  25.591  1.00  0.00     0.025 C
HETATM   21  C15 UNL     1       6.015  36.165  25.078  1.00  0.00     0.020 C
HETATM   22  C19 UNL     1       4.738  36.494  26.997  1.00  0.00    -0.017 C
HETATM   23  C16 UNL     1       6.038  34.773  25.603  1.00  0.00    -0.021 A
HETATM   24  C17 UNL     1       6.095  34.554  27.073  1.00  0.00     0.037 A
HETATM   25  C24 UNL     1       7.121  34.138  26.151  1.00  0.00    -0.032 A
HETATM   26  C18 UNL     1       5.817  35.812  27.751  1.00  0.00     0.155 C
HETATM   27  C25 UNL     1       8.449  34.911  26.256  1.00  0.00     0.016 C
HETATM   28  C26 UNL     1       7.372  32.660  25.943  1.00  0.00     0.016 C
HETATM   29  C20 UNL     1       3.987  37.464  27.557  1.00  0.00     0.058 C
HETATM   30  C21 UNL     1       4.198  37.840  28.969  1.00  0.00     0.077 C
BRANCH  26  31
HETATM   31  O5  UNL     1       5.352  35.546  29.065  1.00  0.00    -0.391 OA
ATOM     32  H5  UNL     1       4.404  35.603  29.082  1.00  0.00     0.210 HD
ENDBRANCH  26  31
BRANCH  29  33
HETATM   33  O6  UNL     1       3.018  38.110  26.801  1.00  0.00    -0.284 OA
BRANCH  33  34
HETATM   34  C22 UNL     1       3.169  39.346  26.215  1.00  0.00     0.259 C
HETATM   35  C23 UNL     1       3.458  39.538  24.771  1.00  0.00     0.126 C
HETATM   36  O7  UNL     1       3.054  40.355  26.954  1.00  0.00    -0.265 OA
ENDBRANCH  33  34
ENDBRANCH  29  33
ENDBRANCH  18  19
ENDBRANCH  15  18
BRANCH  11  37
HETATM   37  C27 UNL     1       2.483  31.049  24.387  1.00  0.00     0.272 C
HETATM   38  C28 UNL     1       2.082  29.848  25.205  1.00  0.00     0.037 C
ENDBRANCH  11  37
ENDBRANCH   7   8
ENDBRANCH   5   7
ENDBRANCH   4   5
TORSDOF 10
ENDMDL