MODEL 4
REMARK VINA RESULT: -6.810731001      3.018      5.116
REMARK  8 active torsions:
REMARK  status: ('A' for Active; 'I' for Inactive)
REMARK    1  A    between atoms: C2_2  and  O1_3
REMARK    2  A    between atoms: O1_3  and  C3_4
REMARK    3  A    between atoms: C8_9  and  C9_10
REMARK    4  A    between atoms: C9_10  and  O3_12
REMARK       I    between atoms: N1_17  and  C13_19
REMARK    5  A    between atoms: C16_24  and  C17_25
REMARK    6  A    between atoms: C17_25  and  O6_26
REMARK    7  A    between atoms: C21_31  and  O7_32
REMARK    8  A    between atoms: C22_35  and  C23_36
ROOT
HETATM    1  C3  UNL     1       1.242  37.087  21.077  1.00  0.00     0.161 C
HETATM    2  C4  UNL     1       2.523  37.764  21.319  1.00  0.00     0.040 C
HETATM    3  C5  UNL     1       3.497  37.217  22.293  1.00  0.00    -0.007 C
HETATM    4  C6  UNL     1       3.346  35.821  22.740  1.00  0.00     0.011 C
HETATM    5  C7  UNL     1       2.558  35.548  23.970  1.00  0.00     0.012 C
HETATM    6  C8  UNL     1       2.918  34.137  24.410  1.00  0.00     0.166 C
HETATM    7  C11 UNL     1       4.305  34.037  24.907  1.00  0.00     0.185 C
HETATM    8  O4  UNL     1       5.084  33.174  24.373  1.00  0.00    -0.290 OA
HETATM    9  C12 UNL     1       4.985  34.786  25.953  1.00  0.00     0.060 C
HETATM   10  N1  UNL     1       6.054  34.294  26.465  1.00  0.00    -0.311 N
ATOM     11  H1  UNL     1       6.373  33.394  26.106  1.00  0.00     0.170 HD
HETATM   12  C13 UNL     1       6.827  34.894  27.484  1.00  0.00     0.333 C
HETATM   13  N2  UNL     1       8.153  35.380  27.304  1.00  0.00    -0.040 NA
HETATM   14  O5  UNL     1       6.318  35.014  28.652  1.00  0.00    -0.251 OA
HETATM   15  C14 UNL     1       4.561  36.078  26.506  1.00  0.00     0.066 C
HETATM   16  C15 UNL     1       3.927  37.018  25.531  1.00  0.00     0.003 C
HETATM   17  C16 UNL     1       4.757  37.532  24.421  1.00  0.00     0.018 C
HETATM   18  C18 UNL     1       3.777  38.153  23.411  1.00  0.00    -0.003 C
HETATM   19  C19 UNL     1       2.628  38.753  24.149  1.00  0.00     0.015 C
HETATM   20  C20 UNL     1       1.751  37.763  24.854  1.00  0.00     0.046 C
HETATM   21  C21 UNL     1       0.410  37.565  24.307  1.00  0.00     0.262 C
HETATM   22  O8  UNL     1      -0.007  37.284  23.078  1.00  0.00    -0.349 OA
HETATM   23  C22 UNL     1       0.036  37.670  21.788  1.00  0.00     0.176 C
HETATM   24  C26 UNL     1       2.565  36.512  25.052  1.00  0.00     0.004 C
ENDROOT
BRANCH   6  25
HETATM   25  C9  UNL     1       1.907  33.493  25.241  1.00  0.00     0.270 C
HETATM   26  O2  UNL     1       2.234  32.882  26.279  1.00  0.00    -0.264 OA
BRANCH  25  27
HETATM   27  O3  UNL     1       0.584  33.557  24.884  1.00  0.00    -0.326 OA
HETATM   28  C10 UNL     1       0.046  32.824  23.785  1.00  0.00     0.213 C
ENDBRANCH  25  27
ENDBRANCH   6  25
BRANCH  17  29
HETATM   29  C17 UNL     1       5.700  38.619  24.878  1.00  0.00     0.169 C
BRANCH  29  30
HETATM   30  O6  UNL     1       6.980  38.162  25.108  1.00  0.00    -0.400 OA
ATOM     31  H6  UNL     1       7.062  37.220  25.018  1.00  0.00     0.209 HD
ENDBRANCH  29  30
ENDBRANCH  17  29
BRANCH  21  32
HETATM   32  O7  UNL     1      -0.565  37.679  25.160  1.00  0.00    -0.371 OA
ATOM     33  H7  UNL     1      -1.333  38.139  24.843  1.00  0.00     0.212 HD
ENDBRANCH  21  32
BRANCH   1  34
HETATM   34  O1  UNL     1       0.906  37.073  19.698  1.00  0.00    -0.356 OA
BRANCH  34  35
HETATM   35  C2  UNL     1       1.793  37.507  18.729  1.00  0.00     0.125 C
HETATM   36  C1  UNL     1       1.377  37.957  17.556  1.00  0.00     0.037 C
ENDBRANCH  34  35
ENDBRANCH   1  34
BRANCH  23  37
HETATM   37  C23 UNL     1      -0.242  39.080  21.488  1.00  0.00     0.003 C
HETATM   38  C24 UNL     1      -0.215  40.046  22.422  1.00  0.00    -0.032 C
HETATM   39  C25 UNL     1      -0.486  41.460  22.164  1.00  0.00     0.036 C
ENDBRANCH  23  37
TORSDOF 8
ENDMDL