MODEL 2
REMARK VINA RESULT: -5.183289139      1.613      4.734
REMARK  6 active torsions:
REMARK  status: ('A' for Active; 'I' for Inactive)
REMARK    1  A    between atoms: C2_2  and  N1_3
REMARK    2  A    between atoms: C2_2  and  N2_7
REMARK    3  A    between atoms: N2_7  and  C4_9
REMARK    4  A    between atoms: C4_9  and  C5_10
REMARK    5  A    between atoms: C5_10  and  N3_11
REMARK    6  A    between atoms: N3_11  and  C6_13
ROOT
HETATM    1  N2  UNL     1      10.401 195.833  88.398  1.00  0.00    -0.390 N
HETATM    2  C3  UNL     1      11.749 195.851  88.826  1.00  0.00     0.145 C
ENDROOT
BRANCH   1   3
HETATM    3  C2  UNL     1       9.394 196.020  89.381  1.00  0.00     0.275 C
HETATM    4  C1  UNL     1       9.397 197.399  90.026  1.00  0.00     0.063 C
BRANCH   3   5
HETATM    5  N1  UNL     1       9.602 195.092  90.506  1.00  0.00    -0.059 N
ATOM      6  H13 UNL     1       9.720 195.551  91.409  1.00  0.00     0.276 HD
ATOM      7  H12 UNL     1       8.774 194.553  90.762  1.00  0.00     0.276 HD
ATOM      8  H11 UNL     1      10.397 194.522  90.219  1.00  0.00     0.276 HD
ENDBRANCH   3   5
ENDBRANCH   1   3
BRANCH   1   9
HETATM    9  C4  UNL     1      10.060 194.877  87.408  1.00  0.00     0.137 C
BRANCH   9  10
HETATM   10  C5  UNL     1      10.571 195.160  86.022  1.00  0.00     0.133 C
BRANCH  10  11
HETATM   11  N3  UNL     1       9.474 195.132  85.086  1.00  0.00    -0.416 N
ATOM     12  H3  UNL     1       9.557 195.488  84.134  1.00  0.00     0.153 HD
BRANCH  11  13
HETATM   13  C6  UNL     1       8.262 194.569  85.589  1.00  0.00     0.076 A
HETATM   14  C7  UNL     1       6.963 194.670  84.932  1.00  0.00     0.027 A
HETATM   15  C8  UNL     1       7.724 193.439  84.673  1.00  0.00     0.027 A
ENDBRANCH  11  13
ENDBRANCH  10  11
ENDBRANCH   9  10
ENDBRANCH   1   9
TORSDOF 6
ENDMDL