MODEL 2
REMARK VINA RESULT: -5.576285385      2.512      5.008
REMARK  4 active torsions:
REMARK  status: ('A' for Active; 'I' for Inactive)
REMARK    1  A    between atoms: C2_2  and  C3_3
REMARK    2  A    between atoms: C3_3  and  O1_4
REMARK    3  A    between atoms: O1_4  and  C4_5
REMARK    4  A    between atoms: C4_5  and  C5_6
ROOT
HETATM    1  C5  UNL     1      10.145 195.201  86.473  1.00  0.00     0.235 C
HETATM    2  C6  UNL     1      10.439 194.323  87.651  1.00  0.00     0.267 C
HETATM    3  N1  UNL     1      11.174 195.137  88.620  1.00  0.00    -0.071 N
ATOM      4  H11 UNL     1      11.480 194.586  89.422  1.00  0.00     0.277 HD
ATOM      5  H12 UNL     1      10.562 195.791  89.108  1.00  0.00     0.277 HD
HETATM    6  C7  UNL     1      12.277 195.812  87.983  1.00  0.00     0.259 C
HETATM    7  C8  UNL     1      12.549 195.320  86.587  1.00  0.00     0.260 C
HETATM    8  N2  UNL     1      11.375 195.398  85.743  1.00  0.00    -0.066 N
ATOM      9  H21 UNL     1      11.355 196.277  85.225  1.00  0.00     0.277 HD
ATOM     10  H22 UNL     1      11.443 194.746  84.961  1.00  0.00     0.277 HD
ENDROOT
BRANCH   1  11
HETATM   11  C4  UNL     1       9.068 194.630  85.584  1.00  0.00     0.202 C
BRANCH  11  12
HETATM   12  O1  UNL     1       7.891 195.375  85.646  1.00  0.00    -0.385 OA
BRANCH  12  13
HETATM   13  C3  UNL     1       6.935 194.628  84.922  1.00  0.00     0.194 C
BRANCH  13  14
HETATM   14  C2  UNL     1       7.419 193.302  84.552  1.00  0.00    -0.011 C
HETATM   15  C1  UNL     1       6.587 192.415  84.051  1.00  0.00     0.009 C
ENDBRANCH  13  14
ENDBRANCH  12  13
ENDBRANCH  11  12
ENDBRANCH   1  11
TORSDOF 4
ENDMDL