MODEL 5
REMARK VINA RESULT: -5.972764737      1.397      4.859
REMARK  5 active torsions:
REMARK  status: ('A' for Active; 'I' for Inactive)
REMARK    1  A    between atoms: N1_2  and  C2_5
REMARK    2  A    between atoms: C2_5  and  C3_6
REMARK    3  A    between atoms: C2_5  and  C4_11
REMARK    4  A    between atoms: C3_6  and  N2_7
REMARK    5  A    between atoms: C4_11  and  C5_12
ROOT
HETATM    1  C2  UNL     1       8.894 193.898  84.742  1.00  0.00     0.215 C
ENDROOT
BRANCH   1   2
HETATM    2  N1  UNL     1       8.640 192.941  83.669  1.00  0.00    -0.073 N
HETATM    3  C1  UNL     1       7.468 192.152  83.891  1.00  0.00     0.267 C
ATOM      4  H12 UNL     1       9.454 192.348  83.510  1.00  0.00     0.277 HD
ATOM      5  H11 UNL     1       8.597 193.411  82.765  1.00  0.00     0.277 HD
ENDBRANCH   1   2
BRANCH   1   6
HETATM    6  C3  UNL     1       7.522 194.390  85.156  1.00  0.00     0.262 C
BRANCH   6   7
HETATM    7  N2  UNL     1       7.654 195.734  85.672  1.00  0.00    -0.077 N
ATOM      8  H23 UNL     1       8.602 195.942  85.983  1.00  0.00     0.274 HD
ATOM      9  H22 UNL     1       7.588 196.443  84.941  1.00  0.00     0.274 HD
ATOM     10  H21 UNL     1       6.961 195.866  86.409  1.00  0.00     0.274 HD
ENDBRANCH   6   7
ENDBRANCH   1   6
BRANCH   1  11
HETATM   11  C4  UNL     1       9.608 193.315  85.903  1.00  0.00     0.074 C
BRANCH  11  12
HETATM   12  C5  UNL     1      10.564 194.171  86.580  1.00  0.00    -0.041 A
HETATM   13  C6  UNL     1      11.710 194.627  85.979  1.00  0.00     0.010 A
HETATM   14  C7  UNL     1      12.604 195.448  86.679  1.00  0.00     0.018 A
HETATM   15  C8  UNL     1      12.345 195.808  87.980  1.00  0.00     0.087 A
HETATM   16  N3  UNL     1      11.218 195.353  88.553  1.00  0.00    -0.375 N
HETATM   17  C9  UNL     1      10.346 194.562  87.894  1.00  0.00     0.094 A
ATOM     18  H3  UNL     1      11.015 195.613  89.518  1.00  0.00     0.164 HD
ENDBRANCH  11  12
ENDBRANCH   1  11
TORSDOF 5
ENDMDL