MODEL 1
REMARK VINA RESULT: -5.495998593      0.000      0.000
REMARK  6 active torsions:
REMARK  status: ('A' for Active; 'I' for Inactive)
REMARK    1  A    between atoms: C2_2  and  C3_3
REMARK    2  A    between atoms: C3_3  and  C7_11
REMARK    3  A    between atoms: C4_4  and  C5_5
REMARK    4  A    between atoms: C5_5  and  N1_7
REMARK    5  A    between atoms: C7_11  and  N2_12
REMARK    6  A    between atoms: N2_12  and  N3_13
ROOT
HETATM    1  C3  UNL     1      10.289 195.406  87.239  1.00  0.00    -0.045 C
HETATM    2  C4  UNL     1       9.420 195.870  88.120  1.00  0.00     0.013 C
ENDROOT
BRANCH   1   3
HETATM    3  C2  UNL     1      11.689 195.420  87.582  1.00  0.00    -0.002 C
HETATM    4  C1  UNL     1      12.602 195.418  86.650  1.00  0.00     0.012 C
ENDBRANCH   1   3
BRANCH   1   5
HETATM    5  C7  UNL     1       9.790 194.892  85.949  1.00  0.00     0.167 C
BRANCH   5   6
HETATM    6  N2  UNL     1       8.481 195.393  85.582  1.00  0.00    -0.160 NA
BRANCH   6   7
HETATM    7  N3  UNL     1       8.041 194.655  84.491  1.00  0.00    -0.232 NA
HETATM    8  C8  UNL     1       6.965 193.720  84.621  1.00  0.00     0.125 A
HETATM    9  C9  UNL     1       8.409 193.260  84.473  1.00  0.00     0.125 A
ENDBRANCH   6   7
ENDBRANCH   5   6
ENDBRANCH   1   5
BRANCH   2  10
HETATM   10  C5  UNL     1       9.810 196.406  89.443  1.00  0.00     0.203 C
HETATM   11  C6  UNL     1       9.589 195.338  90.500  1.00  0.00     0.044 C
BRANCH  10  12
HETATM   12  N1  UNL     1       9.135 197.622  89.792  1.00  0.00    -0.072 N
ATOM     13  H13 UNL     1       9.482 198.400  89.232  1.00  0.00     0.275 HD
ATOM     14  H12 UNL     1       8.166 197.601  89.473  1.00  0.00     0.275 HD
ATOM     15  H11 UNL     1       9.183 197.846  90.787  1.00  0.00     0.275 HD
ENDBRANCH  10  12
ENDBRANCH   2  10
TORSDOF 6
ENDMDL