MODEL 2
REMARK VINA RESULT: -5.456467930      1.254      1.477
REMARK  6 active torsions:
REMARK  status: ('A' for Active; 'I' for Inactive)
REMARK    1  A    between atoms: O1_2  and  C2_3
REMARK    2  A    between atoms: C2_3  and  C3_4
REMARK    3  A    between atoms: C3_4  and  N1_5
REMARK    4  A    between atoms: C3_4  and  C4_9
REMARK    5  A    between atoms: C4_9  and  N2_11
REMARK    6  A    between atoms: N2_11  and  C6_14
ROOT
HETATM    1  C3  UNL     1       9.567 194.948  85.462  1.00  0.00     0.237 C
ENDROOT
BRANCH   1   2
HETATM    2  C2  UNL     1       8.326 194.178  85.165  1.00  0.00     0.201 C
BRANCH   2   3
HETATM    3  O1  UNL     1       8.500 192.793  85.191  1.00  0.00    -0.394 OA
HETATM    4  C1  UNL     1       7.786 192.325  84.065  1.00  0.00     0.201 C
ENDBRANCH   2   3
ENDBRANCH   1   2
BRANCH   1   5
HETATM    5  N1  UNL     1      10.211 195.443  84.237  1.00  0.00    -0.071 N
ATOM      6  H13 UNL     1      11.183 195.704  84.408  1.00  0.00     0.274 HD
ATOM      7  H12 UNL     1      10.364 194.688  83.567  1.00  0.00     0.274 HD
ATOM      8  H11 UNL     1       9.689 196.211  83.816  1.00  0.00     0.274 HD
ENDBRANCH   1   5
BRANCH   1   9
HETATM    9  C4  UNL     1      10.538 194.075  86.193  1.00  0.00     0.214 C
HETATM   10  C5  UNL     1      11.978 194.453  85.943  1.00  0.00     0.042 C
BRANCH   9  11
HETATM   11  N2  UNL     1      10.325 194.067  87.621  1.00  0.00    -0.065 N
ATOM     12  H22 UNL     1       9.544 193.460  87.871  1.00  0.00     0.278 HD
ATOM     13  H21 UNL     1      11.077 193.573  88.101  1.00  0.00     0.278 HD
BRANCH  11  14
HETATM   14  C6  UNL     1      10.147 195.389  88.163  1.00  0.00     0.186 A
HETATM   15  C7  UNL     1       9.951 195.362  89.709  1.00  0.00     0.035 A
HETATM   16  C8  UNL     1      11.173 195.940  89.073  1.00  0.00     0.035 A
ENDBRANCH  11  14
ENDBRANCH   9  11
ENDBRANCH   1   9
TORSDOF 6
ENDMDL