MODEL 3
REMARK VINA RESULT: -5.466752219      2.573      4.760
REMARK  4 active torsions:
REMARK  status: ('A' for Active; 'I' for Inactive)
REMARK    1  A    between atoms: O1_2  and  C2_3
REMARK    2  A    between atoms: C2_3  and  C3_4
REMARK    3  A    between atoms: C3_4  and  N1_5
REMARK    4  A    between atoms: N1_5  and  C4_8
ROOT
HETATM    1  C4  UNL     1      10.245 195.391  85.718  1.00  0.00     0.217 C
HETATM    2  C5  UNL     1       9.266 195.517  86.894  1.00  0.00     0.062 C
HETATM    3  C6  UNL     1      10.270 195.448  88.044  1.00  0.00     0.235 C
HETATM    4  N2  UNL     1      11.014 194.264  87.670  1.00  0.00    -0.069 N
ATOM      5  H21 UNL     1      10.545 193.382  87.877  1.00  0.00     0.277 HD
ATOM      6  H22 UNL     1      11.838 194.078  88.242  1.00  0.00     0.277 HD
HETATM    7  C7  UNL     1      11.288 194.488  86.270  1.00  0.00     0.212 C
HETATM    8  C8  UNL     1      12.688 195.040  86.127  1.00  0.00     0.042 C
ENDROOT
BRANCH   1   9
HETATM    9  N1  UNL     1       9.468 194.845  84.629  1.00  0.00    -0.067 N
ATOM     10  H12 UNL     1      10.065 194.410  83.926  1.00  0.00     0.277 HD
ATOM     11  H11 UNL     1       9.060 195.584  84.055  1.00  0.00     0.277 HD
BRANCH   9  12
HETATM   12  C3  UNL     1       8.457 193.929  85.105  1.00  0.00     0.258 C
BRANCH  12  13
HETATM   13  C2  UNL     1       7.065 194.278  84.683  1.00  0.00     0.194 C
BRANCH  13  14
HETATM   14  O1  UNL     1       6.436 193.280  83.972  1.00  0.00    -0.394 OA
HETATM   15  C1  UNL     1       7.133 192.066  84.117  1.00  0.00     0.201 C
ENDBRANCH  13  14
ENDBRANCH  12  13
ENDBRANCH   9  12
ENDBRANCH   1   9
TORSDOF 4
ENDMDL