MODEL 5
REMARK VINA RESULT: -5.942577479      1.464      1.856
REMARK  12 active torsions:
REMARK  status: ('A' for Active; 'I' for Inactive)
REMARK    1  A    between atoms: C3_3  and  C4_4
REMARK       I    between atoms: C4_4  and  N1_6
REMARK    2  A    between atoms: N1_6  and  N2_8
REMARK    3  A    between atoms: C14_21  and  C15_22
REMARK       I    between atoms: C15_22  and  N4_24
REMARK    4  A    between atoms: N4_24  and  C16_26
REMARK    5  A    between atoms: C16_26  and  C17_27
REMARK    6  A    between atoms: C17_27  and  O3_28
REMARK    7  A    between atoms: C17_27  and  N5_30
REMARK    8  A    between atoms: N5_30  and  O4_32
REMARK    9  A    between atoms: N9_46  and  C21_47
REMARK   10  A    between atoms: C21_47  and  O7_48
REMARK   11  A    between atoms: O7_48  and  C22_49
REMARK   12  A    between atoms: C22_49  and  C23_51
ROOT
HETATM    1  N2  UNL     1      45.749  10.847 -48.285  1.00  0.00    -0.286 N
ATOM      2  H2  UNL     1      46.345  10.210 -48.813  1.00  0.00     0.188 HD
HETATM    3  C5  UNL     1      44.493  10.983 -48.549  1.00  0.00     0.106 C
HETATM    4  C6  UNL     1      43.994  10.120 -49.696  1.00  0.00     0.078 C
HETATM    5  C7  UNL     1      43.362   8.872 -49.126  1.00  0.00     0.007 C
HETATM    6  C8  UNL     1      43.532   7.746 -50.116  1.00  0.00     0.001 C
HETATM    7  C9  UNL     1      42.936   8.088 -51.443  1.00  0.00     0.005 C
HETATM    8  C10 UNL     1      41.491   7.656 -51.486  1.00  0.00     0.041 C
HETATM    9  C11 UNL     1      40.488   8.638 -50.952  1.00  0.00    -0.024 A
HETATM   10  C12 UNL     1      40.389   9.999 -51.166  1.00  0.00     0.034 A
HETATM   11  C13 UNL     1      39.372  10.418 -50.346  1.00  0.00     0.011 A
HETATM   12  N3  UNL     1      38.852   9.363 -49.656  1.00  0.00    -0.355 N
ATOM     13  H3  UNL     1      38.086   9.414 -48.984  1.00  0.00     0.166 HD
HETATM   14  C14 UNL     1      39.519   8.237 -50.009  1.00  0.00     0.107 A
HETATM   15  C18 UNL     1      38.854  11.827 -50.102  1.00  0.00     0.077 C
HETATM   16  C19 UNL     1      39.897  12.678 -49.406  1.00  0.00     0.139 C
HETATM   17  N6  UNL     1      41.082  11.842 -49.121  1.00  0.00    -0.302 N
ATOM     18  H6  UNL     1      41.120  10.829 -49.236  1.00  0.00     0.173 HD
HETATM   19  S1  UNL     1      42.373  12.801 -48.575  1.00  0.00     0.320 S
HETATM   20  O5  UNL     1      42.955  13.579 -49.738  1.00  0.00    -0.182 OA
HETATM   21  O6  UNL     1      41.910  13.841 -47.568  1.00  0.00    -0.182 OA
HETATM   22  N7  UNL     1      43.609  11.832 -47.870  1.00  0.00    -0.256 N
ATOM     23  H7  UNL     1      43.708  11.881 -46.856  1.00  0.00     0.181 HD
ENDROOT
BRANCH   1  24
HETATM   24  N1  UNL     1      46.259  11.648 -47.204  1.00  0.00    -0.263 N
HETATM   25  C4  UNL     1      47.397  11.177 -46.568  1.00  0.00     0.288 C
HETATM   26  O1  UNL     1      47.891  10.068 -46.989  1.00  0.00    -0.264 OA
ATOM     27  H1  UNL     1      45.806  12.517 -46.921  1.00  0.00     0.190 HD
BRANCH  25  28
HETATM   28  C3  UNL     1      48.069  11.841 -45.470  1.00  0.00     0.126 A
HETATM   29  C2  UNL     1      47.605  12.268 -44.260  1.00  0.00     0.043 A
HETATM   30  C1  UNL     1      46.227  12.161 -43.704  1.00  0.00     0.071 C
HETATM   31  N9  UNL     1      48.630  12.833 -43.597  1.00  0.00    -0.322 N
HETATM   32  C20 UNL     1      49.715  12.765 -44.368  1.00  0.00     0.185 A
HETATM   33  N8  UNL     1      49.419  12.171 -45.510  1.00  0.00    -0.346 N
ATOM     34  H8  UNL     1      50.062  11.988 -46.280  1.00  0.00     0.167 HD
BRANCH  31  35
HETATM   35  C21 UNL     1      48.591  13.439 -42.267  1.00  0.00     0.310 C
BRANCH  35  36
HETATM   36  O7  UNL     1      49.012  12.509 -41.300  1.00  0.00    -0.301 OA
BRANCH  36  37
HETATM   37  C22 UNL     1      48.098  11.793 -40.577  1.00  0.00     0.263 C
HETATM   38  O8  UNL     1      47.144  12.400 -40.057  1.00  0.00    -0.265 OA
BRANCH  37  39
HETATM   39  C23 UNL     1      48.267  10.310 -40.426  1.00  0.00     0.077 C
HETATM   40  C24 UNL     1      49.153   9.847 -41.565  1.00  0.00     0.020 C
HETATM   41  C25 UNL     1      46.888   9.692 -40.527  1.00  0.00     0.020 C
ENDBRANCH  37  39
ENDBRANCH  36  37
ENDBRANCH  35  36
ENDBRANCH  31  35
ENDBRANCH  25  28
ENDBRANCH   1  24
BRANCH  14  42
HETATM   42  C15 UNL     1      39.152   6.902 -49.529  1.00  0.00     0.269 C
HETATM   43  O2  UNL     1      38.036   6.388 -49.819  1.00  0.00    -0.266 OA
HETATM   44  N4  UNL     1      40.043   6.119 -48.720  1.00  0.00    -0.348 N
ATOM     45  H4  UNL     1      40.960   6.491 -48.471  1.00  0.00     0.163 HD
BRANCH  44  46
HETATM   46  C16 UNL     1      39.649   4.815 -48.256  1.00  0.00     0.208 C
BRANCH  46  47
HETATM   47  C17 UNL     1      38.932   4.816 -46.976  1.00  0.00     0.153 C
BRANCH  47  48
HETATM   48  O3  UNL     1      38.077   3.648 -46.790  1.00  0.00    -0.347 OA
ATOM     49  H3  UNL     1      37.223   3.860 -46.433  1.00  0.00     0.219 HD
ENDBRANCH  47  48
BRANCH  47  50
HETATM   50  N5  UNL     1      38.905   5.604 -46.020  1.00  0.00    -0.250 N
ATOM     51  H5  UNL     1      38.162   5.385 -45.357  1.00  0.00     0.196 HD
BRANCH  50  52
HETATM   52  O4  UNL     1      39.613   6.662 -45.657  1.00  0.00    -0.288 OA
ATOM     53  H4  UNL     1      39.803   7.509 -46.042  1.00  0.00     0.244 HD
ENDBRANCH  50  52
ENDBRANCH  47  50
ENDBRANCH  46  47
ENDBRANCH  44  46
ENDBRANCH  14  42
TORSDOF 12
ENDMDL