MODEL 4
REMARK VINA RESULT: -4.999406975      3.067      6.220
REMARK  16 active torsions:
REMARK  status: ('A' for Active; 'I' for Inactive)
REMARK    1  A    between atoms: C2_2  and  O2_4
REMARK    2  A    between atoms: O2_4  and  C3_5
REMARK    3  A    between atoms: C3_5  and  C4_6
REMARK    4  A    between atoms: C3_5  and  C9_12
REMARK    5  A    between atoms: C4_6  and  C5_7
REMARK    6  A    between atoms: C6_8  and  C8_10
REMARK    7  A    between atoms: C9_12  and  O4_14
REMARK    8  A    between atoms: C9_12  and  C11_16
REMARK    9  A    between atoms: C13_18  and  O5_19
REMARK   10  A    between atoms: O5_19  and  C14_20
REMARK   11  A    between atoms: C22_28  and  O6_29
REMARK   12  A    between atoms: C25_33  and  O7_34
REMARK   13  A    between atoms: C26_36  and  O8_37
REMARK   14  A    between atoms: C28_40  and  O9_41
REMARK   15  A    between atoms: C29_43  and  O10_45
REMARK   16  A    between atoms: C31_47  and  O11_48
ROOT
HETATM    1  C11 UNL     1      41.291   9.028 -50.241  1.00  0.00     0.048 C
HETATM    2  C12 UNL     1      40.195   9.799 -49.451  1.00  0.00     0.024 C
HETATM    3  C13 UNL     1      41.625   7.877 -49.313  1.00  0.00     0.143 C
HETATM    4  C19 UNL     1      42.383   8.548 -48.159  1.00  0.00     0.048 C
HETATM    5  C20 UNL     1      43.286   9.431 -48.907  1.00  0.00     0.022 C
HETATM    6  C21 UNL     1      44.435   8.495 -49.363  1.00  0.00     0.022 C
HETATM    7  C22 UNL     1      43.868  10.597 -48.291  1.00  0.00     0.083 C
HETATM    8  C23 UNL     1      43.488  11.799 -49.146  1.00  0.00     0.059 C
HETATM    9  C24 UNL     1      42.276  11.350 -49.944  1.00  0.00     0.050 C
HETATM   10  C25 UNL     1      42.501   9.860 -50.171  1.00  0.00     0.081 C
HETATM   11  C26 UNL     1      43.003  12.545 -47.896  1.00  0.00     0.076 C
HETATM   12  C27 UNL     1      43.827  13.721 -47.611  1.00  0.00     0.073 C
HETATM   13  C28 UNL     1      45.098  13.525 -46.874  1.00  0.00     0.157 C
HETATM   14  C29 UNL     1      44.866  12.635 -45.704  1.00  0.00     0.106 C
HETATM   15  C30 UNL     1      44.156  13.486 -44.639  1.00  0.00     0.051 C
HETATM   16  C31 UNL     1      44.106  11.403 -45.934  1.00  0.00     0.164 C
HETATM   17  C32 UNL     1      43.253  11.304 -47.132  1.00  0.00     0.088 C
ENDROOT
BRANCH   1  18
HETATM   18  C9  UNL     1      40.644   8.593 -51.460  1.00  0.00     0.093 C
HETATM   19  C10 UNL     1      41.439   7.366 -52.041  1.00  0.00     0.049 C
BRANCH  18  20
HETATM   20  C3  UNL     1      39.262   8.203 -51.643  1.00  0.00     0.170 C
BRANCH  20  21
HETATM   21  O2  UNL     1      38.965   6.906 -51.957  1.00  0.00    -0.313 OA
BRANCH  21  22
HETATM   22  C2  UNL     1      37.905   6.161 -51.427  1.00  0.00     0.255 C
HETATM   23  C1  UNL     1      37.251   6.630 -50.207  1.00  0.00     0.126 C
HETATM   24  O1  UNL     1      37.552   5.129 -52.004  1.00  0.00    -0.266 OA
ENDBRANCH  21  22
ENDBRANCH  20  21
BRANCH  20  25
HETATM   25  C4  UNL     1      38.673   9.070 -52.803  1.00  0.00     0.063 C
BRANCH  25  26
HETATM   26  C5  UNL     1      37.575   9.894 -52.343  1.00  0.00    -0.014 C
HETATM   27  C6  UNL     1      37.534  11.172 -52.258  1.00  0.00    -0.028 C
HETATM   28  C7  UNL     1      36.239  11.799 -51.737  1.00  0.00     0.051 C
BRANCH  27  29
HETATM   29  C8  UNL     1      38.561  12.093 -52.577  1.00  0.00     0.265 C
HETATM   30  O3  UNL     1      39.591  12.278 -51.935  1.00  0.00    -0.302 OA
ENDBRANCH  27  29
ENDBRANCH  25  26
ENDBRANCH  20  25
ENDBRANCH  18  20
BRANCH  18  31
HETATM   31  O4  UNL     1      40.942   9.596 -52.424  1.00  0.00    -0.387 OA
ATOM     32  H4  UNL     1      40.851   9.205 -53.285  1.00  0.00     0.210 HD
ENDBRANCH  18  31
ENDBRANCH   1  18
BRANCH   3  33
HETATM   33  O5  UNL     1      40.483   7.261 -48.803  1.00  0.00    -0.349 OA
BRANCH  33  34
HETATM   34  C14 UNL     1      40.337   5.927 -48.557  1.00  0.00     0.044 C
HETATM   35  C15 UNL     1      40.845   4.898 -49.535  1.00  0.00     0.076 C
HETATM   36  C16 UNL     1      39.758   5.497 -47.472  1.00  0.00    -0.059 C
HETATM   37  C17 UNL     1      39.617   4.042 -47.237  1.00  0.00     0.045 C
HETATM   38  C18 UNL     1      39.229   6.430 -46.452  1.00  0.00     0.045 C
ENDBRANCH  33  34
ENDBRANCH   3  33
BRANCH  10  39
HETATM   39  O7  UNL     1      43.425   9.823 -51.166  1.00  0.00    -0.388 OA
ATOM     40  H7  UNL     1      43.442  10.495 -51.836  1.00  0.00     0.210 HD
ENDBRANCH  10  39
BRANCH   7  41
HETATM   41  O6  UNL     1      45.264  10.502 -48.079  1.00  0.00    -0.388 OA
ATOM     42  H6  UNL     1      45.564  10.921 -47.280  1.00  0.00     0.210 HD
ENDBRANCH   7  41
BRANCH  11  43
HETATM   43  O8  UNL     1      41.644  12.934 -47.986  1.00  0.00    -0.389 OA
ATOM     44  H8  UNL     1      41.048  12.249 -47.705  1.00  0.00     0.210 HD
ENDBRANCH  11  43
BRANCH  16  45
HETATM   45  O11 UNL     1      43.365  11.129 -44.756  1.00  0.00    -0.392 OA
ATOM     46  H11 UNL     1      43.928  10.640 -44.168  1.00  0.00     0.210 HD
ENDBRANCH  16  45
BRANCH  14  47
HETATM   47  O10 UNL     1      46.134  12.355 -45.140  1.00  0.00    -0.385 OA
ATOM     48  H10 UNL     1      46.008  12.266 -44.202  1.00  0.00     0.210 HD
ENDBRANCH  14  47
BRANCH  13  49
HETATM   49  O9  UNL     1      45.455  14.794 -46.350  1.00  0.00    -0.392 OA
ATOM     50  H9  UNL     1      45.190  14.791 -45.438  1.00  0.00     0.210 HD
ENDBRANCH  13  49
TORSDOF 16
ENDMDL