MODEL 5
REMARK VINA RESULT: -6.224508996      3.441      8.534
REMARK  11 active torsions:
REMARK  status: ('A' for Active; 'I' for Inactive)
REMARK    1  A    between atoms: C2_2  and  O1_3
REMARK    2  A    between atoms: C2_2  and  C23_41
REMARK    3  A    between atoms: O1_3  and  C3_4
REMARK       I    between atoms: C3_4  and  N1_6
REMARK    4  A    between atoms: N1_6  and  C4_8
REMARK    5  A    between atoms: C4_8  and  C5_9
REMARK    6  A    between atoms: C5_9  and  C6_10
REMARK    7  A    between atoms: C6_10  and  C7_11
REMARK    8  A    between atoms: C7_11  and  S1_12
REMARK    9  A    between atoms: S1_12  and  S2_13
REMARK   10  A    between atoms: S2_13  and  C8_14
REMARK   11  A    between atoms: C24_44  and  N7_45
ROOT
HETATM    1  S2  UNL     1      37.076   4.030 -53.238  1.00  0.00    -0.044 SA
ENDROOT
BRANCH   1   2
HETATM    2  S1  UNL     1      37.753   3.361 -55.101  1.00  0.00    -0.091 SA
BRANCH   2   3
HETATM    3  C7  UNL     1      38.764   1.836 -54.968  1.00  0.00     0.086 C
BRANCH   3   4
HETATM    4  C6  UNL     1      38.306   1.070 -53.787  1.00  0.00     0.012 C
BRANCH   4   5
HETATM    5  C5  UNL     1      39.313   0.215 -53.100  1.00  0.00     0.020 C
BRANCH   5   6
HETATM    6  C4  UNL     1      40.500   0.876 -52.513  1.00  0.00     0.125 C
BRANCH   6   7
HETATM    7  N1  UNL     1      40.232   1.699 -51.382  1.00  0.00    -0.337 N
HETATM    8  C3  UNL     1      40.292   3.121 -51.395  1.00  0.00     0.361 C
HETATM    9  O2  UNL     1      40.593   3.739 -52.445  1.00  0.00    -0.238 OA
ATOM     10  H1  UNL     1      39.981   1.240 -50.507  1.00  0.00     0.164 HD
BRANCH   8  11
HETATM   11  O1  UNL     1      40.022   3.846 -50.263  1.00  0.00    -0.291 OA
BRANCH  11  12
HETATM   12  C2  UNL     1      40.912   4.755 -49.654  1.00  0.00     0.198 C
HETATM   13  C1  UNL     1      42.134   3.981 -49.172  1.00  0.00     0.048 C
BRANCH  12  14
HETATM   14  C23 UNL     1      40.291   5.348 -48.446  1.00  0.00     0.142 A
HETATM   15  N6  UNL     1      39.497   4.579 -47.683  1.00  0.00    -0.177 N
HETATM   16  C24 UNL     1      38.912   5.058 -46.572  1.00  0.00     0.691 A
ATOM     17  H6  UNL     1      39.334   3.609 -47.954  1.00  0.00     0.185 HD
HETATM   18  N8  UNL     1      39.103   6.320 -46.187  1.00  0.00    -0.023 N
HETATM   19  C25 UNL     1      39.892   7.109 -46.931  1.00  0.00     0.691 A
ATOM     20  H8  UNL     1      38.657   6.679 -45.343  1.00  0.00     0.203 HD
HETATM   21  N9  UNL     1      40.109   8.322 -46.607  1.00  0.00    -0.234 N
HETATM   22  N10 UNL     1      40.483   6.611 -48.061  1.00  0.00    -0.177 N
ATOM     23  H92 UNL     1      39.668   8.694 -45.765  1.00  0.00     0.174 HD
ATOM     24  H91 UNL     1      40.708   8.922 -47.173  1.00  0.00     0.174 HD
ATOM     25  H10 UNL     1      41.082   7.218 -48.620  1.00  0.00     0.185 HD
BRANCH  16  26
HETATM   26  N7  UNL     1      38.152   4.246 -45.885  1.00  0.00    -0.234 N
ATOM     27  H72 UNL     1      38.433   3.283 -45.703  1.00  0.00     0.174 HD
ATOM     28  H71 UNL     1      37.265   4.607 -45.533  1.00  0.00     0.174 HD
ENDBRANCH  16  26
ENDBRANCH  12  14
ENDBRANCH  11  12
ENDBRANCH   8  11
ENDBRANCH   6   7
ENDBRANCH   5   6
ENDBRANCH   4   5
ENDBRANCH   3   4
ENDBRANCH   2   3
ENDBRANCH   1   2
BRANCH   1  29
HETATM   29  C8  UNL     1      37.534   5.742 -52.900  1.00  0.00     0.059 C
HETATM   30  N2  UNL     1      38.324   5.965 -51.907  1.00  0.00    -0.324 N
HETATM   31  C9  UNL     1      38.837   7.151 -51.420  1.00  0.00     0.223 C
ATOM     32  H2  UNL     1      38.617   5.131 -51.398  1.00  0.00     0.169 HD
HETATM   33  O3  UNL     1      38.486   7.756 -50.347  1.00  0.00    -0.273 OA
HETATM   34  C10 UNL     1      39.926   7.858 -52.184  1.00  0.00     0.130 C
HETATM   35  C11 UNL     1      41.229   7.737 -51.414  1.00  0.00     0.241 C
HETATM   36  N3  UNL     1      42.195   8.702 -51.837  1.00  0.00    -0.074 N
HETATM   37  C12 UNL     1      41.855  10.066 -51.509  1.00  0.00     0.241 C
ATOM     38  H32 UNL     1      43.117   8.467 -51.471  1.00  0.00     0.277 HD
ATOM     39  H31 UNL     1      42.376   8.610 -52.837  1.00  0.00     0.277 HD
HETATM   40  C13 UNL     1      41.492  10.240 -50.069  1.00  0.00     0.130 C
HETATM   41  C14 UNL     1      41.405  11.677 -49.773  1.00  0.00     0.219 C
HETATM   42  O4  UNL     1      42.442  12.383 -50.022  1.00  0.00    -0.274 OA
HETATM   43  N4  UNL     1      40.290  12.341 -49.244  1.00  0.00    -0.361 N
HETATM   44  C15 UNL     1      38.956  11.815 -49.129  1.00  0.00     0.122 C
ATOM     45  H4  UNL     1      40.439  13.292 -48.908  1.00  0.00     0.162 HD
HETATM   46  C16 UNL     1      37.930  12.708 -49.791  1.00  0.00     0.020 C
HETATM   47  C17 UNL     1      38.082  12.789 -51.273  1.00  0.00     0.003 C
HETATM   48  C18 UNL     1      37.715  11.485 -51.934  1.00  0.00     0.027 C
HETATM   49  C19 UNL     1      36.238  11.305 -52.088  1.00  0.00     0.232 C
HETATM   50  N5  UNL     1      35.824   9.937 -52.132  1.00  0.00    -0.075 N
HETATM   51  C20 UNL     1      36.398   9.172 -53.219  1.00  0.00     0.232 C
ATOM     52  H52 UNL     1      36.009   9.481 -51.239  1.00  0.00     0.277 HD
ATOM     53  H51 UNL     1      34.806   9.875 -52.152  1.00  0.00     0.277 HD
HETATM   54  C21 UNL     1      36.052   7.724 -53.031  1.00  0.00     0.034 C
HETATM   55  C22 UNL     1      36.973   6.780 -53.790  1.00  0.00     0.067 C
ENDBRANCH   1  29
TORSDOF 11
ENDMDL