MODEL 1
REMARK VINA RESULT: -6.165170317      0.000      0.000
REMARK  16 active torsions:
REMARK  status: ('A' for Active; 'I' for Inactive)
REMARK    1  A    between atoms: C2_2  and  C3_3
REMARK    2  A    between atoms: C2_2  and  C4_6
REMARK    3  A    between atoms: C3_3  and  O1_4
REMARK    4  A    between atoms: C4_6  and  O2_7
REMARK    5  A    between atoms: C4_6  and  C5_9
REMARK    6  A    between atoms: C5_9  and  C6_10
REMARK    7  A    between atoms: C7_11  and  C8_12
REMARK    8  A    between atoms: C8_12  and  O3_13
REMARK    9  A    between atoms: C8_12  and  C9_15
REMARK   10  A    between atoms: C9_15  and  O4_16
REMARK   11  A    between atoms: C10_18  and  O5_19
REMARK   12  A    between atoms: O5_19  and  C11_20
REMARK   13  A    between atoms: C14_23  and  O6_24
REMARK   14  A    between atoms: C23_34  and  O7_35
REMARK   15  A    between atoms: C25_39  and  O9_41
REMARK   16  A    between atoms: C27_43  and  O10_44
ROOT
HETATM    1  C9  UNL     1      39.572  11.469 -50.316  1.00  0.00     0.121 C
HETATM    2  C10 UNL     1      40.446  12.702 -50.307  1.00  0.00     0.191 C
HETATM    3  C23 UNL     1      39.410  13.825 -50.355  1.00  0.00     0.185 C
HETATM    4  C24 UNL     1      38.300  13.329 -51.241  1.00  0.00     0.106 C
HETATM    5  O8  UNL     1      38.525  13.654 -52.555  1.00  0.00    -0.338 OA
HETATM    6  C25 UNL     1      37.479  14.374 -53.054  1.00  0.00     0.198 C
HETATM    7  C26 UNL     1      37.784  15.825 -53.310  1.00  0.00     0.082 C
HETATM    8  C27 UNL     1      36.312  14.253 -52.128  1.00  0.00     0.180 C
HETATM    9  C28 UNL     1      35.635  15.538 -51.846  1.00  0.00     0.167 C
HETATM   10  O11 UNL     1      34.992  16.174 -52.650  1.00  0.00    -0.294 OA
HETATM   11  C29 UNL     1      35.850  15.949 -50.436  1.00  0.00     0.082 C
HETATM   12  C30 UNL     1      37.000  15.053 -49.954  1.00  0.00     0.019 C
HETATM   13  C31 UNL     1      36.949  13.847 -50.838  1.00  0.00     0.071 C
HETATM   14  C32 UNL     1      38.302  11.834 -51.003  1.00  0.00     0.059 C
HETATM   15  C33 UNL     1      38.168  11.064 -52.298  1.00  0.00     0.016 C
ENDROOT
BRANCH   1  16
HETATM   16  C8  UNL     1      39.322  10.958 -48.912  1.00  0.00     0.178 C
BRANCH  16  17
HETATM   17  C7  UNL     1      39.283   9.481 -48.904  1.00  0.00     0.004 C
HETATM   18  C6  UNL     1      38.895   8.802 -47.837  1.00  0.00    -0.025 C
BRANCH  18  19
HETATM   19  C5  UNL     1      38.854   7.318 -47.822  1.00  0.00     0.063 C
BRANCH  19  20
HETATM   20  C4  UNL     1      39.965   6.715 -46.987  1.00  0.00     0.151 C
BRANCH  20  21
HETATM   21  C2  UNL     1      40.111   5.296 -47.376  1.00  0.00    -0.037 C
HETATM   22  C1  UNL     1      41.273   4.845 -47.805  1.00  0.00     0.019 C
BRANCH  21  23
HETATM   23  C3  UNL     1      38.957   4.382 -47.286  1.00  0.00     0.200 C
BRANCH  23  24
HETATM   24  O1  UNL     1      38.456   4.320 -45.983  1.00  0.00    -0.397 OA
ATOM     25  H1  UNL     1      37.740   4.932 -45.856  1.00  0.00     0.209 HD
ENDBRANCH  23  24
ENDBRANCH  21  23
ENDBRANCH  20  21
BRANCH  20  26
HETATM   26  O2  UNL     1      39.616   6.741 -45.625  1.00  0.00    -0.391 OA
ATOM     27  H2  UNL     1      40.424   6.764 -45.127  1.00  0.00     0.210 HD
ENDBRANCH  20  26
ENDBRANCH  19  20
ENDBRANCH  18  19
ENDBRANCH  16  17
BRANCH  16  28
HETATM   28  O3  UNL     1      38.160  11.452 -48.355  1.00  0.00    -0.389 OA
ATOM     29  H3  UNL     1      38.203  12.401 -48.319  1.00  0.00     0.210 HD
ENDBRANCH  16  28
ENDBRANCH   1  16
BRANCH   1  30
HETATM   30  O4  UNL     1      40.237  10.471 -51.018  1.00  0.00    -0.384 OA
ATOM     31  H4  UNL     1      41.169  10.647 -50.958  1.00  0.00     0.210 HD
ENDBRANCH   1  30
BRANCH   2  32
HETATM   32  O5  UNL     1      41.260  12.766 -49.207  1.00  0.00    -0.374 OA
BRANCH  32  33
HETATM   33  C11 UNL     1      42.565  12.286 -49.473  1.00  0.00     0.127 C
HETATM   34  C12 UNL     1      43.460  13.461 -49.568  1.00  0.00     0.035 C
HETATM   35  C13 UNL     1      44.891  13.234 -49.316  1.00  0.00     0.041 C
HETATM   36  C14 UNL     1      45.229  11.961 -48.587  1.00  0.00     0.068 C
HETATM   37  C15 UNL     1      45.551  10.885 -49.560  1.00  0.00     0.017 C
HETATM   38  C20 UNL     1      44.140  11.654 -47.623  1.00  0.00    -0.010 C
HETATM   39  C16 UNL     1      46.697   9.984 -49.100  1.00  0.00     0.013 C
HETATM   40  C17 UNL     1      44.409  10.053 -50.012  1.00  0.00     0.008 C
HETATM   41  C18 UNL     1      43.247   9.972 -49.101  1.00  0.00     0.008 C
HETATM   42  C19 UNL     1      42.910  11.287 -48.428  1.00  0.00     0.025 C
HETATM   43  C21 UNL     1      44.438  10.515 -46.685  1.00  0.00     0.018 C
HETATM   44  C22 UNL     1      43.839  12.865 -46.784  1.00  0.00     0.018 C
BRANCH  36  45
HETATM   45  O6  UNL     1      46.393  12.224 -47.839  1.00  0.00    -0.389 OA
ATOM     46  H6  UNL     1      46.244  13.047 -47.388  1.00  0.00     0.210 HD
ENDBRANCH  36  45
ENDBRANCH  32  33
ENDBRANCH   2  32
BRANCH   3  47
HETATM   47  O7  UNL     1      40.059  14.908 -50.967  1.00  0.00    -0.390 OA
ATOM     48  H7  UNL     1      40.806  15.102 -50.413  1.00  0.00     0.210 HD
ENDBRANCH   3  47
BRANCH   6  49
HETATM   49  O9  UNL     1      37.100  13.819 -54.298  1.00  0.00    -0.363 OA
ATOM     50  H9  UNL     1      36.221  14.113 -54.507  1.00  0.00     0.213 HD
ENDBRANCH   6  49
BRANCH   8  51
HETATM   51  O10 UNL     1      35.356  13.335 -52.550  1.00  0.00    -0.376 OA
ATOM     52  H10 UNL     1      34.464  13.654 -52.485  1.00  0.00     0.211 HD
ENDBRANCH   8  51
TORSDOF 16
ENDMDL