MODEL 3
REMARK VINA RESULT: -6.163024646      3.552      7.044
REMARK  15 active torsions:
REMARK  status: ('A' for Active; 'I' for Inactive)
REMARK    1  A    between atoms: O1_2  and  C2_3
REMARK    2  A    between atoms: C2_3  and  O2_4
REMARK    3  A    between atoms: C4_8  and  O4_9
REMARK    4  A    between atoms: C4_8  and  C5_11
REMARK    5  A    between atoms: C5_11  and  C6_12
REMARK    6  A    between atoms: C6_12  and  O5_13
REMARK    7  A    between atoms: C6_12  and  C7_15
REMARK    8  A    between atoms: C7_15  and  O6_16
REMARK    9  A    between atoms: C8_18  and  O7_19
REMARK   10  A    between atoms: C9_21  and  O8_22
REMARK   11  A    between atoms: C10_24  and  C12_26
REMARK   12  A    between atoms: C23_38  and  C25_40
REMARK   13  A    between atoms: C25_40  and  C26_41
REMARK   14  A    between atoms: C26_41  and  O10_42
REMARK   15  A    between atoms: C26_41  and  C27_44
ROOT
HETATM    1  C7  UNL     1      39.730  11.215 -50.294  1.00  0.00     0.120 C
HETATM    2  C8  UNL     1      38.565  10.777 -51.075  1.00  0.00     0.185 C
HETATM    3  C9  UNL     1      37.610  11.982 -51.135  1.00  0.00     0.163 C
HETATM    4  C10 UNL     1      38.607  13.171 -51.176  1.00  0.00     0.021 C
HETATM    5  C11 UNL     1      39.246  13.156 -52.527  1.00  0.00     0.024 C
HETATM    6  C30 UNL     1      39.586  12.756 -50.099  1.00  0.00     0.002 C
HETATM    7  C31 UNL     1      40.961  13.312 -50.243  1.00  0.00     0.019 C
HETATM    8  C32 UNL     1      39.082  13.088 -48.723  1.00  0.00     0.019 C
ENDROOT
BRANCH   4   9
HETATM    9  C12 UNL     1      37.850  14.420 -50.935  1.00  0.00    -0.038 C
HETATM   10  C13 UNL     1      36.749  14.506 -50.183  1.00  0.00    -0.019 C
HETATM   11  C14 UNL     1      36.223  15.874 -50.131  1.00  0.00     0.038 C
HETATM   12  C15 UNL     1      36.941  16.647 -51.177  1.00  0.00     0.063 C
HETATM   13  C16 UNL     1      38.133  15.751 -51.464  1.00  0.00     0.089 C
HETATM   14  C18 UNL     1      36.548  16.472 -52.583  1.00  0.00     0.077 C
HETATM   15  C17 UNL     1      39.382  16.477 -51.163  1.00  0.00     0.051 C
HETATM   16  O9  UNL     1      37.723  15.810 -52.806  1.00  0.00    -0.363 OA
HETATM   17  C19 UNL     1      35.283  15.692 -52.880  1.00  0.00     0.040 C
HETATM   18  C23 UNL     1      36.328  17.678 -53.449  1.00  0.00    -0.007 C
HETATM   19  C20 UNL     1      34.213  16.736 -53.063  1.00  0.00     0.008 C
HETATM   20  C21 UNL     1      34.918  18.085 -53.089  1.00  0.00    -0.007 C
HETATM   21  C22 UNL     1      34.696  18.761 -51.814  1.00  0.00     0.011 C
HETATM   22  C24 UNL     1      37.255  18.812 -53.261  1.00  0.00     0.019 C
BRANCH  18  23
HETATM   23  C25 UNL     1      36.252  17.335 -54.903  1.00  0.00     0.044 C
BRANCH  23  24
HETATM   24  C26 UNL     1      37.306  17.784 -55.809  1.00  0.00     0.122 C
BRANCH  24  25
HETATM   25  O10 UNL     1      36.964  18.574 -56.871  1.00  0.00    -0.395 OA
ATOM     26  H10 UNL     1      36.556  18.169 -57.627  1.00  0.00     0.210 HD
ENDBRANCH  24  25
BRANCH  24  27
HETATM   27  C27 UNL     1      37.901  16.502 -56.434  1.00  0.00     0.006 C
HETATM   28  C28 UNL     1      36.940  15.346 -56.252  1.00  0.00     0.012 C
HETATM   29  C29 UNL     1      39.249  16.209 -55.848  1.00  0.00     0.012 C
ENDBRANCH  24  27
ENDBRANCH  23  24
ENDBRANCH  18  23
ENDBRANCH   4   9
BRANCH   3  30
HETATM   30  O8  UNL     1      36.793  11.968 -52.221  1.00  0.00    -0.392 OA
ATOM     31  H8  UNL     1      35.892  11.754 -52.011  1.00  0.00     0.210 HD
ENDBRANCH   3  30
BRANCH   2  32
HETATM   32  O7  UNL     1      38.805  10.501 -52.429  1.00  0.00    -0.390 OA
ATOM     33  H7  UNL     1      38.398   9.713 -52.770  1.00  0.00     0.210 HD
ENDBRANCH   2  32
BRANCH   1  34
HETATM   34  C6  UNL     1      39.879  10.530 -48.993  1.00  0.00     0.161 C
BRANCH  34  35
HETATM   35  C5  UNL     1      39.252   9.196 -48.868  1.00  0.00     0.103 C
BRANCH  35  36
HETATM   36  C4  UNL     1      39.679   8.173 -47.919  1.00  0.00     0.169 C
HETATM   37  O3  UNL     1      40.569   7.211 -48.395  1.00  0.00    -0.350 OA
HETATM   38  C3  UNL     1      40.588   6.239 -47.399  1.00  0.00     0.240 C
HETATM   39  C2  UNL     1      39.178   6.156 -46.864  1.00  0.00     0.188 C
HETATM   40  C33 UNL     1      38.457   7.162 -47.724  1.00  0.00     0.139 C
BRANCH  39  41
HETATM   41  O1  UNL     1      38.659   4.889 -46.893  1.00  0.00    -0.358 OA
HETATM   42  C1  UNL     1      39.504   3.884 -47.276  1.00  0.00     0.205 C
ENDBRANCH  39  41
BRANCH  39  43
HETATM   43  O2  UNL     1      39.168   6.584 -45.535  1.00  0.00    -0.363 OA
ATOM     44  H2  UNL     1      39.251   5.814 -44.986  1.00  0.00     0.213 HD
ENDBRANCH  39  43
BRANCH  36  45
HETATM   45  O4  UNL     1      39.928   8.530 -46.614  1.00  0.00    -0.365 OA
ATOM     46  H4  UNL     1      39.419   9.281 -46.334  1.00  0.00     0.213 HD
ENDBRANCH  36  45
ENDBRANCH  35  36
ENDBRANCH  34  35
BRANCH  34  47
HETATM   47  O5  UNL     1      41.308  10.164 -48.876  1.00  0.00    -0.392 OA
ATOM     48  H5  UNL     1      41.407  10.162 -47.931  1.00  0.00     0.210 HD
ENDBRANCH  34  47
ENDBRANCH   1  34
BRANCH   1  49
HETATM   49  O6  UNL     1      40.904  10.982 -51.009  1.00  0.00    -0.384 OA
ATOM     50  H6  UNL     1      40.815  10.126 -51.412  1.00  0.00     0.210 HD
ENDBRANCH   1  49
TORSDOF 15
ENDMDL