MODEL 5
REMARK VINA RESULT: -5.485207606      1.250      1.480
REMARK  17 active torsions:
REMARK  status: ('A' for Active; 'I' for Inactive)
REMARK    1  A    between atoms: C3_4  and  C4_5
REMARK    2  A    between atoms: C4_5  and  O2_8
REMARK    3  A    between atoms: C9_12  and  C10_13
REMARK    4  A    between atoms: C10_13  and  C12_15
REMARK    5  A    between atoms: C14_17  and  O3_18
REMARK    6  A    between atoms: O3_18  and  C15_19
REMARK    7  A    between atoms: C18_23  and  O5_24
REMARK    8  A    between atoms: C19_26  and  O6_27
REMARK    9  A    between atoms: C22_31  and  C23_32
REMARK   10  A    between atoms: C23_32  and  O7_33
REMARK   11  A    between atoms: C23_32  and  C24_35
REMARK   12  A    between atoms: C24_35  and  O8_37
REMARK   13  A    between atoms: C24_35  and  C26_39
REMARK   14  A    between atoms: C26_39  and  O9_40
REMARK   15  A    between atoms: C26_39  and  C27_42
REMARK   16  A    between atoms: C27_42  and  O10_45
REMARK   17  A    between atoms: C32_49  and  O11_50
ROOT
HETATM    1  C12 UNL     1      42.938  12.280 -48.529  1.00  0.00     0.022 C
HETATM    2  C13 UNL     1      43.000  13.290 -49.639  1.00  0.00     0.042 C
HETATM    3  C14 UNL     1      41.553  13.778 -49.778  1.00  0.00     0.157 C
HETATM    4  C19 UNL     1      40.569  12.688 -50.005  1.00  0.00     0.094 C
HETATM    5  C20 UNL     1      39.438  12.786 -48.987  1.00  0.00     0.042 C
HETATM    6  C21 UNL     1      38.741  11.436 -49.322  1.00  0.00     0.011 C
HETATM    7  C22 UNL     1      39.882  10.556 -49.143  1.00  0.00     0.031 C
HETATM    8  C30 UNL     1      41.026  11.301 -49.868  1.00  0.00     0.022 C
HETATM    9  C31 UNL     1      41.251  10.731 -51.247  1.00  0.00     0.021 C
HETATM   10  C32 UNL     1      42.255  11.046 -49.074  1.00  0.00     0.134 C
ENDROOT
BRANCH   7  11
HETATM   11  C23 UNL     1      39.902   9.130 -49.411  1.00  0.00     0.159 C
BRANCH  11  12
HETATM   12  O7  UNL     1      38.869   8.540 -50.108  1.00  0.00    -0.392 OA
ATOM     13  H7  UNL     1      39.009   8.220 -50.992  1.00  0.00     0.210 HD
ENDBRANCH  11  12
BRANCH  11  14
HETATM   14  C24 UNL     1      40.305   8.156 -48.354  1.00  0.00     0.109 C
HETATM   15  C25 UNL     1      41.601   7.495 -48.930  1.00  0.00     0.051 C
BRANCH  14  16
HETATM   16  O8  UNL     1      40.843   8.728 -47.202  1.00  0.00    -0.385 OA
ATOM     17  H8  UNL     1      41.379   8.144 -46.677  1.00  0.00     0.210 HD
ENDBRANCH  14  16
BRANCH  14  18
HETATM   18  C26 UNL     1      39.277   7.152 -48.028  1.00  0.00     0.188 C
BRANCH  18  19
HETATM   19  O9  UNL     1      38.206   7.813 -47.411  1.00  0.00    -0.389 OA
ATOM     20  H9  UNL     1      37.402   7.385 -47.681  1.00  0.00     0.210 HD
ENDBRANCH  18  19
BRANCH  18  21
HETATM   21  C27 UNL     1      39.576   6.015 -47.124  1.00  0.00     0.079 C
HETATM   22  C28 UNL     1      40.857   5.291 -47.343  1.00  0.00     0.048 C
HETATM   23  C29 UNL     1      38.431   5.067 -46.846  1.00  0.00     0.048 C
BRANCH  21  24
HETATM   24  O10 UNL     1      39.733   6.666 -45.854  1.00  0.00    -0.388 OA
ATOM     25  H10 UNL     1      40.110   5.978 -45.317  1.00  0.00     0.210 HD
ENDBRANCH  21  24
ENDBRANCH  18  21
ENDBRANCH  14  18
ENDBRANCH  11  14
ENDBRANCH   7  11
BRANCH   4  26
HETATM   26  O6  UNL     1      39.910  13.005 -51.185  1.00  0.00    -0.386 OA
ATOM     27  H6  UNL     1      40.566  13.382 -51.759  1.00  0.00     0.210 HD
ENDBRANCH   4  26
BRANCH  10  28
HETATM   28  O11 UNL     1      43.240  10.364 -49.807  1.00  0.00    -0.394 OA
ATOM     29  H11 UNL     1      44.046  10.845 -49.659  1.00  0.00     0.210 HD
ENDBRANCH  10  28
BRANCH   3  30
HETATM   30  O3  UNL     1      41.454  14.814 -50.689  1.00  0.00    -0.373 OA
BRANCH  30  31
HETATM   31  C15 UNL     1      41.469  16.071 -50.219  1.00  0.00     0.176 C
HETATM   32  C16 UNL     1      42.030  17.097 -51.201  1.00  0.00     0.202 C
HETATM   33  O4  UNL     1      41.497  18.279 -50.720  1.00  0.00    -0.386 OA
HETATM   34  C17 UNL     1      40.152  18.022 -50.470  1.00  0.00     0.201 C
HETATM   35  C18 UNL     1      40.052  16.583 -50.065  1.00  0.00     0.173 C
BRANCH  35  36
HETATM   36  O5  UNL     1      39.562  16.422 -48.773  1.00  0.00    -0.391 OA
ATOM     37  H5  UNL     1      38.623  16.557 -48.719  1.00  0.00     0.210 HD
ENDBRANCH  35  36
ENDBRANCH  30  31
ENDBRANCH   3  30
BRANCH   1  38
HETATM   38  C10 UNL     1      44.283  11.842 -48.026  1.00  0.00    -0.006 C
HETATM   39  C11 UNL     1      44.073  11.247 -46.657  1.00  0.00     0.011 C
BRANCH  38  40
HETATM   40  C9  UNL     1      45.333  12.895 -48.045  1.00  0.00     0.018 C
HETATM   41  C2  UNL     1      46.689  12.351 -48.405  1.00  0.00     0.122 C
HETATM   42  C1  UNL     1      46.661  11.266 -49.452  1.00  0.00     0.040 C
HETATM   43  O1  UNL     1      47.428  12.037 -47.283  1.00  0.00    -0.378 OA
HETATM   44  C3  UNL     1      47.904  13.244 -46.755  1.00  0.00     0.155 C
HETATM   45  C7  UNL     1      46.790  14.209 -46.465  1.00  0.00     0.035 C
HETATM   46  C8  UNL     1      45.424  13.667 -46.751  1.00  0.00     0.010 C
BRANCH  44  47
HETATM   47  C4  UNL     1      48.812  13.015 -45.584  1.00  0.00     0.076 C
HETATM   48  C5  UNL     1      48.365  11.878 -44.704  1.00  0.00     0.048 C
HETATM   49  C6  UNL     1      49.005  14.293 -44.832  1.00  0.00     0.048 C
BRANCH  47  50
HETATM   50  O2  UNL     1      50.067  12.635 -46.111  1.00  0.00    -0.388 OA
ATOM     51  H2  UNL     1      50.646  12.504 -45.370  1.00  0.00     0.210 HD
ENDBRANCH  47  50
ENDBRANCH  44  47
ENDBRANCH  38  40
ENDBRANCH   1  38
TORSDOF 17
ENDMDL