MODEL 2
REMARK VINA RESULT: -6.195649924      1.011      1.370
REMARK  14 active torsions:
REMARK  status: ('A' for Active; 'I' for Inactive)
REMARK    1  A    between atoms: O1_2  and  N1_3
REMARK    2  A    between atoms: N1_3  and  C2_5
REMARK    3  A    between atoms: C6_9  and  C7_10
REMARK    4  A    between atoms: C7_10  and  O2_11
REMARK    5  A    between atoms: C7_10  and  C8_13
REMARK    6  A    between atoms: C8_13  and  O3_14
REMARK    7  A    between atoms: C8_13  and  C9_16
REMARK    8  A    between atoms: C9_16  and  O4_17
REMARK    9  A    between atoms: C9_16  and  C10_19
REMARK   10  A    between atoms: C10_19  and  O5_20
REMARK   11  A    between atoms: C11_22  and  C13_24
REMARK   12  A    between atoms: C20_34  and  O9_35
REMARK   13  A    between atoms: C21_37  and  O10_38
REMARK   14  A    between atoms: O10_38  and  S1_39
ROOT
HETATM    1  C2  UNL     1      41.179  11.814 -49.519  1.00  0.00     0.043 C
HETATM    2  C3  UNL     1      40.765  10.475 -49.794  1.00  0.00     0.039 C
HETATM    3  C4  UNL     1      41.530   9.275 -49.478  1.00  0.00     0.088 C
HETATM    4  C5  UNL     1      41.031   8.724 -48.120  1.00  0.00     0.053 C
HETATM    5  C6  UNL     1      40.843   7.272 -48.395  1.00  0.00     0.065 C
HETATM    6  C11 UNL     1      40.489   7.250 -49.815  1.00  0.00     0.152 C
HETATM    7  C12 UNL     1      41.248   6.081 -50.495  1.00  0.00     0.059 C
HETATM    8  O8  UNL     1      40.971   8.366 -50.427  1.00  0.00    -0.353 OA
HETATM    9  C14 UNL     1      42.956   9.092 -49.513  1.00  0.00     0.041 A
HETATM   10  C15 UNL     1      43.946   9.912 -50.142  1.00  0.00     0.007 A
HETATM   11  C16 UNL     1      43.601  11.097 -50.959  1.00  0.00     0.012 C
HETATM   12  C17 UNL     1      43.571  12.307 -50.220  1.00  0.00     0.003 C
HETATM   13  C18 UNL     1      44.079  13.630 -50.759  1.00  0.00     0.009 C
HETATM   14  C19 UNL     1      43.734  14.475 -49.524  1.00  0.00     0.042 C
HETATM   15  C20 UNL     1      42.729  13.625 -48.697  1.00  0.00     0.102 C
HETATM   16  C21 UNL     1      43.380  13.007 -47.540  1.00  0.00     0.203 C
HETATM   17  C22 UNL     1      43.173  11.613 -47.108  1.00  0.00     0.006 C
HETATM   18  C23 UNL     1      44.011  10.505 -47.581  1.00  0.00    -0.018 C
HETATM   19  C24 UNL     1      44.077   9.740 -48.776  1.00  0.00    -0.015 A
HETATM   20  C25 UNL     1      45.297   8.739 -48.484  1.00  0.00     0.020 C
HETATM   21  C26 UNL     1      42.234  12.753 -49.787  1.00  0.00     0.038 C
HETATM   22  C27 UNL     1      41.661  13.615 -50.928  1.00  0.00     0.025 C
ENDROOT
BRANCH   1  23
HETATM   23  N1  UNL     1      40.309  12.474 -48.788  1.00  0.00    -0.271 N
ATOM     24  H1  UNL     1      40.674  13.073 -48.048  1.00  0.00     0.194 HD
BRANCH  23  25
HETATM   25  O1  UNL     1      38.970  12.419 -48.942  1.00  0.00    -0.285 OA
HETATM   26  C1  UNL     1      38.276  13.628 -49.199  1.00  0.00     0.237 C
ENDBRANCH  23  25
ENDBRANCH   1  23
BRANCH   5  27
HETATM   27  C7  UNL     1      40.241   6.415 -47.394  1.00  0.00     0.157 C
BRANCH  27  28
HETATM   28  O2  UNL     1      40.055   7.196 -46.237  1.00  0.00    -0.392 OA
ATOM     29  H2  UNL     1      39.732   6.617 -45.557  1.00  0.00     0.210 HD
ENDBRANCH  27  28
BRANCH  27  30
HETATM   30  C8  UNL     1      40.709   5.049 -47.127  1.00  0.00     0.178 C
BRANCH  30  31
HETATM   31  O3  UNL     1      41.781   4.708 -47.972  1.00  0.00    -0.390 OA
ATOM     32  H3  UNL     1      41.565   4.875 -48.882  1.00  0.00     0.210 HD
ENDBRANCH  30  31
BRANCH  30  33
HETATM   33  C9  UNL     1      39.674   3.981 -47.383  1.00  0.00     0.172 C
BRANCH  33  34
HETATM   34  O4  UNL     1      38.374   4.428 -47.427  1.00  0.00    -0.391 OA
ATOM     35  H4  UNL     1      37.929   4.293 -48.256  1.00  0.00     0.210 HD
ENDBRANCH  33  34
BRANCH  33  36
HETATM   36  C10 UNL     1      40.029   2.984 -48.432  1.00  0.00     0.198 C
BRANCH  36  37
HETATM   37  O5  UNL     1      39.807   3.381 -49.740  1.00  0.00    -0.398 OA
ATOM     38  H5  UNL     1      39.925   2.709 -50.401  1.00  0.00     0.209 HD
ENDBRANCH  36  37
ENDBRANCH  33  36
ENDBRANCH  30  33
ENDBRANCH  27  30
ENDBRANCH   5  27
BRANCH   6  39
HETATM   39  C13 UNL     1      39.074   7.120 -50.211  1.00  0.00     0.209 C
HETATM   40  O6  UNL     1      38.432   8.042 -50.775  1.00  0.00    -0.646 OA
HETATM   41  O7  UNL     1      38.309   5.988 -50.012  1.00  0.00    -0.646 OA
ENDBRANCH   6  39
BRANCH  15  42
HETATM   42  O9  UNL     1      41.684  14.524 -48.391  1.00  0.00    -0.386 OA
ATOM     43  H9  UNL     1      40.912  13.973 -48.338  1.00  0.00     0.210 HD
ENDBRANCH  15  42
BRANCH  16  44
HETATM   44  O10 UNL     1      43.073  13.931 -46.488  1.00  0.00    -0.244 OA
BRANCH  44  45
HETATM   45  S1  UNL     1      44.386  14.574 -45.748  1.00  0.00     0.252 S
HETATM   46  O11 UNL     1      44.442  14.335 -44.271  1.00  0.00    -0.572 OA
HETATM   47  O12 UNL     1      44.389  16.068 -45.957  1.00  0.00    -0.572 OA
HETATM   48  O13 UNL     1      45.783  13.989 -46.509  1.00  0.00    -0.572 OA
ENDBRANCH  44  45
ENDBRANCH  16  44
TORSDOF 14
ENDMDL