MODEL 4
REMARK VINA RESULT: -5.523708157      3.112      5.414
REMARK  10 active torsions:
REMARK  status: ('A' for Active; 'I' for Inactive)
REMARK    1  A    between atoms: N1_1  and  C1_5
REMARK    2  A    between atoms: C1_5  and  C2_6
REMARK    3  A    between atoms: C2_6  and  C3_7
REMARK    4  A    between atoms: C3_7  and  C4_8
REMARK    5  A    between atoms: C4_8  and  C5_9
REMARK    6  A    between atoms: C5_9  and  N2_10
REMARK    7  A    between atoms: N2_10  and  C6_13
REMARK    8  A    between atoms: C6_13  and  C7_14
REMARK    9  A    between atoms: C10_17  and  C11_18
REMARK   10  A    between atoms: C11_18  and  N3_19
ROOT
HETATM    1  N3  UNL     1      43.243   7.192 -51.840  1.00  0.00     0.094 N
HETATM    2  C12 UNL     1      44.581   7.660 -51.846  1.00  0.00     0.274 C
HETATM    3  C13 UNL     1      44.790   9.134 -51.697  1.00  0.00     0.057 C
HETATM    4  C14 UNL     1      45.280   9.411 -50.296  1.00  0.00     0.234 C
HETATM    5  N4  UNL     1      45.172  10.776 -49.913  1.00  0.00    -0.073 N
ATOM      6  H41 UNL     1      45.852  10.995 -49.184  1.00  0.00     0.277 HD
ATOM      7  H42 UNL     1      44.305  10.932 -49.397  1.00  0.00     0.277 HD
HETATM    8  C15 UNL     1      45.285  11.716 -51.004  1.00  0.00     0.259 C
HETATM    9  C16 UNL     1      44.202  12.783 -50.780  1.00  0.00     0.259 C
HETATM   10  N5  UNL     1      42.936  12.146 -50.568  1.00  0.00    -0.072 N
ATOM     11  H51 UNL     1      42.563  12.369 -49.645  1.00  0.00     0.277 HD
ATOM     12  H52 UNL     1      43.046  11.137 -50.462  1.00  0.00     0.277 HD
HETATM   13  C17 UNL     1      41.976  12.456 -51.604  1.00  0.00     0.251 C
HETATM   14  C18 UNL     1      41.323  13.803 -51.267  1.00  0.00     0.141 C
HETATM   15  N6  UNL     1      39.984  13.528 -50.862  1.00  0.00    -0.420 N
ATOM     16  H6  UNL     1      39.545  12.623 -51.031  1.00  0.00     0.153 HD
HETATM   17  C19 UNL     1      39.292  14.593 -50.206  1.00  0.00     0.115 C
HETATM   18  C20 UNL     1      38.182  14.028 -49.334  1.00  0.00     0.046 C
HETATM   19  C21 UNL     1      36.939  13.718 -50.162  1.00  0.00     0.234 C
HETATM   20  N7  UNL     1      36.876  12.348 -50.584  1.00  0.00    -0.071 N
ATOM     21  H71 UNL     1      36.087  11.869 -50.150  1.00  0.00     0.277 HD
ATOM     22  H72 UNL     1      37.641  11.807 -50.181  1.00  0.00     0.277 HD
HETATM   23  C22 UNL     1      36.841  12.199 -52.037  1.00  0.00     0.271 C
HETATM   24  C23 UNL     1      36.098  10.978 -52.393  1.00  0.00    -0.025 A
HETATM   25  C24 UNL     1      34.711  11.048 -52.197  1.00  0.00     0.009 A
HETATM   26  C25 UNL     1      33.884   9.986 -52.483  1.00  0.00     0.001 A
HETATM   27  C26 UNL     1      34.411   8.826 -52.972  1.00  0.00     0.001 A
HETATM   28  C27 UNL     1      35.786   8.761 -53.165  1.00  0.00     0.009 A
HETATM   29  C28 UNL     1      36.640   9.813 -52.885  1.00  0.00    -0.033 A
HETATM   30  C29 UNL     1      38.115   9.652 -53.111  1.00  0.00     0.161 C
HETATM   31  N8  UNL     1      38.388   8.646 -54.073  1.00  0.00    -0.360 N
ATOM     32  H8  UNL     1      38.074   8.846 -55.023  1.00  0.00     0.162 HD
HETATM   33  C30 UNL     1      39.042   7.397 -53.890  1.00  0.00     0.184 C
HETATM   34  N9  UNL     1      38.454   6.281 -54.645  1.00  0.00    -0.064 NA
HETATM   35  N10 UNL     1      40.035   7.144 -53.192  1.00  0.00    -0.363 N
ATOM     36  H10 UNL     1      40.267   6.153 -53.265  1.00  0.00     0.162 HD
HETATM   37  C31 UNL     1      40.934   7.780 -52.343  1.00  0.00     0.152 C
HETATM   38  C32 UNL     1      42.400   7.708 -52.852  1.00  0.00     0.292 C
ENDROOT
BRANCH   1  39
HETATM   39  C11 UNL     1      43.261   5.762 -51.814  1.00  0.00     0.318 C
BRANCH  39  40
HETATM   40  C10 UNL     1      42.529   5.250 -50.589  1.00  0.00     0.011 A
HETATM   41  C9  UNL     1      42.848   5.250 -49.275  1.00  0.00     0.017 A
HETATM   42  C8  UNL     1      41.979   4.697 -48.413  1.00  0.00     0.017 A
HETATM   43  C7  UNL     1      40.830   4.168 -48.928  1.00  0.00     0.008 A
HETATM   44  S1  UNL     1      40.982   4.457 -50.586  1.00  0.00    -0.096 SA
BRANCH  43  45
HETATM   45  C6  UNL     1      39.778   3.395 -48.165  1.00  0.00     0.278 C
BRANCH  45  46
HETATM   46  N2  UNL     1      39.782   4.081 -46.855  1.00  0.00    -0.071 N
ATOM     47  H22 UNL     1      40.695   4.452 -46.592  1.00  0.00     0.277 HD
ATOM     48  H21 UNL     1      39.674   3.447 -46.063  1.00  0.00     0.277 HD
BRANCH  46  49
HETATM   49  C5  UNL     1      38.771   5.067 -46.932  1.00  0.00     0.232 C
BRANCH  49  50
HETATM   50  C4  UNL     1      39.236   6.448 -46.572  1.00  0.00     0.027 C
BRANCH  50  51
HETATM   51  C3  UNL     1      38.867   7.295 -47.776  1.00  0.00     0.003 C
BRANCH  51  52
HETATM   52  C2  UNL     1      39.937   7.887 -48.574  1.00  0.00     0.027 C
BRANCH  52  53
HETATM   53  C1  UNL     1      39.752   9.258 -49.118  1.00  0.00     0.229 C
BRANCH  53  54
HETATM   54  N1  UNL     1      38.812  10.097 -48.450  1.00  0.00    -0.079 N
ATOM     55  H13 UNL     1      39.311  10.812 -47.921  1.00  0.00     0.274 HD
ATOM     56  H12 UNL     1      38.325  10.675 -49.134  1.00  0.00     0.274 HD
ATOM     57  H11 UNL     1      38.131   9.639 -47.845  1.00  0.00     0.274 HD
ENDBRANCH  53  54
ENDBRANCH  52  53
ENDBRANCH  51  52
ENDBRANCH  50  51
ENDBRANCH  49  50
ENDBRANCH  46  49
ENDBRANCH  45  46
ENDBRANCH  43  45
ENDBRANCH  39  40
ENDBRANCH   1  39
TORSDOF 10
ENDMDL