MODEL 4
REMARK VINA RESULT: -6.084625633      3.686      7.985
REMARK  17 active torsions:
REMARK  status: ('A' for Active; 'I' for Inactive)
REMARK    1  A    between atoms: C2_2  and  O2_4
REMARK    2  A    between atoms: O2_4  and  C3_5
REMARK    3  A    between atoms: C3_5  and  C4_6
REMARK    4  A    between atoms: C3_5  and  C25_34
REMARK    5  A    between atoms: C5_7  and  O3_8
REMARK    6  A    between atoms: C11_15  and  C12_16
REMARK    7  A    between atoms: C20_27  and  C21_28
REMARK    8  A    between atoms: C24_31  and  O7_32
REMARK    9  A    between atoms: C25_34  and  O8_36
REMARK   10  A    between atoms: C25_34  and  C27_38
REMARK   11  A    between atoms: C27_38  and  O9_39
REMARK   12  A    between atoms: C27_38  and  C28_41
REMARK   13  A    between atoms: C28_41  and  O10_42
REMARK   14  A    between atoms: C28_41  and  C29_44
REMARK   15  A    between atoms: C29_44  and  O11_45
REMARK   16  A    between atoms: C29_44  and  C30_47
REMARK   17  A    between atoms: C30_47  and  O12_49
ROOT
HETATM    1  C4  UNL     1      38.264   8.771 -51.081  1.00  0.00     0.052 C
HETATM    2  C5  UNL     1      37.577   9.344 -52.343  1.00  0.00     0.126 C
HETATM    3  C6  UNL     1      36.713   8.154 -52.778  1.00  0.00     0.044 C
HETATM    4  C7  UNL     1      37.217   6.942 -52.226  1.00  0.00    -0.004 C
HETATM    5  C8  UNL     1      36.319   6.592 -51.009  1.00  0.00     0.019 C
HETATM    6  C9  UNL     1      38.521   7.397 -51.518  1.00  0.00     0.007 C
HETATM    7  C10 UNL     1      39.506   7.203 -52.617  1.00  0.00     0.029 C
HETATM    8  C11 UNL     1      39.209   5.758 -52.993  1.00  0.00     0.082 C
HETATM    9  C13 UNL     1      39.525   5.444 -54.450  1.00  0.00     0.030 C
HETATM   10  C14 UNL     1      38.336   5.986 -55.030  1.00  0.00     0.014 C
HETATM   11  C15 UNL     1      37.993   6.236 -56.404  1.00  0.00    -0.036 C
HETATM   12  C16 UNL     1      38.467   7.655 -56.854  1.00  0.00     0.015 C
HETATM   13  C17 UNL     1      38.479   5.377 -57.494  1.00  0.00     0.015 C
HETATM   14  C18 UNL     1      36.484   6.380 -56.283  1.00  0.00     0.088 C
HETATM   15  C19 UNL     1      36.096   5.940 -54.909  1.00  0.00     0.140 C
HETATM   16  O6  UNL     1      34.919   6.140 -54.558  1.00  0.00    -0.297 OA
HETATM   17  C20 UNL     1      37.226   5.343 -54.241  1.00  0.00     0.061 C
HETATM   18  C24 UNL     1      37.668   5.730 -52.884  1.00  0.00     0.098 C
ENDROOT
BRANCH   1  19
HETATM   19  C3  UNL     1      39.435   9.607 -50.688  1.00  0.00     0.175 C
BRANCH  19  20
HETATM   20  O2  UNL     1      40.286   9.920 -51.761  1.00  0.00    -0.313 OA
BRANCH  20  21
HETATM   21  C2  UNL     1      40.687  11.154 -52.183  1.00  0.00     0.255 C
HETATM   22  C1  UNL     1      40.330  11.651 -53.519  1.00  0.00     0.126 C
HETATM   23  O1  UNL     1      41.359  11.788 -51.353  1.00  0.00    -0.266 OA
ENDBRANCH  20  21
ENDBRANCH  19  20
BRANCH  19  24
HETATM   24  C25 UNL     1      40.152   9.205 -49.426  1.00  0.00     0.109 C
HETATM   25  C26 UNL     1      41.407   8.419 -49.709  1.00  0.00     0.051 C
BRANCH  24  26
HETATM   26  O8  UNL     1      40.582  10.355 -48.703  1.00  0.00    -0.385 OA
ATOM     27  H8  UNL     1      40.855  10.117 -47.825  1.00  0.00     0.210 HD
ENDBRANCH  24  26
BRANCH  24  28
HETATM   28  C27 UNL     1      39.294   8.456 -48.470  1.00  0.00     0.186 C
BRANCH  28  29
HETATM   29  O9  UNL     1      38.631   9.406 -47.595  1.00  0.00    -0.390 OA
ATOM     30  H9  UNL     1      37.823   9.687 -48.007  1.00  0.00     0.210 HD
ENDBRANCH  28  29
BRANCH  28  31
HETATM   31  C28 UNL     1      39.874   7.546 -47.476  1.00  0.00     0.181 C
BRANCH  31  32
HETATM   32  O10 UNL     1      40.208   8.458 -46.384  1.00  0.00    -0.390 OA
ATOM     33  H10 UNL     1      40.963   8.033 -45.995  1.00  0.00     0.210 HD
ENDBRANCH  31  32
BRANCH  31  34
HETATM   34  C29 UNL     1      39.062   6.529 -46.778  1.00  0.00     0.177 C
BRANCH  34  35
HETATM   35  O11 UNL     1      39.315   6.456 -45.388  1.00  0.00    -0.390 OA
ATOM     36  H11 UNL     1      38.547   6.616 -44.851  1.00  0.00     0.210 HD
ENDBRANCH  34  35
BRANCH  34  37
HETATM   37  C30 UNL     1      39.672   5.170 -47.265  1.00  0.00     0.145 C
HETATM   38  C31 UNL     1      38.723   4.041 -46.952  1.00  0.00     0.042 C
BRANCH  37  39
HETATM   39  O12 UNL     1      40.821   4.981 -46.481  1.00  0.00    -0.393 OA
ATOM     40  H12 UNL     1      40.635   4.219 -45.947  1.00  0.00     0.210 HD
ENDBRANCH  37  39
ENDBRANCH  34  37
ENDBRANCH  31  34
ENDBRANCH  28  31
ENDBRANCH  24  28
ENDBRANCH  19  24
ENDBRANCH   1  19
BRANCH   2  41
HETATM   41  O3  UNL     1      36.789  10.444 -52.033  1.00  0.00    -0.395 OA
ATOM     42  H3  UNL     1      37.161  10.944 -51.315  1.00  0.00     0.210 HD
ENDBRANCH   2  41
BRANCH  18  43
HETATM   43  O7  UNL     1      37.492   4.686 -51.964  1.00  0.00    -0.386 OA
ATOM     44  H7  UNL     1      38.342   4.276 -51.853  1.00  0.00     0.210 HD
ENDBRANCH  18  43
BRANCH   8  45
HETATM   45  C12 UNL     1      39.940   4.850 -52.139  1.00  0.00     0.185 C
HETATM   46  O4  UNL     1      40.271   3.699 -52.616  1.00  0.00    -0.647 OA
HETATM   47  O5  UNL     1      40.362   5.010 -50.848  1.00  0.00    -0.647 OA
ENDBRANCH   8  45
BRANCH  17  48
HETATM   48  C21 UNL     1      37.053   3.883 -54.286  1.00  0.00    -0.003 C
HETATM   49  C22 UNL     1      36.880   3.195 -55.600  1.00  0.00     0.011 C
HETATM   50  C23 UNL     1      35.789   3.525 -53.518  1.00  0.00     0.011 C
ENDBRANCH  17  48
TORSDOF 17
ENDMDL