MODEL 5
REMARK VINA RESULT: -5.950102007      4.134      6.794
REMARK  13 active torsions:
REMARK  status: ('A' for Active; 'I' for Inactive)
REMARK    1  A    between atoms: C2_2  and  N1_3
REMARK    2  A    between atoms: N1_3  and  C3_4
REMARK    3  A    between atoms: N1_3  and  C21_45
REMARK    4  A    between atoms: C3_4  and  C4_5
REMARK    5  A    between atoms: C7_8  and  N2_9
REMARK    6  A    between atoms: C10_18  and  C11_19
REMARK    7  A    between atoms: C11_19  and  N5_20
REMARK    8  A    between atoms: C12_23  and  C13_24
REMARK    9  A    between atoms: C17_33  and  N9_34
REMARK   10  A    between atoms: C19_39  and  N10_40
REMARK   11  A    between atoms: C23_49  and  N12_50
REMARK   12  A    between atoms: N12_50  and  C24_52
REMARK   13  A    between atoms: C27_55  and  C28_56
ROOT
HETATM    1  C4  UNL     1      38.861  10.434 -50.176  1.00  0.00    -0.024 C
HETATM    2  C5  UNL     1      39.152   9.893 -48.953  1.00  0.00     0.021 C
HETATM    3  C6  UNL     1      39.910   8.871 -48.329  1.00  0.00    -0.011 C
HETATM    4  C7  UNL     1      41.261   8.638 -48.323  1.00  0.00     0.121 C
HETATM    5  N3  UNL     1      41.690   7.646 -49.231  1.00  0.00    -0.176 N
ATOM      6  H3  UNL     1      42.554   7.110 -49.158  1.00  0.00     0.186 HD
HETATM    7  C8  UNL     1      40.756   7.520 -50.226  1.00  0.00     0.689 A
HETATM    8  N4  UNL     1      40.342   8.551 -50.805  1.00  0.00    -0.174 N
ATOM      9  H4  UNL     1      40.581   9.543 -50.786  1.00  0.00     0.186 HD
HETATM   10  C9  UNL     1      39.428   7.774 -51.477  1.00  0.00     0.159 A
HETATM   11  C10 UNL     1      38.897   8.820 -52.149  1.00  0.00     0.086 C
HETATM   12  C12 UNL     1      38.455  10.034 -51.464  1.00  0.00     0.039 C
HETATM   13  N8  UNL     1      39.960   6.763 -50.812  1.00  0.00    -0.164 N
HETATM   14  C16 UNL     1      39.987   5.264 -50.467  1.00  0.00     0.182 C
HETATM   15  C17 UNL     1      40.224   5.042 -49.040  1.00  0.00     0.204 C
HETATM   16  C18 UNL     1      39.202   5.418 -48.026  1.00  0.00     0.067 C
HETATM   17  C19 UNL     1      39.593   6.596 -47.136  1.00  0.00     0.190 C
HETATM   18  C20 UNL     1      39.042   7.891 -47.495  1.00  0.00     0.075 C
ENDROOT
BRANCH   1  19
HETATM   19  C3  UNL     1      38.797  12.009 -50.033  1.00  0.00     0.180 C
BRANCH  19  20
HETATM   20  N1  UNL     1      40.026  12.595 -49.870  1.00  0.00    -0.214 N
BRANCH  20  21
HETATM   21  C2  UNL     1      40.103  13.682 -51.091  1.00  0.00     0.137 C
HETATM   22  C1  UNL     1      38.770  14.350 -50.920  1.00  0.00     0.027 C
ENDBRANCH  20  21
BRANCH  20  23
HETATM   23  C21 UNL     1      41.212  12.757 -49.187  1.00  0.00     0.682 A
HETATM   24  N11 UNL     1      42.393  12.161 -49.621  1.00  0.00    -0.186 N
HETATM   25  C22 UNL     1      43.342  12.303 -48.696  1.00  0.00     0.121 A
ATOM     26  H11 UNL     1      42.514  11.685 -50.515  1.00  0.00     0.184 HD
HETATM   27  C23 UNL     1      44.636  11.868 -48.581  1.00  0.00     0.076 A
HETATM   28  C30 UNL     1      42.764  13.008 -47.635  1.00  0.00     0.150 A
HETATM   29  C27 UNL     1      45.350  12.145 -47.392  1.00  0.00     0.073 A
HETATM   30  C29 UNL     1      44.745  12.832 -46.394  1.00  0.00     0.108 A
HETATM   31  N14 UNL     1      43.447  13.264 -46.512  1.00  0.00    -0.349 N
ATOM     32  H14 UNL     1      43.006  13.778 -45.748  1.00  0.00     0.167 HD
HETATM   33  N15 UNL     1      41.486  13.257 -47.987  1.00  0.00    -0.174 N
ATOM     34  H15 UNL     1      40.816  13.764 -47.408  1.00  0.00     0.186 HD
BRANCH  27  35
HETATM   35  N12 UNL     1      45.212  11.085 -49.375  1.00  0.00    -0.383 N
ATOM     36  H12 UNL     1      46.020  11.506 -49.832  1.00  0.00     0.160 HD
BRANCH  35  37
HETATM   37  C24 UNL     1      44.988   9.759 -49.770  1.00  0.00     0.082 A
HETATM   38  C25 UNL     1      45.787   9.342 -51.014  1.00  0.00     0.027 A
HETATM   39  C26 UNL     1      44.300   9.345 -51.022  1.00  0.00     0.027 A
ENDBRANCH  35  37
ENDBRANCH  27  35
BRANCH  29  40
HETATM   40  C28 UNL     1      46.720  11.746 -47.342  1.00  0.00     0.268 C
HETATM   41  N13 UNL     1      47.740  12.595 -47.836  1.00  0.00    -0.057 NA
HETATM   42  O1  UNL     1      47.131  10.644 -46.862  1.00  0.00    -0.271 OA
ENDBRANCH  29  40
ENDBRANCH  20  23
ENDBRANCH  19  20
ENDBRANCH   1  19
BRANCH  12  43
HETATM   43  C13 UNL     1      37.522  10.887 -52.237  1.00  0.00     0.117 A
HETATM   44  N6  UNL     1      36.159  10.754 -52.112  1.00  0.00    -0.350 N
HETATM   45  C14 UNL     1      35.524  11.506 -52.979  1.00  0.00     0.106 A
ATOM     46  H6  UNL     1      35.701  10.148 -51.432  1.00  0.00     0.166 HD
HETATM   47  C15 UNL     1      36.499  12.171 -53.704  1.00  0.00     0.106 A
HETATM   48  N7  UNL     1      37.703  11.757 -53.207  1.00  0.00    -0.350 N
ATOM     49  H7  UNL     1      38.613  12.077 -53.541  1.00  0.00     0.166 HD
ENDBRANCH  12  43
BRANCH  11  50
HETATM   50  C11 UNL     1      38.663   8.832 -53.601  1.00  0.00    -0.032 C
BRANCH  50  51
HETATM   51  N5  UNL     1      38.478   8.810 -54.795  1.00  0.00    -0.365 N
ATOM     52  H52 UNL     1      39.322   8.489 -54.322  1.00  0.00     0.165 HD
ATOM     53  H51 UNL     1      38.296   8.802 -55.799  1.00  0.00     0.165 HD
ENDBRANCH  50  51
ENDBRANCH  11  50
BRANCH   4  54
HETATM   54  N2  UNL     1      42.287   9.142 -47.612  1.00  0.00    -0.385 N
ATOM     55  H22 UNL     1      42.338   8.734 -46.678  1.00  0.00     0.157 HD
ATOM     56  H21 UNL     1      42.998   9.846 -47.805  1.00  0.00     0.157 HD
ENDBRANCH   4  54
BRANCH  17  57
HETATM   57  N10 UNL     1      39.357   6.271 -45.737  1.00  0.00    -0.075 N
ATOM     58 3H10 UNL     1      39.079   5.298 -45.614  1.00  0.00     0.274 HD
ATOM     59 2H10 UNL     1      40.224   6.249 -45.200  1.00  0.00     0.274 HD
ATOM     60 1H10 UNL     1      38.676   6.915 -45.335  1.00  0.00     0.274 HD
ENDBRANCH  17  57
BRANCH  15  61
HETATM   61  N9  UNL     1      40.516   3.559 -48.995  1.00  0.00    -0.073 N
ATOM     62  H93 UNL     1      40.062   3.052 -48.236  1.00  0.00     0.274 HD
ATOM     63  H92 UNL     1      40.091   3.012 -49.744  1.00  0.00     0.274 HD
ATOM     64  H91 UNL     1      41.536   3.543 -48.975  1.00  0.00     0.274 HD
ENDBRANCH  15  61
TORSDOF 13
ENDMDL