MODEL 2
REMARK VINA RESULT: -4.132048925      1.255      1.255
REMARK  2 active torsions:
REMARK  status: ('A' for Active; 'I' for Inactive)
REMARK    1  A    between atoms: C1_4  and  C2_5
REMARK    2  A    between atoms: C3_6  and  C4_7
ROOT
HETATM    1  C2  UNL     1      24.150  18.639  -7.389  1.00  0.00    -0.059 C
HETATM    2  C3  UNL     1      25.045  19.448  -7.374  1.00  0.00    -0.070 C
ENDROOT
BRANCH   1   3
HETATM    3  C1  UNL     1      23.103  17.667  -7.393  1.00  0.00     0.146 C
HETATM    4  N1  UNL     1      22.140  17.742  -6.539  1.00  0.00    -0.401 N
ATOM      5  H12 UNL     1      22.141  18.507  -5.864  1.00  0.00     0.156 HD
ATOM      6  H11 UNL     1      21.392  17.048  -6.541  1.00  0.00     0.156 HD
ENDBRANCH   1   3
BRANCH   2   7
HETATM    7  C4  UNL     1      26.149  20.436  -7.332  1.00  0.00     0.200 A
HETATM    8  C5  UNL     1      27.458  19.943  -7.452  1.00  0.00     0.095 A
HETATM    9  N2  UNL     1      27.014  20.307  -6.258  1.00  0.00    -0.380 N
ATOM     10  H2  UNL     1      27.186  20.416  -5.258  1.00  0.00     0.160 HD
ENDBRANCH   2   7
TORSDOF 2
ENDMDL