MODEL 3
REMARK VINA RESULT: -4.239297437      3.408      5.089
REMARK  3 active torsions:
REMARK  status: ('A' for Active; 'I' for Inactive)
REMARK    1  A    between atoms: C3_3  and  C4_4
REMARK    2  A    between atoms: C5_5  and  C6_6
REMARK    3  A    between atoms: C6_6  and  N1_7
ROOT
HETATM    1  C1  UNL     1      22.625  16.781  -7.785  1.00  0.00     0.113 C
HETATM    2  C2  UNL     1      23.545  17.908  -7.597  1.00  0.00    -0.097 C
HETATM    3  C3  UNL     1      24.291  18.851  -7.451  1.00  0.00    -0.015 C
ENDROOT
BRANCH   3   4
HETATM    4  C4  UNL     1      25.151  19.975  -7.280  1.00  0.00    -0.013 C
HETATM    5  C5  UNL     1      25.871  20.936  -7.118  1.00  0.00    -0.065 C
BRANCH   5   6
HETATM    6  C6  UNL     1      26.729  22.103  -6.905  1.00  0.00     0.324 C
BRANCH   6   7
HETATM    7  N1  UNL     1      26.814  22.311  -5.468  1.00  0.00    -0.069 N
ATOM      8  H13 UNL     1      26.928  21.443  -4.944  1.00  0.00     0.275 HD
ATOM      9  H12 UNL     1      27.685  22.754  -5.178  1.00  0.00     0.275 HD
ATOM     10  H11 UNL     1      25.984  22.838  -5.194  1.00  0.00     0.275 HD
ENDBRANCH   6   7
ENDBRANCH   5   6
ENDBRANCH   3   4
TORSDOF 3
ENDMDL