MODEL 1
REMARK VINA RESULT: -4.528627950      0.000      0.000
REMARK  1 active torsions:
REMARK  status: ('A' for Active; 'I' for Inactive)
REMARK    1  A    between atoms: N1_1  and  N2_4
ROOT
HETATM    1  N2  UNL     1      25.476  17.206  -8.571  1.00  0.00    -0.285 N
HETATM    2  C1  UNL     1      26.207  18.329  -8.412  1.00  0.00     0.115 A
HETATM    3  C2  UNL     1      25.697  19.433  -7.757  1.00  0.00     0.019 A
HETATM    4  C3  UNL     1      24.417  19.431  -7.237  1.00  0.00     0.003 A
HETATM    5  C4  UNL     1      23.688  18.271  -7.411  1.00  0.00     0.019 A
HETATM    6  C5  UNL     1      24.242  17.194  -8.074  1.00  0.00     0.115 A
ENDROOT
BRANCH   1   7
HETATM    7  N1  UNL     1      26.052  16.117  -9.247  1.00  0.00    -0.339 N
ATOM      8  H12 UNL     1      26.725  16.217 -10.007  1.00  0.00     0.177 HD
ATOM      9  H11 UNL     1      25.786  15.172  -8.968  1.00  0.00     0.177 HD
ENDBRANCH   1   7
TORSDOF 1
ENDMDL