MODEL 4
REMARK VINA RESULT: -3.635462951      1.520      1.520
REMARK  1 active torsions:
REMARK  status: ('A' for Active; 'I' for Inactive)
REMARK    1  A    between atoms: C2_2  and  C3_3
ROOT
HETATM    1  C3  UNL     1      24.422  18.314  -7.861  1.00  0.00     0.090 C
HETATM    2  N1  UNL     1      24.496  18.119  -9.252  1.00  0.00    -0.095 NA
HETATM    3  S1  UNL     1      25.729  18.863  -7.052  1.00  0.00    -0.069 SA
ENDROOT
BRANCH   1   4
HETATM    4  C2  UNL     1      23.172  18.031  -7.094  1.00  0.00     0.062 C
HETATM    5  C1  UNL     1      22.427  16.882  -7.699  1.00  0.00     0.012 C
ENDBRANCH   1   4
TORSDOF 1
ENDMDL