MODEL 5
REMARK VINA RESULT: -3.430749378      1.320      3.158
REMARK  1 active torsions:
REMARK  status: ('A' for Active; 'I' for Inactive)
REMARK    1  A    between atoms: C2_4  and  N2_6
ROOT
HETATM    1  C1  UNL     1      25.458  19.969  -7.431  1.00  0.00     0.147 C
HETATM    2  N1  UNL     1      24.484  18.952  -7.649  1.00  0.00    -0.385 N
ATOM      3  H1  UNL     1      23.529  19.143  -7.345  1.00  0.00     0.160 HD
HETATM    4  C2  UNL     1      24.712  17.817  -8.199  1.00  0.00     0.068 C
HETATM    5  C3  UNL     1      26.098  17.535  -8.644  1.00  0.00     0.088 C
ENDROOT
BRANCH   4   6
HETATM    6  N2  UNL     1      23.733  16.818  -8.408  1.00  0.00    -0.385 N
HETATM    7  C4  UNL     1      22.414  16.867  -7.775  1.00  0.00     0.147 C
ATOM      8  H2  UNL     1      23.953  16.035  -9.022  1.00  0.00     0.160 HD
ENDBRANCH   4   6
TORSDOF 1
ENDMDL