MODEL 5
REMARK VINA RESULT: -3.640249697      1.370      2.747
REMARK  0 active torsions:
REMARK  status: ('A' for Active; 'I' for Inactive)
ROOT
HETATM    1  C1  UNL     1      22.723  17.909  -6.812  1.00  0.00     0.185 C
HETATM    2  N1  UNL     1      23.825  18.267  -7.717  1.00  0.00    -0.269 N
HETATM    3  C2  UNL     1      24.852  19.084  -7.424  1.00  0.00     0.118 A
HETATM    4  C3  UNL     1      25.687  19.182  -8.518  1.00  0.00     0.046 A
HETATM    5  C4  UNL     1      25.091  18.378  -9.467  1.00  0.00     0.169 A
HETATM    6  O1  UNL     1      24.007  17.872  -8.937  1.00  0.00    -0.249 OA
ENDROOT
TORSDOF 0
ENDMDL