MODEL 3
REMARK VINA RESULT: -3.681210842      1.308      1.336
REMARK  2 active torsions:
REMARK  status: ('A' for Active; 'I' for Inactive)
REMARK    1  A    between atoms: C2_2  and  N3_8
REMARK    2  A    between atoms: N1_3  and  N2_5
ROOT
HETATM    1  C1  UNL     1      23.405  18.217  -7.080  1.00  0.00     0.090 C
HETATM    2  C2  UNL     1      24.597  18.619  -7.862  1.00  0.00     0.088 C
HETATM    3  N1  UNL     1      24.798  18.294  -9.077  1.00  0.00    -0.296 N
ATOM      4  H1  UNL     1      24.083  17.720  -9.525  1.00  0.00     0.187 HD
ENDROOT
BRANCH   2   5
HETATM    5  N3  UNL     1      25.567  19.417  -7.196  1.00  0.00    -0.379 N
HETATM    6  C3  UNL     1      26.575  18.773  -6.389  1.00  0.00     0.150 C
HETATM    7  C4  UNL     1      25.587  20.860  -7.293  1.00  0.00     0.150 C
ENDBRANCH   2   5
BRANCH   3   8
HETATM    8  N2  UNL     1      25.885  18.642  -9.841  1.00  0.00    -0.344 N
ATOM      9  H22 UNL     1      26.793  18.553  -9.385  1.00  0.00     0.176 HD
ATOM     10  H21 UNL     1      25.862  18.974 -10.806  1.00  0.00     0.176 HD
ENDBRANCH   3   8
TORSDOF 2
ENDMDL