MODEL 3
REMARK VINA RESULT: -2.683266488      2.633      3.051
REMARK  0 active torsions:
REMARK  status: ('A' for Active; 'I' for Inactive)
ROOT
HETATM    1  C1  UNL     1      25.995  19.026 -10.073  1.00  0.00     0.160 C
HETATM    2  S1  UNL     1      25.469  17.971  -8.769  1.00  0.00     0.137 S
HETATM    3  C2  UNL     1      25.919  18.548  -7.137  1.00  0.00     0.160 C
HETATM    4  O1  UNL     1      23.776  17.811  -8.822  1.00  0.00    -0.229 OA
HETATM    5  O2  UNL     1      26.188  16.425  -8.976  1.00  0.00    -0.229 OA
ENDROOT
TORSDOF 0
ENDMDL