MODEL 4
REMARK VINA RESULT: -4.058749528      1.691      2.510
REMARK  1 active torsions:
REMARK  status: ('A' for Active; 'I' for Inactive)
REMARK    1  A    between atoms: N1_1  and  C1_5
ROOT
HETATM    1  C1  UNL     1      24.343  17.738  -8.211  1.00  0.00     0.200 A
HETATM    2  C2  UNL     1      24.204  18.910  -7.364  1.00  0.00     0.048 A
HETATM    3  C3  UNL     1      25.004  20.045  -7.205  1.00  0.00    -0.023 A
HETATM    4  C4  UNL     1      26.093  19.425  -7.263  1.00  0.00    -0.023 A
HETATM    5  C5  UNL     1      25.494  18.164  -7.435  1.00  0.00     0.048 A
ENDROOT
BRANCH   1   6
HETATM    6  N1  UNL     1      24.485  17.872  -9.673  1.00  0.00    -0.074 N
ATOM      7  H13 UNL     1      24.395  18.860  -9.911  1.00  0.00     0.274 HD
ATOM      8  H12 UNL     1      25.458  17.686  -9.914  1.00  0.00     0.274 HD
ATOM      9  H11 UNL     1      23.893  17.337 -10.308  1.00  0.00     0.274 HD
ENDBRANCH   1   6
TORSDOF 1
ENDMDL