MODEL 1
REMARK VINA RESULT: -3.133637758      0.000      0.000
REMARK  1 active torsions:
REMARK  status: ('A' for Active; 'I' for Inactive)
REMARK    1  A    between atoms: N1_2  and  N2_4
ROOT
HETATM    1  N2  UNL     1      25.274  17.584  -8.535  1.00  0.00    -0.004 N
HETATM    2  C2  UNL     1      25.163  18.527  -9.662  1.00  0.00     0.300 C
HETATM    3  C3  UNL     1      26.157  16.532  -8.968  1.00  0.00     0.300 C
HETATM    4  C4  UNL     1      25.777  18.323  -7.414  1.00  0.00     0.300 C
ENDROOT
BRANCH   1   5
HETATM    5  N1  UNL     1      23.995  17.139  -8.278  1.00  0.00    -0.258 N
HETATM    6  C1  UNL     1      23.272  17.869  -7.305  1.00  0.00     0.174 C
ATOM      7  H1  UNL     1      23.595  16.333  -8.759  1.00  0.00     0.186 HD
ENDBRANCH   1   5
TORSDOF 1
ENDMDL