MODEL 3
REMARK VINA RESULT: -5.170400519      1.270      1.270
REMARK  1 active torsions:
REMARK  status: ('A' for Active; 'I' for Inactive)
REMARK    1  A    between atoms: C1_2  and  C2_4
ROOT
HETATM    1  C2  UNL     1      25.078  18.103  -8.134  1.00  0.00     0.067 A
HETATM    2  C3  UNL     1      24.202  18.650  -7.218  1.00  0.00     0.032 A
HETATM    3  C4  UNL     1      23.027  17.991  -6.862  1.00  0.00     0.004 A
HETATM    4  C5  UNL     1      22.709  16.768  -7.419  1.00  0.00     0.017 A
HETATM    5  C6  UNL     1      23.616  16.259  -8.329  1.00  0.00     0.088 A
HETATM    6  N2  UNL     1      24.753  16.912  -8.667  1.00  0.00    -0.364 N
ATOM      7  H2  UNL     1      25.384  16.487  -9.346  1.00  0.00     0.165 HD
ENDROOT
BRANCH   1   8
HETATM    8  C1  UNL     1      26.302  18.826  -8.484  1.00  0.00     0.139 C
HETATM    9  N1  UNL     1      27.263  19.116  -7.494  1.00  0.00    -0.087 NA
HETATM   10  S1  UNL     1      26.488  19.267 -10.053  1.00  0.00    -0.061 SA
ENDBRANCH   1   8
TORSDOF 1
ENDMDL