MODEL 5
REMARK VINA RESULT: -4.804517828      2.751      4.102
REMARK  3 active torsions:
REMARK  status: ('A' for Active; 'I' for Inactive)
REMARK    1  A    between atoms: O1_1  and  S1_3
REMARK    2  A    between atoms: S1_3  and  C1_4
REMARK    3  A    between atoms: C5_8  and  O2_9
ROOT
HETATM    1  C1  UNL     1      25.957  19.032  -7.922  1.00  0.00     0.078 C
HETATM    2  C2  UNL     1      24.638  19.397  -7.334  1.00  0.00     0.017 C
HETATM    3  C3  UNL     1      23.681  18.284  -7.120  1.00  0.00     0.004 C
HETATM    4  C4  UNL     1      23.714  17.160  -8.081  1.00  0.00     0.032 C
HETATM    5  C5  UNL     1      24.853  17.040  -9.009  1.00  0.00     0.119 C
HETATM    6  C6  UNL     1      25.772  18.196  -9.149  1.00  0.00     0.049 C
ENDROOT
BRANCH   1   7
HETATM    7  S1  UNL     1      26.682  20.609  -8.506  1.00  0.00    -0.011 SA
BRANCH   7   8
HETATM    8  O1  UNL     1      26.704  20.517 -10.230  1.00  0.00    -0.329 OA
ATOM      9  H1  UNL     1      27.049  21.349 -10.534  1.00  0.00     0.227 HD
ENDBRANCH   7   8
ENDBRANCH   1   7
BRANCH   5  10
HETATM   10  O2  UNL     1      25.600  15.868  -8.789  1.00  0.00    -0.396 OA
ATOM     11  H2  UNL     1      26.283  15.749  -9.437  1.00  0.00     0.210 HD
ENDBRANCH   5  10
TORSDOF 3
ENDMDL