MODEL 2
REMARK VINA RESULT: -6.134303042      1.311      3.679
REMARK  2 active torsions:
REMARK  status: ('A' for Active; 'I' for Inactive)
REMARK    1  A    between atoms: O1_1  and  C1_3
REMARK    2  A    between atoms: C4_7  and  C5_8
ROOT
HETATM    1  C1  UNL     1      24.333  17.279  -8.483  1.00  0.00     0.149 C
HETATM    2  C2  UNL     1      23.021  16.813  -7.832  1.00  0.00     0.060 C
HETATM    3  C3  UNL     1      22.995  17.642  -6.575  1.00  0.00     0.171 C
HETATM    4  O2  UNL     1      23.538  18.853  -7.048  1.00  0.00    -0.383 OA
HETATM    5  C4  UNL     1      24.747  18.364  -7.591  1.00  0.00     0.158 C
ENDROOT
BRANCH   5   6
HETATM    6  C5  UNL     1      25.557  19.486  -8.144  1.00  0.00     0.043 A
HETATM    7  C6  UNL     1      26.972  19.389  -8.246  1.00  0.00    -0.023 A
HETATM    8  C7  UNL     1      27.185  20.384  -7.436  1.00  0.00    -0.029 A
HETATM    9  C8  UNL     1      25.755  20.606  -7.231  1.00  0.00     0.038 A
ENDBRANCH   5   6
BRANCH   1  10
HETATM   10  O1  UNL     1      24.062  17.569  -9.782  1.00  0.00    -0.393 OA
ATOM     11  H1  UNL     1      24.794  17.257 -10.302  1.00  0.00     0.210 HD
ENDBRANCH   1  10
TORSDOF 2
ENDMDL