MODEL 1
REMARK VINA RESULT: -5.103332903      0.000      0.000
REMARK  2 active torsions:
REMARK  status: ('A' for Active; 'I' for Inactive)
REMARK    1  A    between atoms: N1_1  and  C1_5
REMARK    2  A    between atoms: N2_9  and  C5_10
ROOT
HETATM    1  C1  UNL     1      27.569  19.422  -6.631  1.00  0.00     0.211 C
HETATM    2  C2  UNL     1      26.869  20.690  -6.224  1.00  0.00     0.036 C
HETATM    3  C3  UNL     1      25.925  20.994  -7.382  1.00  0.00     0.032 C
HETATM    4  C4  UNL     1      24.878  19.925  -7.356  1.00  0.00     0.273 C
HETATM    5  N2  UNL     1      25.342  18.596  -7.357  1.00  0.00     0.095 N
HETATM    6  C8  UNL     1      26.630  18.300  -6.874  1.00  0.00     0.305 C
ENDROOT
BRANCH   1   7
HETATM    7  N1  UNL     1      28.346  19.635  -7.849  1.00  0.00    -0.073 N
ATOM      8  H13 UNL     1      28.636  20.608  -7.949  1.00  0.00     0.274 HD
ATOM      9  H12 UNL     1      29.269  19.207  -7.791  1.00  0.00     0.274 HD
ATOM     10  H11 UNL     1      27.827  19.309  -8.664  1.00  0.00     0.274 HD
ENDBRANCH   1   7
BRANCH   5  11
HETATM   11  C5  UNL     1      24.399  17.652  -6.816  1.00  0.00     0.223 A
HETATM   12  C6  UNL     1      23.536  17.003  -7.918  1.00  0.00     0.038 A
HETATM   13  C7  UNL     1      22.943  17.851  -6.861  1.00  0.00     0.038 A
ENDBRANCH   5  11
TORSDOF 2
ENDMDL