MODEL 3
REMARK VINA RESULT: -4.853905088      1.322      1.322
REMARK  1 active torsions:
REMARK  status: ('A' for Active; 'I' for Inactive)
REMARK    1  A    between atoms: C1_2  and  C2_4
ROOT
HETATM    1  C2  UNL     1      25.521  19.240  -8.036  1.00  0.00     0.040 A
HETATM    2  C3  UNL     1      24.353  19.223  -7.304  1.00  0.00     0.021 A
HETATM    3  C4  UNL     1      23.546  18.121  -7.136  1.00  0.00     0.002 A
HETATM    4  C5  UNL     1      23.749  16.866  -7.652  1.00  0.00     0.007 A
HETATM    5  C6  UNL     1      24.820  16.516  -8.437  1.00  0.00     0.050 A
HETATM    6  S2  UNL     1      25.940  17.745  -8.763  1.00  0.00    -0.099 SA
ENDROOT
BRANCH   1   7
HETATM    7  C1  UNL     1      26.290  20.473  -8.139  1.00  0.00     0.130 C
HETATM    8  N1  UNL     1      27.124  20.647  -9.271  1.00  0.00    -0.088 NA
HETATM    9  S1  UNL     1      26.170  21.603  -6.967  1.00  0.00    -0.062 SA
ENDBRANCH   1   7
TORSDOF 1
ENDMDL