MODEL 2
REMARK VINA RESULT: -5.604508726      2.284      4.120
REMARK  2 active torsions:
REMARK  status: ('A' for Active; 'I' for Inactive)
REMARK    1  A    between atoms: C3_3  and  N1_4
REMARK    2  A    between atoms: C3_3  and  C4_8
ROOT
HETATM    1  C1  UNL     1      26.116  21.910  -6.894  1.00  0.00     0.014 C
HETATM    2  C2  UNL     1      26.140  20.764  -7.290  1.00  0.00    -0.084 C
HETATM    3  C3  UNL     1      26.179  19.372  -7.757  1.00  0.00     0.267 C
ENDROOT
BRANCH   3   4
HETATM    4  N1  UNL     1      26.958  19.358  -9.004  1.00  0.00    -0.064 N
ATOM      5  H13 UNL     1      27.708  18.667  -9.001  1.00  0.00     0.275 HD
ATOM      6  H12 UNL     1      26.438  18.982  -9.797  1.00  0.00     0.275 HD
ATOM      7  H11 UNL     1      27.290  20.310  -9.159  1.00  0.00     0.275 HD
ENDBRANCH   3   4
BRANCH   3   8
HETATM    8  C4  UNL     1      24.734  18.946  -8.059  1.00  0.00     0.052 C
HETATM    9  C5  UNL     1      23.969  18.623  -6.830  1.00  0.00     0.012 C
HETATM   10  C6  UNL     1      22.976  17.516  -6.969  1.00  0.00     0.027 C
HETATM   11  C7  UNL     1      23.299  16.537  -8.061  1.00  0.00     0.167 C
HETATM   12  O1  UNL     1      23.600  17.254  -9.240  1.00  0.00    -0.391 OA
HETATM   13  C8  UNL     1      24.842  17.802  -9.037  1.00  0.00     0.175 C
ENDBRANCH   3   8
TORSDOF 2
ENDMDL