MODEL 5
REMARK VINA RESULT: -5.269022751      1.658      3.706
REMARK  1 active torsions:
REMARK  status: ('A' for Active; 'I' for Inactive)
REMARK    1  A    between atoms: C3_3  and  N1_4
ROOT
HETATM    1  N1  UNL     1      25.078  18.898  -8.006  1.00  0.00     0.124 N
HETATM    2  C4  UNL     1      24.679  18.008  -6.910  1.00  0.00     0.308 C
HETATM    3  C5  UNL     1      24.200  16.883  -7.780  1.00  0.00     0.157 C
HETATM    4  C6  UNL     1      25.453  16.610  -8.566  1.00  0.00     0.098 C
HETATM    5  C7  UNL     1      25.028  17.974  -9.087  1.00  0.00     0.362 C
HETATM    6  O1  UNL     1      23.718  17.482  -8.954  1.00  0.00    -0.350 OA
ENDROOT
BRANCH   1   7
HETATM    7  C3  UNL     1      26.320  19.555  -7.784  1.00  0.00     0.226 A
HETATM    8  C2  UNL     1      26.051  20.987  -7.334  1.00  0.00     0.036 A
HETATM    9  C1  UNL     1      26.772  20.766  -6.026  1.00  0.00     0.004 A
HETATM   10  C8  UNL     1      26.952  19.308  -6.428  1.00  0.00     0.036 A
ENDBRANCH   1   7
TORSDOF 1
ENDMDL