MODEL 5
REMARK VINA RESULT: -5.497851428      3.338      4.006
REMARK  2 active torsions:
REMARK  status: ('A' for Active; 'I' for Inactive)
REMARK    1  A    between atoms: N1_1  and  S1_4
REMARK    2  A    between atoms: S1_4  and  C1_6
ROOT
HETATM    1  C1  UNL     1      24.681  18.329  -7.986  1.00  0.00     0.052 A
HETATM    2  C2  UNL     1      25.145  18.062  -9.259  1.00  0.00     0.023 A
HETATM    3  C3  UNL     1      26.033  18.894  -9.910  1.00  0.00     0.001 A
HETATM    4  C4  UNL     1      26.499  20.042  -9.304  1.00  0.00     0.000 A
HETATM    5  C5  UNL     1      26.043  20.320  -8.033  1.00  0.00     0.001 A
HETATM    6  C6  UNL     1      25.155  19.482  -7.390  1.00  0.00     0.023 A
ENDROOT
BRANCH   1   7
HETATM    7  S1  UNL     1      23.553  17.263  -7.174  1.00  0.00     0.144 S
HETATM    8  O1  UNL     1      22.328  18.106  -6.410  1.00  0.00    -0.230 OA
BRANCH   7   9
HETATM    9  N1  UNL     1      22.895  16.091  -8.267  1.00  0.00    -0.346 NA
ATOM     10  H12 UNL     1      23.101  15.140  -7.961  1.00  0.00     0.166 HD
ATOM     11  H11 UNL     1      23.218  16.266  -9.218  1.00  0.00     0.166 HD
ENDBRANCH   7   9
ENDBRANCH   1   7
TORSDOF 2
ENDMDL