MODEL 2
REMARK VINA RESULT: -4.761255659      1.397      2.003
REMARK  2 active torsions:
REMARK  status: ('A' for Active; 'I' for Inactive)
REMARK    1  A    between atoms: N1_1  and  C1_5
REMARK    2  A    between atoms: N2_8  and  C4_9
ROOT
HETATM    1  C1  UNL     1      26.965  20.698  -7.762  1.00  0.00     0.213 C
HETATM    2  C2  UNL     1      27.552  19.460  -8.458  1.00  0.00     0.065 C
HETATM    3  C3  UNL     1      26.297  18.961  -9.167  1.00  0.00     0.275 C
HETATM    4  N2  UNL     1      25.317  19.016  -8.163  1.00  0.00     0.095 N
HETATM    5  C8  UNL     1      25.625  20.148  -7.319  1.00  0.00     0.305 C
ENDROOT
BRANCH   1   6
HETATM    6  N1  UNL     1      26.732  21.769  -8.704  1.00  0.00    -0.073 N
ATOM      7  H13 UNL     1      26.319  22.584  -8.250  1.00  0.00     0.274 HD
ATOM      8  H12 UNL     1      27.608  22.191  -9.016  1.00  0.00     0.274 HD
ATOM      9  H11 UNL     1      26.167  21.453  -9.492  1.00  0.00     0.274 HD
ENDBRANCH   1   6
BRANCH   4  10
HETATM   10  C4  UNL     1      25.119  17.850  -7.366  1.00  0.00     0.223 C
HETATM   11  C5  UNL     1      24.777  16.571  -8.076  1.00  0.00     0.036 C
HETATM   12  C6  UNL     1      23.404  17.221  -8.309  1.00  0.00     0.004 C
HETATM   13  C7  UNL     1      23.640  17.850  -6.925  1.00  0.00     0.036 C
ENDBRANCH   4  10
TORSDOF 2
ENDMDL