MODEL 5
REMARK VINA RESULT: -4.572654662      2.306      3.111
REMARK  3 active torsions:
REMARK  status: ('A' for Active; 'I' for Inactive)
REMARK    1  A    between atoms: O1_1  and  C1_3
REMARK    2  A    between atoms: C4_6  and  C5_7
REMARK    3  A    between atoms: N1_9  and  C8_11
ROOT
HETATM    1  C1  UNL     1      25.444  19.716  -7.557  1.00  0.00     0.174 A
HETATM    2  C2  UNL     1      24.346  18.752  -7.566  1.00  0.00     0.003 A
HETATM    3  C3  UNL     1      24.519  17.843  -8.514  1.00  0.00    -0.021 A
HETATM    4  C4  UNL     1      25.746  18.056  -9.279  1.00  0.00     0.051 A
HETATM    5  C8  UNL     1      26.380  19.269  -8.622  1.00  0.00     0.263 A
ENDROOT
BRANCH   1   6
HETATM    6  O1  UNL     1      26.114  19.765  -6.322  1.00  0.00    -0.390 OA
ATOM      7  H1  UNL     1      26.847  20.370  -6.325  1.00  0.00     0.210 HD
ENDBRANCH   1   6
BRANCH   5   8
HETATM    8  N1  UNL     1      26.433  20.191  -9.770  1.00  0.00     0.097 N
HETATM    9  C6  UNL     1      27.666  19.790 -10.477  1.00  0.00     0.280 C
HETATM   10  C5  UNL     1      28.378  20.208  -9.241  1.00  0.00     0.052 C
HETATM   11  C7  UNL     1      27.275  21.276  -9.223  1.00  0.00     0.280 C
ENDBRANCH   5   8
TORSDOF 3
ENDMDL