MODEL 2
REMARK VINA RESULT: -4.737353778      2.039      2.740
REMARK  1 active torsions:
REMARK  status: ('A' for Active; 'I' for Inactive)
REMARK    1  A    between atoms: C6_7  and  O2_8
ROOT
HETATM    1  C1  UNL     1      25.198  16.461  -8.864  1.00  0.00     0.012 C
HETATM    2  C2  UNL     1      24.603  17.788  -8.526  1.00  0.00     0.015 C
HETATM    3  C3  UNL     1      25.609  18.934  -8.779  1.00  0.00     0.041 C
HETATM    4  C4  UNL     1      25.141  19.842  -7.698  1.00  0.00     0.154 A
HETATM    5  O1  UNL     1      25.522  20.068  -6.475  1.00  0.00    -0.373 OA
HETATM    6  C5  UNL     1      25.368  18.776  -6.579  1.00  0.00     0.180 A
HETATM    7  C6  UNL     1      24.261  17.900  -7.028  1.00  0.00     0.153 C
ENDROOT
BRANCH   7   8
HETATM    8  O2  UNL     1      23.003  18.472  -6.900  1.00  0.00    -0.393 OA
ATOM      9  H2  UNL     1      22.851  19.046  -7.641  1.00  0.00     0.210 HD
ENDBRANCH   7   8
TORSDOF 1
ENDMDL