MODEL 4
REMARK VINA RESULT: -3.900488857      2.162      2.900
REMARK  1 active torsions:
REMARK  status: ('A' for Active; 'I' for Inactive)
REMARK    1  A    between atoms: N1_2  and  C3_5
ROOT
HETATM    1  C1  UNL     1      25.522  19.010  -9.760  1.00  0.00     0.171 C
HETATM    2  N1  UNL     1      25.017  18.061  -8.793  1.00  0.00    -0.268 N
HETATM    3  C2  UNL     1      25.296  16.693  -8.884  1.00  0.00     0.185 C
HETATM    4  N2  UNL     1      25.544  15.556  -8.969  1.00  0.00    -0.172 NA
ENDROOT
BRANCH   2   5
HETATM    5  C3  UNL     1      24.217  18.551  -7.732  1.00  0.00     0.196 C
HETATM    6  N3  UNL     1      24.450  19.833  -7.134  1.00  0.00    -0.069 NA
HETATM    7  S1  UNL     1      22.991  17.645  -7.159  1.00  0.00    -0.043 SA
ENDBRANCH   2   5
TORSDOF 1
ENDMDL