MODEL 3
REMARK VINA RESULT: -3.811680364      1.969      2.099
REMARK  1 active torsions:
REMARK  status: ('A' for Active; 'I' for Inactive)
REMARK    1  A    between atoms: C2_3  and  N2_4
ROOT
HETATM    1  N1  UNL     1      22.245  16.646  -7.877  1.00  0.00    -0.193 NA
HETATM    2  C1  UNL     1      23.364  16.828  -8.186  1.00  0.00     0.115 C
HETATM    3  C2  UNL     1      24.743  17.050  -8.594  1.00  0.00     0.280 A
HETATM    4  C3  UNL     1      25.473  17.778  -7.520  1.00  0.00     0.045 A
HETATM    5  C4  UNL     1      25.767  18.885  -8.194  1.00  0.00     0.049 A
HETATM    6  S1  UNL     1      24.994  18.413  -9.736  1.00  0.00    -0.084 SA
ENDROOT
BRANCH   3   7
HETATM    7  N2  UNL     1      25.421  15.828  -8.992  1.00  0.00    -0.044 N
ATOM      8  H23 UNL     1      26.231  15.652  -8.397  1.00  0.00     0.277 HD
ATOM      9  H22 UNL     1      24.861  15.008  -8.758  1.00  0.00     0.277 HD
ATOM     10  H21 UNL     1      25.684  15.820  -9.977  1.00  0.00     0.277 HD
ENDBRANCH   3   7
TORSDOF 1
ENDMDL