MODEL 3
REMARK VINA RESULT: -4.211458161      1.907      2.689
REMARK  1 active torsions:
REMARK  status: ('A' for Active; 'I' for Inactive)
REMARK    1  A    between atoms: O1_1  and  C1_3
ROOT
HETATM    1  C1  UNL     1      25.681  18.070  -7.298  1.00  0.00     0.160 C
HETATM    2  C2  UNL     1      24.379  17.350  -7.711  1.00  0.00     0.063 C
HETATM    3  C3  UNL     1      24.421  17.580  -9.166  1.00  0.00    -0.019 C
HETATM    4  C4  UNL     1      24.944  18.796  -9.350  1.00  0.00     0.004 C
HETATM    5  C5  UNL     1      25.248  19.368  -8.010  1.00  0.00     0.173 C
HETATM    6  O2  UNL     1      24.034  19.605  -7.379  1.00  0.00    -0.379 OA
HETATM    7  C6  UNL     1      23.432  18.373  -7.130  1.00  0.00     0.179 C
ENDROOT
BRANCH   1   8
HETATM    8  O1  UNL     1      25.778  18.227  -5.947  1.00  0.00    -0.392 OA
ATOM      9  H1  UNL     1      25.947  17.407  -5.500  1.00  0.00     0.210 HD
ENDBRANCH   1   8
TORSDOF 1
ENDMDL