MODEL 1
REMARK VINA RESULT: -5.766090235      0.000      0.000
REMARK  1 active torsions:
REMARK  status: ('A' for Active; 'I' for Inactive)
REMARK    1  A    between atoms: N2_8  and  O1_9
ROOT
HETATM    1  N1  UNL     1      22.029  17.610  -6.450  1.00  0.00    -0.190 NA
HETATM    2  C1  UNL     1      22.945  18.035  -7.020  1.00  0.00     0.120 C
HETATM    3  C2  UNL     1      24.093  18.551  -7.711  1.00  0.00     0.141 A
HETATM    4  C3  UNL     1      24.973  19.445  -7.140  1.00  0.00     0.043 A
HETATM    5  C4  UNL     1      26.075  19.940  -7.803  1.00  0.00     0.004 A
HETATM    6  C5  UNL     1      26.310  19.526  -9.098  1.00  0.00     0.020 A
HETATM    7  C6  UNL     1      25.425  18.635  -9.652  1.00  0.00     0.124 A
HETATM    8  N2  UNL     1      24.363  18.175  -8.975  1.00  0.00    -0.226 N
ENDROOT
BRANCH   8   9
HETATM    9  O1  UNL     1      23.474  17.278  -9.539  1.00  0.00    -0.282 OA
ATOM     10  H1  UNL     1      23.510  17.201 -10.485  1.00  0.00     0.245 HD
ENDBRANCH   8   9
TORSDOF 1
ENDMDL