MODEL 3
REMARK VINA RESULT: -5.404882217      1.194      1.305
REMARK  1 active torsions:
REMARK  status: ('A' for Active; 'I' for Inactive)
REMARK    1  A    between atoms: C7_8  and  N2_9
ROOT
HETATM    1  C1  UNL     1      26.224  19.496  -9.410  1.00  0.00     0.021 C
HETATM    2  C2  UNL     1      25.885  19.331  -7.932  1.00  0.00     0.004 A
HETATM    3  C3  UNL     1      27.010  19.788  -7.013  1.00  0.00     0.021 C
HETATM    4  C4  UNL     1      24.554  19.725  -7.560  1.00  0.00     0.005 A
HETATM    5  C5  UNL     1      24.167  18.530  -7.323  1.00  0.00     0.051 A
HETATM    6  C6  UNL     1      22.873  17.997  -6.871  1.00  0.00     0.097 C
HETATM    7  N1  UNL     1      21.846  17.546  -6.510  1.00  0.00    -0.192 NA
HETATM    8  C7  UNL     1      25.458  17.958  -7.664  1.00  0.00     0.238 A
ENDROOT
BRANCH   8   9
HETATM    9  N2  UNL     1      25.387  17.059  -8.814  1.00  0.00    -0.069 N
ATOM     10  H23 UNL     1      25.046  17.570  -9.628  1.00  0.00     0.275 HD
ATOM     11  H22 UNL     1      26.331  16.823  -9.123  1.00  0.00     0.275 HD
ATOM     12  H21 UNL     1      24.843  16.205  -8.693  1.00  0.00     0.275 HD
ENDBRANCH   8   9
TORSDOF 1
ENDMDL