MODEL 1
REMARK VINA RESULT: -5.146282590      0.000      0.000
REMARK  2 active torsions:
REMARK  status: ('A' for Active; 'I' for Inactive)
REMARK    1  A    between atoms: C6_7  and  N2_8
REMARK    2  A    between atoms: N2_8  and  N3_10
ROOT
HETATM    1  C1  UNL     1      26.088  18.978  -8.391  1.00  0.00     0.157 C
HETATM    2  N1  UNL     1      24.861  18.244  -8.091  1.00  0.00    -0.347 N
HETATM    3  C2  UNL     1      23.962  18.807  -7.225  1.00  0.00     0.092 A
HETATM    4  C3  UNL     1      22.781  18.207  -6.874  1.00  0.00     0.017 A
HETATM    5  C4  UNL     1      22.443  16.976  -7.395  1.00  0.00     0.005 A
HETATM    6  C5  UNL     1      23.328  16.405  -8.258  1.00  0.00     0.050 A
HETATM    7  C6  UNL     1      24.550  17.052  -8.606  1.00  0.00     0.120 A
ENDROOT
BRANCH   7   8
HETATM    8  N2  UNL     1      25.311  16.446  -9.414  1.00  0.00    -0.292 N
ATOM      9  H2  UNL     1      25.674  17.013 -10.181  1.00  0.00     0.188 HD
BRANCH   8  10
HETATM   10  N3  UNL     1      25.710  15.165  -9.406  1.00  0.00    -0.344 N
ATOM     11  H32 UNL     1      25.903  14.792  -8.476  1.00  0.00     0.176 HD
ATOM     12  H31 UNL     1      25.843  14.526 -10.189  1.00  0.00     0.176 HD
ENDBRANCH   8  10
ENDBRANCH   7   8
TORSDOF 2
ENDMDL