MODEL 2
REMARK VINA RESULT: -4.674610852      1.741      2.107
REMARK  2 active torsions:
REMARK  status: ('A' for Active; 'I' for Inactive)
REMARK    1  A    between atoms: N1_2  and  C3_4
REMARK    2  A    between atoms: C6_7  and  O1_8
ROOT
HETATM    1  C3  UNL     1      23.828  18.728  -7.685  1.00  0.00     0.276 A
HETATM    2  C4  UNL     1      22.800  18.016  -6.931  1.00  0.00     0.010 A
HETATM    3  C5  UNL     1      23.022  16.908  -7.568  1.00  0.00     0.005 A
HETATM    4  C6  UNL     1      24.069  17.496  -8.387  1.00  0.00     0.177 A
ENDROOT
BRANCH   1   5
HETATM    5  N1  UNL     1      24.841  19.304  -6.840  1.00  0.00     0.090 N
HETATM    6  C1  UNL     1      25.351  20.565  -7.209  1.00  0.00     0.310 C
HETATM    7  C2  UNL     1      25.884  18.341  -6.563  1.00  0.00     0.310 C
ENDBRANCH   1   5
BRANCH   4   8
HETATM    8  O1  UNL     1      23.711  17.549  -9.744  1.00  0.00    -0.389 OA
ATOM      9  H1  UNL     1      24.417  17.841 -10.308  1.00  0.00     0.210 HD
ENDBRANCH   4   8
TORSDOF 2
ENDMDL