MODEL 4
REMARK VINA RESULT: -4.621138981      1.596      3.317
REMARK  2 active torsions:
REMARK  status: ('A' for Active; 'I' for Inactive)
REMARK    1  A    between atoms: C4_5  and  N2_6
REMARK    2  A    between atoms: N3_9  and  O1_10
ROOT
HETATM    1  C1  UNL     1      22.513  16.583  -7.814  1.00  0.00     0.156 C
HETATM    2  N1  UNL     1      23.532  17.596  -8.063  1.00  0.00    -0.355 N
HETATM    3  C2  UNL     1      24.345  17.515  -9.132  1.00  0.00     0.095 A
HETATM    4  C3  UNL     1      25.325  18.453  -9.407  1.00  0.00     0.067 A
HETATM    5  C4  UNL     1      25.487  19.522  -8.557  1.00  0.00     0.129 A
HETATM    6  N3  UNL     1      24.668  19.591  -7.492  1.00  0.00    -0.204 N
HETATM    7  C5  UNL     1      23.716  18.652  -7.253  1.00  0.00     0.217 A
ENDROOT
BRANCH   5   8
HETATM    8  N2  UNL     1      26.384  20.425  -8.765  1.00  0.00    -0.384 N
ATOM      9  H22 UNL     1      27.085  20.310  -9.497  1.00  0.00     0.157 HD
ATOM     10  H21 UNL     1      26.424  21.279  -8.211  1.00  0.00     0.157 HD
ENDBRANCH   5   8
BRANCH   6  11
HETATM   11  O1  UNL     1      24.844  20.675  -6.646  1.00  0.00    -0.280 OA
ATOM     12  H1  UNL     1      24.936  20.480  -5.721  1.00  0.00     0.245 HD
ENDBRANCH   6  11
TORSDOF 2
ENDMDL