MODEL 2
REMARK VINA RESULT: -4.412930817      1.743      2.133
REMARK  1 active torsions:
REMARK  status: ('A' for Active; 'I' for Inactive)
REMARK    1  A    between atoms: C2_2  and  C4_5
ROOT
HETATM    1  C1  UNL     1      25.467  18.574  -6.438  1.00  0.00     0.032 C
HETATM    2  C2  UNL     1      24.417  18.634  -7.555  1.00  0.00     0.147 C
HETATM    3  C3  UNL     1      23.164  18.070  -7.060  1.00  0.00     0.070 C
HETATM    4  N1  UNL     1      22.180  17.611  -6.663  1.00  0.00    -0.197 NA
ENDROOT
BRANCH   2   5
HETATM    5  C4  UNL     1      24.910  17.868  -8.707  1.00  0.00     0.107 C
HETATM    6  N2  UNL     1      25.033  16.458  -8.689  1.00  0.00    -0.093 NA
HETATM    7  S1  UNL     1      25.334  18.667 -10.060  1.00  0.00    -0.067 SA
ENDBRANCH   2   5
TORSDOF 1
ENDMDL