MODEL 5
REMARK VINA RESULT: -3.277223182      2.189      2.836
REMARK  3 active torsions:
REMARK  status: ('A' for Active; 'I' for Inactive)
REMARK    1  A    between atoms: N1_2  and  C2_4
REMARK    2  A    between atoms: C2_4  and  N2_6
REMARK    3  A    between atoms: N2_6  and  N3_8
ROOT
HETATM    1  C2  UNL     1      24.222  16.736  -7.395  1.00  0.00     0.185 C
HETATM    2  S1  UNL     1      22.760  16.693  -6.708  1.00  0.00    -0.040 SA
ENDROOT
BRANCH   1   3
HETATM    3  N1  UNL     1      25.270  17.415  -6.759  1.00  0.00    -0.370 N
HETATM    4  C1  UNL     1      26.001  18.514  -7.357  1.00  0.00     0.148 C
ATOM      5  H1  UNL     1      25.534  17.119  -5.819  1.00  0.00     0.161 HD
ENDBRANCH   1   3
BRANCH   1   6
HETATM    6  N2  UNL     1      24.421  16.090  -8.622  1.00  0.00    -0.283 N
ATOM      7  H2  UNL     1      23.816  16.300  -9.416  1.00  0.00     0.188 HD
BRANCH   6   8
HETATM    8  N3  UNL     1      25.459  15.153  -8.752  1.00  0.00    -0.343 N
ATOM      9  H32 UNL     1      25.229  14.181  -8.961  1.00  0.00     0.176 HD
ATOM     10  H31 UNL     1      26.427  15.455  -8.638  1.00  0.00     0.176 HD
ENDBRANCH   6   8
ENDBRANCH   1   6
TORSDOF 3
ENDMDL