MODEL 3
REMARK VINA RESULT: -4.336827505      2.295      2.577
REMARK  2 active torsions:
REMARK  status: ('A' for Active; 'I' for Inactive)
REMARK    1  A    between atoms: C4_4  and  N1_5
REMARK    2  A    between atoms: C5_9  and  O1_10
ROOT
HETATM    1  C1  UNL     1      23.622  17.086  -6.941  1.00  0.00     0.012 C
HETATM    2  C2  UNL     1      24.773  17.451  -6.920  1.00  0.00    -0.108 C
HETATM    3  C3  UNL     1      26.173  17.874  -6.892  1.00  0.00     0.128 A
HETATM    4  C4  UNL     1      26.582  18.802  -7.978  1.00  0.00     0.231 A
HETATM    5  C5  UNL     1      26.432  19.345  -6.616  1.00  0.00     0.167 A
ENDROOT
BRANCH   4   6
HETATM    6  N1  UNL     1      27.926  18.669  -8.470  1.00  0.00    -0.071 N
ATOM      7  H13 UNL     1      28.362  19.589  -8.527  1.00  0.00     0.274 HD
ATOM      8  H12 UNL     1      28.509  18.230  -7.758  1.00  0.00     0.274 HD
ATOM      9  H11 UNL     1      28.043  18.180  -9.357  1.00  0.00     0.274 HD
ENDBRANCH   4   6
BRANCH   5  10
HETATM   10  O1  UNL     1      25.344  20.177  -6.355  1.00  0.00    -0.392 OA
ATOM     11  H1  UNL     1      24.486  19.784  -6.248  1.00  0.00     0.210 HD
ENDBRANCH   5  10
TORSDOF 2
ENDMDL