MODEL 1
REMARK VINA RESULT: -4.817152416      0.000      0.000
REMARK  2 active torsions:
REMARK  status: ('A' for Active; 'I' for Inactive)
REMARK    1  A    between atoms: C3_3  and  N1_4
REMARK    2  A    between atoms: C3_3  and  O1_8
ROOT
HETATM    1  C1  UNL     1      26.744  18.320  -8.240  1.00  0.00     0.018 C
HETATM    2  C2  UNL     1      25.876  17.487  -8.376  1.00  0.00    -0.036 C
HETATM    3  C3  UNL     1      24.826  16.482  -8.563  1.00  0.00     0.351 C
HETATM    4  C4  UNL     1      23.772  16.593  -7.553  1.00  0.00    -0.036 C
HETATM    5  C5  UNL     1      22.901  16.685  -6.706  1.00  0.00     0.018 C
ENDROOT
BRANCH   3   6
HETATM    6  N1  UNL     1      25.408  15.176  -8.448  1.00  0.00    -0.023 N
ATOM      7  H13 UNL     1      24.801  14.522  -7.953  1.00  0.00     0.280 HD
ATOM      8  H12 UNL     1      25.446  14.687  -9.343  1.00  0.00     0.280 HD
ATOM      9  H11 UNL     1      26.326  15.263  -8.012  1.00  0.00     0.280 HD
ENDBRANCH   3   6
BRANCH   3  10
HETATM   10  O1  UNL     1      24.285  16.659  -9.806  1.00  0.00    -0.346 OA
ATOM     11  H1  UNL     1      24.051  15.805 -10.150  1.00  0.00     0.214 HD
ENDBRANCH   3  10
TORSDOF 2
ENDMDL