MODEL 2
REMARK VINA RESULT: -4.588034584      4.019      5.644
REMARK  5 active torsions:
REMARK  status: ('A' for Active; 'I' for Inactive)
REMARK    1  A    between atoms: N1_1  and  C1_5
REMARK    2  A    between atoms: C1_5  and  C2_6
REMARK    3  A    between atoms: C3_7  and  C4_8
REMARK    4  A    between atoms: C5_9  and  C6_10
REMARK    5  A    between atoms: C6_10  and  O1_11
ROOT
HETATM    1  C2  UNL     1      26.775  19.031  -7.155  1.00  0.00    -0.065 C
HETATM    2  C3  UNL     1      25.778  18.351  -7.108  1.00  0.00    -0.013 C
ENDROOT
BRANCH   1   3
HETATM    3  C1  UNL     1      27.994  19.867  -7.227  1.00  0.00     0.324 C
BRANCH   3   4
HETATM    4  N1  UNL     1      28.888  19.400  -8.264  1.00  0.00    -0.069 N
ATOM      5  H13 UNL     1      28.748  19.908  -9.137  1.00  0.00     0.275 HD
ATOM      6  H12 UNL     1      29.853  19.673  -8.077  1.00  0.00     0.275 HD
ATOM      7  H11 UNL     1      28.803  18.392  -8.397  1.00  0.00     0.275 HD
ENDBRANCH   3   4
ENDBRANCH   1   3
BRANCH   2   8
HETATM    8  C4  UNL     1      24.597  17.563  -7.062  1.00  0.00    -0.013 C
HETATM    9  C5  UNL     1      23.582  16.909  -7.027  1.00  0.00    -0.067 C
BRANCH   9  10
HETATM   10  C6  UNL     1      22.329  16.123  -6.999  1.00  0.00     0.258 C
BRANCH  10  11
HETATM   11  O1  UNL     1      22.435  15.080  -7.945  1.00  0.00    -0.389 OA
ATOM     12  H1  UNL     1      23.353  14.960  -8.158  1.00  0.00     0.210 HD
ENDBRANCH  10  11
ENDBRANCH   9  10
ENDBRANCH   2   8
TORSDOF 5
ENDMDL