MODEL 5
REMARK VINA RESULT: -3.608521664      1.456      2.137
REMARK  4 active torsions:
REMARK  status: ('A' for Active; 'I' for Inactive)
REMARK    1  A    between atoms: C2_2  and  O1_4
REMARK    2  A    between atoms: C2_2  and  N1_6
REMARK    3  A    between atoms: N1_6  and  O2_7
REMARK    4  A    between atoms: N1_6  and  O3_9
ROOT
HETATM    1  C1  UNL     1      25.568  15.311  -8.390  1.00  0.00     0.068 C
HETATM    2  C2  UNL     1      24.509  16.374  -8.373  1.00  0.00     0.155 C
HETATM    3  C3  UNL     1      23.282  15.828  -7.685  1.00  0.00     0.068 C
ENDROOT
BRANCH   2   4
HETATM    4  O1  UNL     1      24.199  16.688  -9.691  1.00  0.00    -0.372 OA
ATOM      5  H1  UNL     1      24.770  17.398  -9.963  1.00  0.00     0.212 HD
ENDBRANCH   2   4
BRANCH   2   6
HETATM    6  N1  UNL     1      24.902  17.574  -7.688  1.00  0.00    -0.038 NA
BRANCH   6   7
HETATM    7  O2  UNL     1      26.004  17.297  -6.941  1.00  0.00    -0.286 OA
ATOM      8  H2  UNL     1      25.792  16.583  -6.352  1.00  0.00     0.239 HD
ENDBRANCH   6   7
BRANCH   6   9
HETATM    9  O3  UNL     1      23.972  18.063  -6.861  1.00  0.00    -0.286 OA
ATOM     10  H3  UNL     1      23.348  18.645  -7.279  1.00  0.00     0.239 HD
ENDBRANCH   6   9
ENDBRANCH   2   6
TORSDOF 4
ENDMDL