MODEL 3
REMARK VINA RESULT: -4.090824578      2.021      2.337
REMARK  2 active torsions:
REMARK  status: ('A' for Active; 'I' for Inactive)
REMARK    1  A    between atoms: N1_3  and  N2_4
REMARK    2  A    between atoms: N3_8  and  O1_9
ROOT
HETATM    1  C1  UNL     1      24.693  18.168  -7.121  1.00  0.00     0.060 C
HETATM    2  C2  UNL     1      24.293  16.742  -6.880  1.00  0.00     0.232 A
HETATM    3  N1  UNL     1      24.413  15.847  -8.002  1.00  0.00    -0.267 N
HETATM    4  C3  UNL     1      23.021  15.678  -7.905  1.00  0.00     0.231 A
HETATM    5  N3  UNL     1      22.891  16.468  -6.909  1.00  0.00    -0.230 N
ENDROOT
BRANCH   3   6
HETATM    6  N2  UNL     1      25.486  15.406  -8.776  1.00  0.00    -0.340 N
ATOM      7  H22 UNL     1      26.388  15.740  -9.118  1.00  0.00     0.177 HD
ATOM      8  H21 UNL     1      25.692  14.537  -9.268  1.00  0.00     0.177 HD
ENDBRANCH   3   6
BRANCH   5   9
HETATM    9  O1  UNL     1      21.840  16.906  -6.144  1.00  0.00    -0.285 OA
ATOM     10  H1  UNL     1      20.949  16.595  -6.035  1.00  0.00     0.245 HD
ENDBRANCH   5   9
TORSDOF 2
ENDMDL