MODEL 4
REMARK VINA RESULT: -3.096591560      1.450      1.481
REMARK  1 active torsions:
REMARK  status: ('A' for Active; 'I' for Inactive)
REMARK       I    between atoms: N1_2  and  C3_4
REMARK    1  A    between atoms: N3_6  and  N4_8
ROOT
HETATM    1  C1  UNL     1      26.741  18.498  -6.015  1.00  0.00     0.152 C
HETATM    2  N1  UNL     1      26.128  18.286  -7.305  1.00  0.00    -0.363 N
HETATM    3  C2  UNL     1      26.432  19.053  -8.496  1.00  0.00     0.152 C
HETATM    4  C3  UNL     1      25.159  17.252  -7.413  1.00  0.00     0.204 C
HETATM    5  N2  UNL     1      25.594  15.990  -7.900  1.00  0.00    -0.062 NA
HETATM    6  N3  UNL     1      23.954  17.501  -7.068  1.00  0.00    -0.280 N
ATOM      7  H3  UNL     1      23.696  18.425  -6.724  1.00  0.00     0.189 HD
ENDROOT
BRANCH   6   8
HETATM    8  N4  UNL     1      22.984  16.482  -7.170  1.00  0.00    -0.343 N
ATOM      9  H42 UNL     1      22.897  15.960  -8.042  1.00  0.00     0.176 HD
ATOM     10  H41 UNL     1      22.385  16.283  -6.369  1.00  0.00     0.176 HD
ENDBRANCH   6   8
TORSDOF 1
ENDMDL