MODEL 4
REMARK VINA RESULT: -5.235467471      3.855      5.188
REMARK  3 active torsions:
REMARK  status: ('A' for Active; 'I' for Inactive)
REMARK    1  A    between atoms: C4_4  and  C5_5
REMARK    2  A    between atoms: C5_5  and  O1_6
REMARK    3  A    between atoms: N1_8  and  O2_10
ROOT
HETATM    1  C1  UNL     1      22.413  15.787  -7.451  1.00  0.00     0.027 C
HETATM    2  C2  UNL     1      23.404  16.458  -7.280  1.00  0.00    -0.026 C
HETATM    3  C3  UNL     1      24.556  17.232  -7.057  1.00  0.00    -0.007 C
HETATM    4  C4  UNL     1      25.551  17.879  -6.868  1.00  0.00    -0.007 C
ENDROOT
BRANCH   4   5
HETATM    5  C5  UNL     1      26.747  18.629  -6.648  1.00  0.00     0.218 C
HETATM    6  N1  UNL     1      26.926  19.298  -5.567  1.00  0.00    -0.240 N
ATOM      7  H1  UNL     1      26.191  19.283  -4.860  1.00  0.00     0.197 HD
BRANCH   5   8
HETATM    8  O1  UNL     1      27.754  18.657  -7.597  1.00  0.00    -0.338 OA
ATOM      9  H1  UNL     1      28.641  18.902  -7.362  1.00  0.00     0.220 HD
ENDBRANCH   5   8
BRANCH   6  10
HETATM   10  O2  UNL     1      28.047  20.024  -5.317  1.00  0.00    -0.287 OA
ATOM     11  H2  UNL     1      28.031  20.880  -4.908  1.00  0.00     0.244 HD
ENDBRANCH   6  10
ENDBRANCH   4   5
TORSDOF 3
ENDMDL