MODEL 3
REMARK VINA RESULT: -4.072556111      1.297      1.297
REMARK  1 active torsions:
REMARK  status: ('A' for Active; 'I' for Inactive)
REMARK    1  A    between atoms: O1_2  and  C2_3
ROOT
HETATM    1  C2  UNL     1      25.326  17.722  -7.639  1.00  0.00     0.240 C
HETATM    2  N1  UNL     1      25.208  18.757  -6.663  1.00  0.00    -0.056 NA
HETATM    3  N2  UNL     1      24.416  16.819  -7.760  1.00  0.00    -0.262 N
ATOM      4  H2  UNL     1      24.534  16.095  -8.469  1.00  0.00     0.181 HD
HETATM    5  C3  UNL     1      23.266  16.794  -6.950  1.00  0.00     0.184 C
HETATM    6  N3  UNL     1      22.304  16.766  -6.290  1.00  0.00    -0.172 NA
ENDROOT
BRANCH   1   7
HETATM    7  O1  UNL     1      26.411  17.665  -8.472  1.00  0.00    -0.329 OA
HETATM    8  C1  UNL     1      26.798  18.762  -9.309  1.00  0.00     0.213 C
ENDBRANCH   1   7
TORSDOF 1
ENDMDL