MODEL 2
REMARK VINA RESULT: -3.657421954      2.432      2.612
REMARK  1 active torsions:
REMARK  status: ('A' for Active; 'I' for Inactive)
REMARK    1  A    between atoms: N1_3  and  C3_5
ROOT
HETATM    1  C1  UNL     1      22.354  16.777  -6.384  1.00  0.00     0.037 C
HETATM    2  C2  UNL     1      22.978  16.249  -7.273  1.00  0.00     0.001 C
HETATM    3  N1  UNL     1      23.703  15.651  -8.304  1.00  0.00    -0.295 N
ATOM      4  H1  UNL     1      23.222  15.057  -8.979  1.00  0.00     0.178 HD
ENDROOT
BRANCH   3   5
HETATM    5  C3  UNL     1      25.100  15.860  -8.422  1.00  0.00     0.192 C
HETATM    6  N2  UNL     1      25.915  14.747  -8.763  1.00  0.00    -0.069 NA
HETATM    7  S1  UNL     1      25.788  17.324  -8.179  1.00  0.00    -0.044 SA
ENDBRANCH   3   5
TORSDOF 1
ENDMDL