MODEL 4
REMARK VINA RESULT: -3.088431253      1.069      1.069
REMARK  2 active torsions:
REMARK  status: ('A' for Active; 'I' for Inactive)
REMARK    1  A    between atoms: N1_2  and  C2_4
REMARK    2  A    between atoms: C2_4  and  O1_6
ROOT
HETATM    1  C2  UNL     1      24.908  18.994  -7.959  1.00  0.00     0.209 C
HETATM    2  S1  UNL     1      26.006  19.064  -9.144  1.00  0.00    -0.033 SA
ENDROOT
BRANCH   1   3
HETATM    3  N1  UNL     1      24.043  17.882  -7.765  1.00  0.00    -0.366 N
HETATM    4  C1  UNL     1      22.893  18.058  -6.867  1.00  0.00     0.149 C
ATOM      5  H1  UNL     1      24.216  16.992  -8.233  1.00  0.00     0.161 HD
ENDBRANCH   1   3
BRANCH   1   6
HETATM    6  O1  UNL     1      24.795  20.066  -7.083  1.00  0.00    -0.332 OA
HETATM    7  C3  UNL     1      25.802  21.041  -7.091  1.00  0.00     0.212 C
ENDBRANCH   1   6
TORSDOF 2
ENDMDL