MODEL 1
REMARK VINA RESULT: -4.588223400      0.000      0.000
REMARK  1 active torsions:
REMARK  status: ('A' for Active; 'I' for Inactive)
REMARK    1  A    between atoms: C5_6  and  O2_7
ROOT
HETATM    1  C1  UNL     1      26.990  20.255  -7.089  1.00  0.00     0.071 C
HETATM    2  C2  UNL     1      25.978  19.202  -6.635  1.00  0.00     0.259 C
HETATM    3  O1  UNL     1      24.725  19.744  -6.828  1.00  0.00    -0.352 OA
HETATM    4  C3  UNL     1      24.016  18.917  -7.666  1.00  0.00     0.175 C
HETATM    5  C4  UNL     1      23.068  18.098  -6.825  1.00  0.00     0.044 C
HETATM    6  C5  UNL     1      25.074  18.087  -8.335  1.00  0.00     0.288 C
HETATM    7  O3  UNL     1      26.071  18.045  -7.381  1.00  0.00    -0.330 OA
ENDROOT
BRANCH   6   8
HETATM    8  O2  UNL     1      24.636  16.849  -8.750  1.00  0.00    -0.369 OA
ATOM      9  H2  UNL     1      25.329  16.206  -8.848  1.00  0.00     0.212 HD
ENDBRANCH   6   8
TORSDOF 1
ENDMDL