MODEL 1
REMARK VINA RESULT: -5.602316643      0.000      0.000
REMARK  2 active torsions:
REMARK  status: ('A' for Active; 'I' for Inactive)
REMARK    1  A    between atoms: N1_1  and  C1_4
REMARK    2  A    between atoms: C2_5  and  C3_6
ROOT
HETATM    1  C3  UNL     1      24.707  18.462  -8.197  1.00  0.00     0.102 A
HETATM    2  C4  UNL     1      23.983  18.861  -7.114  1.00  0.00     0.042 A
HETATM    3  C5  UNL     1      22.856  18.169  -6.754  1.00  0.00     0.021 A
HETATM    4  C6  UNL     1      22.451  17.059  -7.491  1.00  0.00     0.107 A
HETATM    5  N2  UNL     1      23.202  16.724  -8.535  1.00  0.00    -0.311 N
ATOM      6  H2  UNL     1      22.924  15.915  -9.090  1.00  0.00     0.186 HD
HETATM    7  N3  UNL     1      24.302  17.389  -8.899  1.00  0.00    -0.293 N
ATOM      8  H3  UNL     1      24.837  17.081  -9.712  1.00  0.00     0.187 HD
ENDROOT
BRANCH   1   9
HETATM    9  C2  UNL     1      25.911  19.157  -8.627  1.00  0.00    -0.025 C
HETATM   10  C1  UNL     1      26.920  19.722  -8.971  1.00  0.00     0.010 C
BRANCH  10  11
HETATM   11  N1  UNL     1      28.101  20.375  -9.349  1.00  0.00    -0.359 N
ATOM     12  H12 UNL     1      27.722  19.835  -8.571  1.00  0.00     0.166 HD
ATOM     13  H11 UNL     1      28.954  20.854  -9.639  1.00  0.00     0.166 HD
ENDBRANCH  10  11
ENDBRANCH   1   9
TORSDOF 2
ENDMDL