MODEL 2
REMARK VINA RESULT: -5.321660103      0.966      1.089
REMARK  2 active torsions:
REMARK  status: ('A' for Active; 'I' for Inactive)
REMARK    1  A    between atoms: O1_1  and  N1_3
REMARK    2  A    between atoms: N1_3  and  C1_5
ROOT
HETATM    1  C1  UNL     1      24.050  17.960  -7.771  1.00  0.00     0.124 C
HETATM    2  C2  UNL     1      24.673  18.783  -6.859  1.00  0.00     0.050 C
HETATM    3  C3  UNL     1      25.614  19.792  -7.094  1.00  0.00     0.004 C
HETATM    4  C4  UNL     1      26.188  20.167  -8.299  1.00  0.00     0.001 C
HETATM    5  C5  UNL     1      26.128  19.447  -9.481  1.00  0.00     0.017 C
HETATM    6  C6  UNL     1      25.492  18.242  -9.705  1.00  0.00     0.089 C
HETATM    7  N2  UNL     1      24.563  17.591  -8.976  1.00  0.00    -0.351 N
ATOM      8  H2  UNL     1      24.203  16.723  -9.373  1.00  0.00     0.166 HD
ENDROOT
BRANCH   1   9
HETATM    9  N1  UNL     1      22.882  17.504  -7.448  1.00  0.00    -0.253 N
ATOM     10  H1  UNL     1      22.384  17.881  -6.642  1.00  0.00     0.196 HD
BRANCH   9  11
HETATM   11  O1  UNL     1      22.324  16.505  -8.208  1.00  0.00    -0.288 OA
ATOM     12  H1  UNL     1      22.243  16.631  -9.146  1.00  0.00     0.244 HD
ENDBRANCH   9  11
ENDBRANCH   1   9
TORSDOF 2
ENDMDL