MODEL 1
REMARK VINA RESULT: -3.645671785      0.000      0.000
REMARK  1 active torsions:
REMARK  status: ('A' for Active; 'I' for Inactive)
REMARK    1  A    between atoms: S1_3  and  C2_4
ROOT
HETATM    1  N1  UNL     1      22.282  18.044  -6.447  1.00  0.00    -0.184 NA
HETATM    2  C1  UNL     1      23.246  18.101  -7.083  1.00  0.00     0.140 C
HETATM    3  S1  UNL     1      24.708  18.158  -8.049  1.00  0.00     0.016 SA
ENDROOT
BRANCH   3   4
HETATM    4  C2  UNL     1      25.579  19.688  -7.851  1.00  0.00     0.163 C
HETATM    5  N2  UNL     1      25.271  20.601  -6.815  1.00  0.00    -0.081 NA
HETATM    6  S2  UNL     1      26.768  20.063  -8.888  1.00  0.00    -0.055 SA
ENDBRANCH   3   4
TORSDOF 1
ENDMDL