MODEL 4
REMARK VINA RESULT: -4.577631783      1.749      2.869
REMARK  1 active torsions:
REMARK  status: ('A' for Active; 'I' for Inactive)
REMARK    1  A    between atoms: C5_5  and  O1_6
ROOT
HETATM    1  C1  UNL     1      26.772  20.275  -6.197  1.00  0.00     0.047 C
HETATM    2  C2  UNL     1      25.716  19.784  -7.133  1.00  0.00     0.179 C
HETATM    3  C3  UNL     1      26.367  19.185  -8.326  1.00  0.00     0.008 C
HETATM    4  C4  UNL     1      25.658  18.315  -9.029  1.00  0.00     0.034 C
HETATM    5  C5  UNL     1      24.278  17.997  -8.590  1.00  0.00     0.317 C
HETATM    6  O2  UNL     1      23.916  18.595  -7.411  1.00  0.00    -0.203 OA
HETATM    7  O3  UNL     1      24.896  18.809  -6.580  1.00  0.00    -0.229 OA
ENDROOT
BRANCH   5   8
HETATM    8  O1  UNL     1      24.176  16.597  -8.549  1.00  0.00    -0.365 OA
ATOM      9  H1  UNL     1      23.635  16.382  -7.798  1.00  0.00     0.213 HD
ENDBRANCH   5   8
TORSDOF 1
ENDMDL