MODEL 4
REMARK VINA RESULT: -3.930978518      1.151      3.267
REMARK  1 active torsions:
REMARK  status: ('A' for Active; 'I' for Inactive)
REMARK    1  A    between atoms: C4_5  and  N2_6
ROOT
HETATM    1  C1  UNL     1      23.123  17.086  -7.906  1.00  0.00     0.156 C
HETATM    2  N1  UNL     1      24.169  18.066  -8.125  1.00  0.00    -0.358 N
HETATM    3  C2  UNL     1      24.474  19.088  -7.168  1.00  0.00     0.091 A
HETATM    4  C3  UNL     1      25.420  19.977  -7.362  1.00  0.00     0.044 A
HETATM    5  C4  UNL     1      26.231  19.975  -8.588  1.00  0.00     0.307 A
HETATM    6  N3  UNL     1      25.880  18.949  -9.481  1.00  0.00    -0.356 N
ATOM      7  H3  UNL     1      26.406  18.892 -10.354  1.00  0.00     0.162 HD
HETATM    8  C5  UNL     1      24.974  18.094  -9.300  1.00  0.00     0.179 A
ENDROOT
BRANCH   5   9
HETATM    9  N2  UNL     1      27.661  20.001  -8.278  1.00  0.00    -0.055 N
ATOM     10  H23 UNL     1      27.828  19.940  -7.273  1.00  0.00     0.277 HD
ATOM     11  H22 UNL     1      28.124  19.139  -8.566  1.00  0.00     0.277 HD
ATOM     12  H21 UNL     1      28.112  20.822  -8.682  1.00  0.00     0.277 HD
ENDBRANCH   5   9
TORSDOF 1
ENDMDL