MODEL 1
REMARK VINA RESULT: -4.412053423      0.000      0.000
REMARK  2 active torsions:
REMARK  status: ('A' for Active; 'I' for Inactive)
REMARK    1  A    between atoms: C2_2  and  O1_3
REMARK    2  A    between atoms: O1_3  and  C3_4
ROOT
HETATM    1  C3  UNL     1      25.271  17.737  -8.463  1.00  0.00     0.240 C
HETATM    2  N1  UNL     1      25.971  16.556  -8.987  1.00  0.00    -0.056 NA
HETATM    3  N2  UNL     1      25.910  18.641  -7.907  1.00  0.00    -0.262 N
ATOM      4  H2  UNL     1      26.912  18.450  -7.877  1.00  0.00     0.181 HD
HETATM    5  C4  UNL     1      25.594  19.816  -7.333  1.00  0.00     0.184 C
HETATM    6  N3  UNL     1      25.354  20.828  -6.824  1.00  0.00    -0.172 NA
ENDROOT
BRANCH   1   7
HETATM    7  O1  UNL     1      23.924  17.781  -8.615  1.00  0.00    -0.324 OA
BRANCH   7   8
HETATM    8  C2  UNL     1      22.943  17.118  -7.879  1.00  0.00     0.174 C
HETATM    9  C1  UNL     1      22.564  18.010  -6.696  1.00  0.00     0.034 C
ENDBRANCH   7   8
ENDBRANCH   1   7
TORSDOF 2
ENDMDL