MODEL 5
REMARK VINA RESULT: -4.676439388      1.493      2.913
REMARK  1 active torsions:
REMARK  status: ('A' for Active; 'I' for Inactive)
REMARK    1  A    between atoms: C3_3  and  O1_4
ROOT
HETATM    1  C1  UNL     1      26.559  19.732 -10.012  1.00  0.00     0.018 C
HETATM    2  C2  UNL     1      25.923  18.865  -9.489  1.00  0.00    -0.044 C
HETATM    3  C3  UNL     1      25.174  17.807  -8.877  1.00  0.00     0.288 C
HETATM    4  O2  UNL     1      23.812  17.780  -9.119  1.00  0.00    -0.183 OA
HETATM    5  O3  UNL     1      23.680  17.144  -7.954  1.00  0.00    -0.225 OA
HETATM    6  C4  UNL     1      24.707  17.992  -7.480  1.00  0.00     0.234 C
HETATM    7  C5  UNL     1      24.125  19.313  -7.105  1.00  0.00     0.049 C
ENDROOT
BRANCH   3   8
HETATM    8  O1  UNL     1      25.736  16.541  -9.048  1.00  0.00    -0.352 OA
ATOM      9  H1  UNL     1      26.054  16.376  -9.928  1.00  0.00     0.214 HD
ENDBRANCH   3   8
TORSDOF 1
ENDMDL