MODEL 4
REMARK VINA RESULT: -4.836158000      1.599      2.228
REMARK  0 active torsions:
REMARK  status: ('A' for Active; 'I' for Inactive)
ROOT
HETATM    1  N1  UNL     1      22.624  18.012  -6.465  1.00  0.00    -0.172 NA
HETATM    2  C1  UNL     1      23.441  18.205  -7.267  1.00  0.00     0.183 C
HETATM    3  N2  UNL     1      24.443  18.438  -8.217  1.00  0.00    -0.279 N
ATOM      4  H2  UNL     1      24.318  18.145  -9.186  1.00  0.00     0.179 HD
HETATM    5  C2  UNL     1      25.542  19.038  -7.842  1.00  0.00     0.117 A
HETATM    6  C3  UNL     1      26.542  19.279  -8.760  1.00  0.00     0.074 A
HETATM    7  C4  UNL     1      27.683  19.920  -8.291  1.00  0.00     0.147 A
HETATM    8  O1  UNL     1      27.798  20.278  -7.029  1.00  0.00    -0.318 OA
HETATM    9  C5  UNL     1      26.852  20.052  -6.151  1.00  0.00     0.234 A
HETATM   10  N3  UNL     1      25.734  19.434  -6.570  1.00  0.00    -0.333 N
ATOM     11  H3  UNL     1      24.995  19.255  -5.891  1.00  0.00     0.168 HD
ENDROOT
TORSDOF 0
ENDMDL