MODEL 3
REMARK VINA RESULT: -4.685258763      2.660      3.217
REMARK  2 active torsions:
REMARK  status: ('A' for Active; 'I' for Inactive)
REMARK    1  A    between atoms: N1_1  and  C1_5
REMARK    2  A    between atoms: C4_8  and  O1_9
ROOT
HETATM    1  C1  UNL     1      24.854  17.765  -9.046  1.00  0.00     0.184 C
HETATM    2  C2  UNL     1      24.124  18.052  -7.751  1.00  0.00     0.040 C
HETATM    3  C3  UNL     1      25.089  18.847  -6.914  1.00  0.00     0.023 A
HETATM    4  C4  UNL     1      25.175  20.296  -7.165  1.00  0.00     0.127 A
HETATM    5  C5  UNL     1      26.168  19.357  -7.814  1.00  0.00     0.023 A
HETATM    6  C6  UNL     1      25.875  18.851  -9.208  1.00  0.00     0.040 C
ENDROOT
BRANCH   1   7
HETATM    7  N1  UNL     1      25.398  16.440  -9.107  1.00  0.00    -0.075 N
ATOM      8  H13 UNL     1      25.170  15.915  -8.262  1.00  0.00     0.274 HD
ATOM      9  H12 UNL     1      24.899  15.875  -9.796  1.00  0.00     0.274 HD
ATOM     10  H11 UNL     1      26.402  16.425  -9.284  1.00  0.00     0.274 HD
ENDBRANCH   1   7
BRANCH   4  11
HETATM   11  O1  UNL     1      25.687  21.183  -6.232  1.00  0.00    -0.395 OA
ATOM     12  H1  UNL     1      26.562  21.097  -5.874  1.00  0.00     0.210 HD
ENDBRANCH   4  11
TORSDOF 2
ENDMDL