MODEL 1
REMARK VINA RESULT: -5.210117652      0.000      0.000
REMARK  2 active torsions:
REMARK  status: ('A' for Active; 'I' for Inactive)
REMARK    1  A    between atoms: O1_1  and  C1_3
REMARK    2  A    between atoms: C6_8  and  O2_9
ROOT
HETATM    1  C1  UNL     1      23.943  18.554  -7.489  1.00  0.00     0.169 C
HETATM    2  C2  UNL     1      25.155  19.086  -6.809  1.00  0.00     0.003 C
HETATM    3  C3  UNL     1      26.281  19.152  -7.508  1.00  0.00    -0.028 C
HETATM    4  C4  UNL     1      26.306  18.698  -8.945  1.00  0.00     0.029 C
HETATM    5  C5  UNL     1      25.630  17.322  -8.892  1.00  0.00     0.038 C
HETATM    6  C6  UNL     1      24.208  17.406  -8.404  1.00  0.00     0.151 C
ENDROOT
BRANCH   1   7
HETATM    7  O1  UNL     1      22.977  18.162  -6.533  1.00  0.00    -0.389 OA
ATOM      8  H1  UNL     1      22.215  18.727  -6.584  1.00  0.00     0.210 HD
ENDBRANCH   1   7
BRANCH   6   9
HETATM    9  O2  UNL     1      23.371  17.381  -9.513  1.00  0.00    -0.393 OA
ATOM     10  H2  UNL     1      23.264  18.232  -9.922  1.00  0.00     0.210 HD
ENDBRANCH   6   9
TORSDOF 2
ENDMDL