MODEL 4
REMARK VINA RESULT: -4.140175972      1.492      3.072
REMARK  2 active torsions:
REMARK  status: ('A' for Active; 'I' for Inactive)
REMARK    1  A    between atoms: C4_4  and  N1_5
REMARK    2  A    between atoms: N2_10  and  N3_11
ROOT
HETATM    1  C1  UNL     1      25.627  16.831  -8.868  1.00  0.00     0.028 C
HETATM    2  C2  UNL     1      24.993  18.221  -8.892  1.00  0.00     0.077 C
HETATM    3  C3  UNL     1      26.004  19.184  -9.521  1.00  0.00     0.055 C
HETATM    4  C4  UNL     1      26.642  19.787  -8.275  1.00  0.00     0.199 C
HETATM    5  C5  UNL     1      25.392  19.960  -7.399  1.00  0.00     0.146 C
HETATM    6  N2  UNL     1      24.829  18.637  -7.536  1.00  0.00    -0.232 NA
ENDROOT
BRANCH   4   7
HETATM    7  N1  UNL     1      27.308  21.019  -8.524  1.00  0.00    -0.074 N
ATOM      8  H13 UNL     1      26.637  21.760  -8.726  1.00  0.00     0.274 HD
ATOM      9  H12 UNL     1      27.716  21.389  -7.666  1.00  0.00     0.274 HD
ATOM     10  H11 UNL     1      28.011  20.956  -9.261  1.00  0.00     0.274 HD
ENDBRANCH   4   7
BRANCH   6  11
HETATM   11  N3  UNL     1      23.576  18.490  -7.013  1.00  0.00    -0.363 NA
ATOM     12  H32 UNL     1      23.550  18.291  -6.013  1.00  0.00     0.171 HD
ATOM     13  H31 UNL     1      22.921  19.248  -7.204  1.00  0.00     0.171 HD
ENDBRANCH   6  11
TORSDOF 2
ENDMDL