MODEL 1
REMARK VINA RESULT: -3.791297962      0.000      0.000
REMARK  2 active torsions:
REMARK  status: ('A' for Active; 'I' for Inactive)
REMARK    1  A    between atoms: N1_2  and  C2_4
REMARK    2  A    between atoms: C2_4  and  N2_6
ROOT
HETATM    1  N2  UNL     1      24.156  16.957  -8.676  1.00  0.00    -0.270 N
ATOM      2  H2  UNL     1      24.535  16.246  -9.300  1.00  0.00     0.180 HD
HETATM    3  C3  UNL     1      22.878  16.774  -8.136  1.00  0.00     0.184 C
HETATM    4  N3  UNL     1      21.818  16.626  -7.675  1.00  0.00    -0.172 NA
ENDROOT
BRANCH   1   5
HETATM    5  C2  UNL     1      24.943  18.105  -8.380  1.00  0.00     0.180 C
HETATM    6  S1  UNL     1      25.838  18.773  -9.570  1.00  0.00    -0.040 SA
BRANCH   5   7
HETATM    7  N1  UNL     1      24.937  18.647  -7.067  1.00  0.00    -0.371 N
HETATM    8  C1  UNL     1      26.176  19.175  -6.532  1.00  0.00     0.148 C
ATOM      9  H1  UNL     1      24.081  18.664  -6.513  1.00  0.00     0.161 HD
ENDBRANCH   5   7
ENDBRANCH   1   5
TORSDOF 2
ENDMDL