MODEL 2
REMARK VINA RESULT: -4.151959294      2.334      3.713
REMARK  1 active torsions:
REMARK  status: ('A' for Active; 'I' for Inactive)
REMARK    1  A    between atoms: O1_2  and  C2_3
REMARK       I    between atoms: N1_5  and  C4_7
ROOT
HETATM    1  C2  UNL     1      25.334  19.603  -7.159  1.00  0.00     0.115 C
HETATM    2  C3  UNL     1      26.213  18.656  -6.447  1.00  0.00     0.097 C
HETATM    3  N1  UNL     1      24.184  19.307  -7.606  1.00  0.00    -0.315 N
ATOM      4  H1  UNL     1      23.667  20.046  -8.082  1.00  0.00     0.170 HD
HETATM    5  C4  UNL     1      23.558  18.050  -7.503  1.00  0.00     0.187 C
HETATM    6  N2  UNL     1      23.895  17.056  -8.236  1.00  0.00    -0.373 N
ATOM      7  H21 UNL     1      23.441  16.146  -8.162  1.00  0.00     0.158 HD
ATOM      8  H22 UNL     1      24.641  17.167  -8.922  1.00  0.00     0.158 HD
HETATM    9  N3  UNL     1      22.524  17.896  -6.552  1.00  0.00    -0.064 NA
ENDROOT
BRANCH   1  10
HETATM   10  O1  UNL     1      25.791  20.901  -7.354  1.00  0.00    -0.344 OA
HETATM   11  C1  UNL     1      26.151  21.667  -6.195  1.00  0.00     0.211 C
ENDBRANCH   1  10
TORSDOF 1
ENDMDL