MODEL 2
REMARK VINA RESULT: -4.901217705      1.208      1.208
REMARK  2 active torsions:
REMARK  status: ('A' for Active; 'I' for Inactive)
REMARK    1  A    between atoms: C1_4  and  O1_5
REMARK    2  A    between atoms: C1_4  and  N2_7
ROOT
HETATM    1  N1  UNL     1      22.745  16.482  -8.266  1.00  0.00    -0.365 N
ATOM      2  H11 UNL     1      23.278  16.099  -9.048  1.00  0.00     0.159 HD
ATOM      3  H12 UNL     1      21.858  16.032  -8.040  1.00  0.00     0.159 HD
HETATM    4  C1  UNL     1      23.110  17.480  -7.560  1.00  0.00     0.212 C
ENDROOT
BRANCH   4   5
HETATM    5  O1  UNL     1      22.384  18.001  -6.497  1.00  0.00    -0.333 OA
ATOM      6  H1  UNL     1      22.244  18.927  -6.342  1.00  0.00     0.220 HD
ENDBRANCH   4   5
BRANCH   4   7
HETATM    7  N2  UNL     1      24.347  18.109  -7.876  1.00  0.00    -0.348 N
HETATM    8  C2  UNL     1      25.320  17.562  -8.785  1.00  0.00     0.126 C
HETATM    9  C3  UNL     1      26.054  18.775  -9.307  1.00  0.00     0.021 C
HETATM   10  C4  UNL     1      25.911  19.819  -8.227  1.00  0.00     0.021 C
HETATM   11  C5  UNL     1      24.799  19.373  -7.333  1.00  0.00     0.126 C
ENDBRANCH   4   7
TORSDOF 2
ENDMDL