MODEL 5
REMARK VINA RESULT: -5.032617528      1.452      2.321
REMARK  2 active torsions:
REMARK  status: ('A' for Active; 'I' for Inactive)
REMARK    1  A    between atoms: O1_1  and  C1_3
REMARK    2  A    between atoms: C6_8  and  O2_9
ROOT
HETATM    1  C1  UNL     1      23.554  17.556  -8.550  1.00  0.00     0.169 A
HETATM    2  C2  UNL     1      23.829  18.312  -7.480  1.00  0.00     0.003 A
HETATM    3  C3  UNL     1      24.453  18.721  -6.982  1.00  0.00    -0.028 A
HETATM    4  C4  UNL     1      25.769  19.011  -6.775  1.00  0.00     0.029 A
HETATM    5  C5  UNL     1      26.171  18.107  -8.109  1.00  0.00     0.038 A
HETATM    6  C6  UNL     1      25.182  17.496  -8.978  1.00  0.00     0.151 A
ENDROOT
BRANCH   1   7
HETATM    7  O1  UNL     1      23.209  16.264  -8.318  1.00  0.00    -0.389 OA
ATOM      8  H1  UNL     1      23.115  15.701  -9.077  1.00  0.00     0.210 HD
ENDBRANCH   1   7
BRANCH   6   9
HETATM    9  O2  UNL     1      25.401  16.136  -9.103  1.00  0.00    -0.393 OA
ATOM     10  H2  UNL     1      26.164  16.107  -9.668  1.00  0.00     0.210 HD
ENDBRANCH   6   9
TORSDOF 2
ENDMDL