MODEL 4
REMARK VINA RESULT: -4.677222892      3.367      5.581
REMARK  1 active torsions:
REMARK  status: ('A' for Active; 'I' for Inactive)
REMARK    1  A    between atoms: C3_3  and  N1_4
REMARK       I    between atoms: C4_6  and  N3_8
ROOT
HETATM    1  C1  UNL     1      28.183  20.530 -10.486  1.00  0.00     0.113 C
HETATM    2  C2  UNL     1      26.956  19.846 -10.054  1.00  0.00    -0.088 C
HETATM    3  C3  UNL     1      25.940  19.304  -9.693  1.00  0.00     0.012 C
ENDROOT
BRANCH   3   4
HETATM    4  N1  UNL     1      24.754  18.697  -9.275  1.00  0.00    -0.289 N
HETATM    5  C4  UNL     1      24.767  17.473  -8.881  1.00  0.00     0.209 C
HETATM    6  N2  UNL     1      26.006  16.778  -8.887  1.00  0.00    -0.062 NA
HETATM    7  N3  UNL     1      23.562  16.826  -8.446  1.00  0.00    -0.267 N
HETATM    8  C5  UNL     1      22.866  17.423  -7.391  1.00  0.00     0.184 C
ATOM      9  H3  UNL     1      23.228  15.969  -8.888  1.00  0.00     0.180 HD
HETATM   10  N4  UNL     1      22.309  17.917  -6.512  1.00  0.00    -0.172 NA
ATOM     11  H1  UNL     1      23.880  19.223  -9.282  1.00  0.00     0.179 HD
ENDBRANCH   3   4
TORSDOF 1
ENDMDL