MODEL 5
REMARK VINA RESULT: -3.999729670      3.564      4.677
REMARK  4 active torsions:
REMARK  status: ('A' for Active; 'I' for Inactive)
REMARK    1  A    between atoms: C2_2  and  O1_4
REMARK    2  A    between atoms: C2_2  and  C4_6
REMARK    3  A    between atoms: C5_7  and  C6_8
REMARK    4  A    between atoms: C6_8  and  N1_9
ROOT
HETATM    1  C4  UNL     1      25.758  18.993  -9.645  1.00  0.00    -0.067 C
HETATM    2  C5  UNL     1      26.338  19.858 -10.241  1.00  0.00    -0.076 C
ENDROOT
BRANCH   1   3
HETATM    3  C2  UNL     1      25.026  17.938  -8.927  1.00  0.00     0.114 C
HETATM    4  C1  UNL     1      24.739  18.400  -7.493  1.00  0.00     0.060 C
HETATM    5  C3  UNL     1      25.827  16.670  -8.827  1.00  0.00     0.060 C
BRANCH   3   6
HETATM    6  O1  UNL     1      23.825  17.750  -9.619  1.00  0.00    -0.378 OA
ATOM      7  H1  UNL     1      23.096  17.746  -9.010  1.00  0.00     0.211 HD
ENDBRANCH   3   6
ENDBRANCH   1   3
BRANCH   2   8
HETATM    8  C6  UNL     1      27.024  20.919 -10.981  1.00  0.00     0.323 C
BRANCH   8   9
HETATM    9  N1  UNL     1      26.086  21.540 -11.858  1.00  0.00    -0.069 N
ATOM     10  H13 UNL     1      26.262  21.320 -12.838  1.00  0.00     0.275 HD
ATOM     11  H12 UNL     1      25.155  21.130 -11.787  1.00  0.00     0.275 HD
ATOM     12  H11 UNL     1      26.087  22.543 -11.676  1.00  0.00     0.275 HD
ENDBRANCH   8   9
ENDBRANCH   2   8
TORSDOF 4
ENDMDL