MODEL 2
REMARK VINA RESULT: -7.662162457      0.196      2.203
REMARK  6 active torsions:
REMARK  status: ('A' for Active; 'I' for Inactive)
REMARK    1  A    between atoms: O1_2  and  C2_3
REMARK    2  A    between atoms: C4_5  and  C5_6
REMARK    3  A    between atoms: C5_6  and  C6_8
REMARK    4  A    between atoms: N1_12  and  O3_13
REMARK    5  A    between atoms: C23_30  and  O6_31
REMARK    6  A    between atoms: C25_33  and  O7_34
ROOT
HETATM    1  C6  UNL     1      23.882 -34.661  -5.956  1.00  0.00     0.116 A
HETATM    2  C7  UNL     1      23.790 -35.583  -4.946  1.00  0.00     0.075 A
HETATM    3  C8  UNL     1      22.581 -35.351  -4.293  1.00  0.00     0.100 A
HETATM    4  C9  UNL     1      21.978 -34.299  -4.925  1.00  0.00     0.075 A
HETATM    5  N1  UNL     1      22.758 -33.877  -5.931  1.00  0.00    -0.222 N
HETATM    6  C10 UNL     1      20.659 -33.831  -4.432  1.00  0.00     0.072 C
HETATM    7  C11 UNL     1      19.904 -34.875  -3.660  1.00  0.00     0.054 C
HETATM    8  C12 UNL     1      18.623 -34.323  -3.208  1.00  0.00     0.019 C
HETATM    9  C13 UNL     1      18.458 -33.787  -1.839  1.00  0.00    -0.041 C
HETATM   10  C14 UNL     1      16.930 -33.553  -1.716  1.00  0.00     0.015 C
HETATM   11  C15 UNL     1      19.092 -32.490  -1.520  1.00  0.00     0.009 C
HETATM   12  C16 UNL     1      20.399 -32.518  -0.793  1.00  0.00     0.003 C
HETATM   13  C17 UNL     1      20.513 -33.578   0.271  1.00  0.00     0.032 C
HETATM   14  C18 UNL     1      20.189 -34.893  -0.483  1.00  0.00     0.126 C
HETATM   15  C19 UNL     1      18.721 -34.803  -0.747  1.00  0.00     0.041 C
HETATM   16  O4  UNL     1      20.995 -34.829  -1.575  1.00  0.00    -0.349 OA
HETATM   17  C20 UNL     1      20.722 -35.610  -2.656  1.00  0.00     0.171 C
HETATM   18  C21 UNL     1      20.091 -36.944  -2.310  1.00  0.00     0.080 C
HETATM   19  O5  UNL     1      21.963 -35.936  -3.239  1.00  0.00    -0.312 OA
ENDROOT
BRANCH   1  20
HETATM   20  C5  UNL     1      24.965 -34.573  -6.912  1.00  0.00     0.211 C
HETATM   21  O2  UNL     1      25.814 -33.626  -6.867  1.00  0.00    -0.285 OA
BRANCH  20  22
HETATM   22  C4  UNL     1      25.143 -35.549  -7.966  1.00  0.00     0.022 A
HETATM   23  C3  UNL     1      23.987 -36.070  -8.524  1.00  0.00     0.055 A
HETATM   24  C2  UNL     1      24.084 -36.971  -9.547  1.00  0.00     0.105 A
HETATM   25  C25 UNL     1      25.289 -37.386 -10.052  1.00  0.00     0.135 A
HETATM   26  C23 UNL     1      26.427 -36.861  -9.493  1.00  0.00     0.105 A
HETATM   27  C22 UNL     1      26.360 -35.952  -8.462  1.00  0.00     0.055 A
BRANCH  24  28
HETATM   28  O1  UNL     1      22.908 -37.499 -10.110  1.00  0.00    -0.353 OA
HETATM   29  C1  UNL     1      21.632 -36.975  -9.823  1.00  0.00     0.210 C
ENDBRANCH  24  28
BRANCH  25  30
HETATM   30  O7  UNL     1      25.391 -38.300 -11.092  1.00  0.00    -0.351 OA
HETATM   31  C26 UNL     1      25.571 -37.910 -12.443  1.00  0.00     0.210 C
ENDBRANCH  25  30
BRANCH  26  32
HETATM   32  O6  UNL     1      27.683 -37.253  -9.976  1.00  0.00    -0.353 OA
HETATM   33  C24 UNL     1      28.534 -36.374 -10.660  1.00  0.00     0.210 C
ENDBRANCH  26  32
ENDBRANCH  20  22
ENDBRANCH   1  20
BRANCH   5  34
HETATM   34  O3  UNL     1      22.567 -32.862  -6.828  1.00  0.00    -0.282 OA
ATOM     35  H3  UNL     1      23.267 -32.263  -7.061  1.00  0.00     0.245 HD
ENDBRANCH   5  34
TORSDOF 6
ENDMDL