MODEL 2
REMARK VINA RESULT: -7.624346760      3.015      7.208
REMARK  6 active torsions:
REMARK  status: ('A' for Active; 'I' for Inactive)
REMARK    1  A    between atoms: C6_8  and  O3_9
REMARK    2  A    between atoms: O3_9  and  C7_10
REMARK    3  A    between atoms: C14_19  and  O6_20
REMARK    4  A    between atoms: C17_25  and  C19_27
REMARK    5  A    between atoms: C19_27  and  C20_28
REMARK    6  A    between atoms: C20_28  and  C21_29
ROOT
HETATM    1  C1  UNL     1      21.393 -41.264  -8.773  1.00  0.00     0.023 C
HETATM    2  C2  UNL     1      21.013 -40.090  -9.266  1.00  0.00     0.010 C
HETATM    3  C3  UNL     1      19.674 -39.560  -9.599  1.00  0.00     0.221 C
HETATM    4  C4  UNL     1      18.581 -39.723  -8.607  1.00  0.00     0.087 C
HETATM    5  O1  UNL     1      19.176 -39.966 -10.815  1.00  0.00    -0.196 OA
HETATM    6  O2  UNL     1      18.100 -39.325 -11.130  1.00  0.00    -0.235 OA
HETATM    7  C5  UNL     1      18.141 -39.172 -12.528  1.00  0.00     0.242 C
HETATM    8  C6  UNL     1      19.581 -39.385 -13.025  1.00  0.00     0.158 C
HETATM    9  C9  UNL     1      20.402 -38.220 -12.569  1.00  0.00     0.036 C
HETATM   10  C10 UNL     1      21.793 -38.390 -12.237  1.00  0.00     0.022 C
HETATM   11  C11 UNL     1      22.319 -39.007 -10.983  1.00  0.00     0.044 C
HETATM   12  C12 UNL     1      22.544 -40.489 -11.353  1.00  0.00     0.026 C
HETATM   13  C13 UNL     1      23.742 -38.492 -10.967  1.00  0.00     0.101 A
HETATM   14  O5  UNL     1      24.781 -39.123 -11.497  1.00  0.00    -0.289 OA
HETATM   15  C14 UNL     1      25.894 -38.503 -11.373  1.00  0.00     0.185 A
HETATM   16  C15 UNL     1      25.655 -37.329 -10.701  1.00  0.00     0.103 A
HETATM   17  C16 UNL     1      24.266 -37.347 -10.451  1.00  0.00     0.105 A
HETATM   18  O7  UNL     1      23.544 -36.357  -9.785  1.00  0.00    -0.337 OA
HETATM   19  C17 UNL     1      22.547 -36.603  -8.794  1.00  0.00     0.071 C
HETATM   20  C18 UNL     1      21.325 -35.880  -9.343  1.00  0.00     0.047 C
HETATM   21  C23 UNL     1      22.335 -38.070  -8.598  1.00  0.00     0.057 C
HETATM   22  C24 UNL     1      21.697 -38.283  -7.292  1.00  0.00     0.016 C
HETATM   23  C25 UNL     1      21.654 -38.788  -9.717  1.00  0.00     0.112 C
HETATM   24  O9  UNL     1      20.312 -38.372  -9.748  1.00  0.00    -0.332 OA
ENDROOT
BRANCH  19  25
HETATM   25  C19 UNL     1      22.989 -35.961  -7.515  1.00  0.00     0.046 C
BRANCH  25  26
HETATM   26  C20 UNL     1      24.402 -35.653  -7.284  1.00  0.00     0.081 C
BRANCH  26  27
HETATM   27  C21 UNL     1      24.908 -34.295  -7.409  1.00  0.00     0.123 C
HETATM   28  C22 UNL     1      25.851 -33.917  -8.540  1.00  0.00     0.091 C
HETATM   29  O8  UNL     1      24.641 -33.385  -6.665  1.00  0.00    -0.298 OA
ENDBRANCH  26  27
ENDBRANCH  25  26
ENDBRANCH  19  25
BRANCH  15  30
HETATM   30  O6  UNL     1      27.173 -38.879 -11.813  1.00  0.00    -0.341 OA
ATOM     31  H6  UNL     1      27.961 -39.034 -11.306  1.00  0.00     0.220 HD
ENDBRANCH  15  30
BRANCH   8  32
HETATM   32  O3  UNL     1      19.506 -39.514 -14.444  1.00  0.00    -0.314 OA
BRANCH  32  33
HETATM   33  C7  UNL     1      20.071 -40.545 -15.143  1.00  0.00     0.255 C
HETATM   34  C8  UNL     1      20.393 -41.880 -14.607  1.00  0.00     0.126 C
HETATM   35  O4  UNL     1      20.344 -40.336 -16.362  1.00  0.00    -0.266 OA
ENDBRANCH  32  33
ENDBRANCH   8  32
TORSDOF 6
ENDMDL