MODEL 3
REMARK VINA RESULT: -7.844733482      1.939      4.008
REMARK  7 active torsions:
REMARK  status: ('A' for Active; 'I' for Inactive)
REMARK    1  A    between atoms: C3_3  and  O1_4
REMARK    2  A    between atoms: C7_9  and  O2_10
REMARK    3  A    between atoms: O2_10  and  C8_11
REMARK    4  A    between atoms: C8_11  and  C9_13
REMARK    5  A    between atoms: C10_14  and  C11_15
REMARK    6  A    between atoms: C10_14  and  C13_17
REMARK    7  A    between atoms: C24_32  and  C25_33
ROOT
HETATM    1  C1  UNL     1      18.942 -32.625  -4.594  1.00  0.00     0.024 C
HETATM    2  C2  UNL     1      19.935 -33.207  -3.917  1.00  0.00    -0.005 C
HETATM    3  C3  UNL     1      21.289 -33.019  -4.420  1.00  0.00     0.053 C
HETATM    4  C4  UNL     1      21.645 -33.641  -5.714  1.00  0.00     0.084 C
HETATM    5  C5  UNL     1      21.476 -35.080  -5.932  1.00  0.00     0.044 C
HETATM    6  C6  UNL     1      22.564 -35.538  -6.902  1.00  0.00     0.081 C
HETATM    7  C7  UNL     1      23.749 -35.620  -6.034  1.00  0.00     0.274 C
HETATM    8  O5  UNL     1      23.284 -35.592  -4.716  1.00  0.00    -0.330 OA
HETATM    9  C17 UNL     1      21.956 -35.948  -4.773  1.00  0.00     0.279 C
HETATM   10  O6  UNL     1      21.255 -35.849  -3.641  1.00  0.00    -0.326 OA
HETATM   11  C18 UNL     1      19.921 -36.007  -3.823  1.00  0.00     0.295 C
HETATM   12  O7  UNL     1      19.159 -35.267  -2.968  1.00  0.00    -0.342 OA
HETATM   13  C19 UNL     1      19.531 -33.981  -2.710  1.00  0.00     0.086 C
HETATM   14  C20 UNL     1      18.245 -33.329  -2.138  1.00  0.00     0.051 C
HETATM   15  C21 UNL     1      20.512 -33.850  -1.571  1.00  0.00     0.051 C
HETATM   16  C22 UNL     1      19.418 -35.963  -5.205  1.00  0.00    -0.026 C
HETATM   17  C23 UNL     1      18.017 -36.449  -5.394  1.00  0.00     0.049 C
HETATM   18  C24 UNL     1      20.115 -35.527  -6.282  1.00  0.00    -0.056 C
ENDROOT
BRANCH   7  19
HETATM   19  O2  UNL     1      24.770 -34.732  -6.144  1.00  0.00    -0.286 OA
BRANCH  19  20
HETATM   20  C8  UNL     1      25.541 -34.450  -7.226  1.00  0.00     0.285 C
HETATM   21  O3  UNL     1      25.407 -33.221  -7.542  1.00  0.00    -0.260 OA
BRANCH  20  22
HETATM   22  C9  UNL     1      26.410 -35.303  -7.987  1.00  0.00     0.092 C
HETATM   23  C10 UNL     1      26.139 -35.963  -9.080  1.00  0.00    -0.019 C
BRANCH  23  24
HETATM   24  C11 UNL     1      24.844 -35.979  -9.797  1.00  0.00     0.037 C
HETATM   25  C12 UNL     1      24.163 -37.336  -9.607  1.00  0.00     0.010 C
ENDBRANCH  23  24
BRANCH  23  26
HETATM   26  C13 UNL     1      27.204 -36.782  -9.686  1.00  0.00     0.081 A
HETATM   27  C14 UNL     1      28.153 -37.480  -9.004  1.00  0.00     0.039 A
HETATM   28  C15 UNL     1      28.956 -38.110  -9.961  1.00  0.00     0.027 A
HETATM   29  C16 UNL     1      28.416 -37.735 -11.164  1.00  0.00     0.142 A
HETATM   30  O4  UNL     1      27.394 -36.960 -10.957  1.00  0.00    -0.322 OA
ENDBRANCH  23  26
ENDBRANCH  20  22
ENDBRANCH  19  20
ENDBRANCH   7  19
BRANCH  18  31
HETATM   31  C25 UNL     1      19.464 -35.529  -7.592  1.00  0.00     0.007 C
HETATM   32  C26 UNL     1      19.396 -34.188  -8.293  1.00  0.00     0.014 C
HETATM   33  C27 UNL     1      19.928 -36.609  -8.554  1.00  0.00     0.014 C
ENDBRANCH  18  31
BRANCH   3  34
HETATM   34  O1  UNL     1      22.309 -33.192  -3.489  1.00  0.00    -0.364 OA
ATOM     35  H1  UNL     1      22.801 -34.002  -3.561  1.00  0.00     0.217 HD
ENDBRANCH   3  34
TORSDOF 7
ENDMDL