MODEL 1
REMARK VINA RESULT: -6.647965752      0.000      0.000
REMARK  10 active torsions:
REMARK  status: ('A' for Active; 'I' for Inactive)
REMARK    1  A    between atoms: O1_2  and  C2_3
REMARK    2  A    between atoms: C2_3  and  C3_5
REMARK    3  A    between atoms: C5_7  and  O3_8
REMARK    4  A    between atoms: C7_10  and  O4_11
REMARK    5  A    between atoms: O4_11  and  C8_12
REMARK    6  A    between atoms: C8_12  and  C9_14
REMARK    7  A    between atoms: C12_18  and  C13_19
REMARK    8  A    between atoms: C17_23  and  N2_24
REMARK       I    between atoms: N2_24  and  C18_26
REMARK    9  A    between atoms: C18_26  and  O7_28
REMARK   10  A    between atoms: O7_28  and  C19_29
ROOT
HETATM    1  C9  UNL     1      16.893 -36.960  -9.166  1.00  0.00     0.019 C
HETATM    2  C10 UNL     1      15.824 -37.411  -9.491  1.00  0.00     0.024 C
HETATM    3  C11 UNL     1      14.554 -37.925  -9.860  1.00  0.00     0.152 C
HETATM    4  N1  UNL     1      13.512 -38.329 -10.166  1.00  0.00    -0.182 NA
ENDROOT
BRANCH   1   5
HETATM    5  C8  UNL     1      18.175 -36.401  -8.757  1.00  0.00     0.345 C
HETATM    6  O5  UNL     1      18.453 -35.204  -9.005  1.00  0.00    -0.249 OA
BRANCH   5   7
HETATM    7  O4  UNL     1      19.102 -37.189  -8.088  1.00  0.00    -0.265 OA
BRANCH   7   8
HETATM    8  C7  UNL     1      20.034 -36.735  -7.207  1.00  0.00     0.122 A
HETATM    9  C5  UNL     1      19.539 -36.368  -5.949  1.00  0.00     0.103 A
HETATM   10  C4  UNL     1      20.392 -35.901  -5.010  1.00  0.00     0.059 A
HETATM   11  C3  UNL     1      21.729 -35.791  -5.303  1.00  0.00     0.069 A
HETATM   12  C17 UNL     1      22.200 -36.161  -6.570  1.00  0.00     0.063 A
HETATM   13  C12 UNL     1      21.372 -36.639  -7.540  1.00  0.00     0.014 A
BRANCH   9  14
HETATM   14  O3  UNL     1      18.190 -36.473  -5.653  1.00  0.00    -0.353 OA
HETATM   15  C6  UNL     1      17.745 -37.531  -4.847  1.00  0.00     0.210 C
ENDBRANCH   9  14
BRANCH  11  16
HETATM   16  C2  UNL     1      22.608 -35.349  -4.266  1.00  0.00     0.295 C
HETATM   17  O2  UNL     1      22.408 -34.322  -3.611  1.00  0.00    -0.259 OA
BRANCH  16  18
HETATM   18  O1  UNL     1      23.772 -36.066  -3.923  1.00  0.00    -0.322 OA
HETATM   19  C1  UNL     1      23.689 -37.340  -3.297  1.00  0.00     0.213 C
ENDBRANCH  16  18
ENDBRANCH  11  16
BRANCH  12  20
HETATM   20  N2  UNL     1      23.564 -35.954  -6.771  1.00  0.00    -0.301 N
HETATM   21  C18 UNL     1      24.156 -34.679  -7.128  1.00  0.00     0.365 C
HETATM   22  O6  UNL     1      23.397 -33.687  -7.266  1.00  0.00    -0.238 OA
ATOM     23  H2  UNL     1      24.188 -36.754  -6.660  1.00  0.00     0.171 HD
BRANCH  21  24
HETATM   24  O7  UNL     1      25.499 -34.516  -7.316  1.00  0.00    -0.298 OA
BRANCH  24  25
HETATM   25  C19 UNL     1      26.256 -35.122  -8.335  1.00  0.00     0.133 C
HETATM   26  C20 UNL     1      27.648 -34.569  -8.273  1.00  0.00     0.032 C
HETATM   27  C21 UNL     1      28.017 -33.777  -9.505  1.00  0.00     0.002 C
HETATM   28  C22 UNL     1      28.047 -34.591 -10.755  1.00  0.00     0.000 C
HETATM   29  C23 UNL     1      27.635 -36.015 -10.585  1.00  0.00     0.000 C
HETATM   30  C24 UNL     1      26.131 -36.093 -10.565  1.00  0.00     0.002 C
HETATM   31  C25 UNL     1      25.624 -34.968  -9.694  1.00  0.00     0.032 C
ENDBRANCH  24  25
ENDBRANCH  21  24
ENDBRANCH  12  20
BRANCH  13  32
HETATM   32  C13 UNL     1      21.764 -37.085  -8.839  1.00  0.00    -0.019 C
HETATM   33  C14 UNL     1      23.120 -37.593  -9.130  1.00  0.00     0.019 C
HETATM   34  C15 UNL     1      20.816 -38.182  -9.388  1.00  0.00     0.019 C
HETATM   35  C16 UNL     1      21.546 -35.903  -9.804  1.00  0.00     0.019 C
ENDBRANCH  13  32
ENDBRANCH   7   8
ENDBRANCH   5   7
ENDBRANCH   1   5
TORSDOF 10
ENDMDL