MODEL 3
REMARK VINA RESULT: -7.482114230      3.282      4.820
REMARK  7 active torsions:
REMARK  status: ('A' for Active; 'I' for Inactive)
REMARK    1  A    between atoms: O1_2  and  C2_3
REMARK    2  A    between atoms: C7_8  and  O2_9
REMARK    3  A    between atoms: O2_9  and  C8_10
REMARK    4  A    between atoms: C14_18  and  S1_19
REMARK    5  A    between atoms: S1_19  and  C15_20
REMARK       I    between atoms: C15_20  and  N1_22
REMARK    6  A    between atoms: N1_22  and  C17_24
REMARK    7  A    between atoms: C17_24  and  C18_25
ROOT
HETATM    1  C2  UNL     1      26.785 -36.088  -9.589  1.00  0.00     0.104 A
HETATM    2  C3  UNL     1      26.536 -35.595  -8.307  1.00  0.00     0.071 A
HETATM    3  C4  UNL     1      25.274 -35.586  -7.794  1.00  0.00     0.065 A
HETATM    4  C5  UNL     1      24.226 -36.078  -8.561  1.00  0.00     0.098 A
HETATM    5  C6  UNL     1      24.489 -36.564  -9.829  1.00  0.00     0.079 A
HETATM    6  C7  UNL     1      25.759 -36.579 -10.363  1.00  0.00     0.115 A
HETATM    7  O4  UNL     1      22.956 -36.050  -7.994  1.00  0.00    -0.346 OA
HETATM    8  C10 UNL     1      22.848 -36.382  -6.607  1.00  0.00     0.206 C
HETATM    9  C11 UNL     1      23.681 -35.400  -5.826  1.00  0.00     0.052 C
HETATM   10  C12 UNL     1      22.860 -34.145  -5.634  1.00  0.00     0.034 C
HETATM   11  C13 UNL     1      21.763 -34.278  -4.635  1.00  0.00     0.018 C
HETATM   12  C14 UNL     1      22.200 -34.985  -3.370  1.00  0.00     0.057 C
HETATM   13  C22 UNL     1      22.830 -36.325  -3.673  1.00  0.00     0.018 C
HETATM   14  C23 UNL     1      24.046 -36.045  -4.520  1.00  0.00     0.034 C
HETATM   15  N2  UNL     1      24.942 -35.100  -6.503  1.00  0.00    -0.376 N
ATOM     16  H2  UNL     1      25.620 -34.510  -6.021  1.00  0.00     0.160 HD
ENDROOT
BRANCH  12  17
HETATM   17  S1  UNL     1      20.876 -35.073  -2.170  1.00  0.00    -0.064 SA
BRANCH  17  18
HETATM   18  C15 UNL     1      19.343 -34.440  -2.759  1.00  0.00     0.281 C
HETATM   19  O5  UNL     1      18.669 -35.083  -3.595  1.00  0.00    -0.260 OA
HETATM   20  N1  UNL     1      18.865 -33.198  -2.288  1.00  0.00    -0.345 N
HETATM   21  C16 UNL     1      17.601 -32.707  -2.789  1.00  0.00     0.153 C
BRANCH  20  22
HETATM   22  C17 UNL     1      19.591 -32.426  -1.331  1.00  0.00     0.158 C
BRANCH  22  23
HETATM   23  C18 UNL     1      20.294 -31.216  -1.896  1.00  0.00     0.139 C
HETATM   24  C19 UNL     1      21.782 -31.309  -1.893  1.00  0.00     0.035 C
HETATM   25  C20 UNL     1      22.178 -30.243  -0.901  1.00  0.00     0.029 C
HETATM   26  C21 UNL     1      20.987 -29.354  -0.871  1.00  0.00     0.168 C
HETATM   27  O6  UNL     1      19.898 -30.035  -1.320  1.00  0.00    -0.384 OA
ENDBRANCH  22  23
ENDBRANCH  20  22
ENDBRANCH  17  18
ENDBRANCH  12  17
BRANCH   1  28
HETATM   28  O1  UNL     1      28.089 -36.063 -10.039  1.00  0.00    -0.353 OA
HETATM   29  C1  UNL     1      28.584 -35.004 -10.819  1.00  0.00     0.210 C
ENDBRANCH   1  28
BRANCH   6  30
HETATM   30  O2  UNL     1      26.022 -37.061 -11.624  1.00  0.00    -0.276 OA
BRANCH  30  31
HETATM   31  C8  UNL     1      26.224 -38.413 -11.848  1.00  0.00     0.260 C
HETATM   32  C9  UNL     1      25.060 -39.324 -12.030  1.00  0.00     0.126 C
HETATM   33  O3  UNL     1      27.384 -38.856 -11.897  1.00  0.00    -0.265 OA
ENDBRANCH  30  31
ENDBRANCH   6  30
TORSDOF 7
ENDMDL