MODEL 2
REMARK VINA RESULT: -8.335634358      0.230      2.230
REMARK  6 active torsions:
REMARK  status: ('A' for Active; 'I' for Inactive)
REMARK    1  A    between atoms: O1_2  and  C2_3
REMARK    2  A    between atoms: C4_5  and  O2_6
REMARK    3  A    between atoms: C18_20  and  C19_21
REMARK    4  A    between atoms: C21_23  and  O3_24
REMARK    5  A    between atoms: C23_26  and  O4_27
REMARK    6  A    between atoms: C24_29  and  O5_30
ROOT
HETATM    1  C2  UNL     1      19.853 -34.144  -7.321  1.00  0.00     0.071 A
HETATM    2  C3  UNL     1      19.434 -34.892  -8.423  1.00  0.00     0.074 A
HETATM    3  C4  UNL     1      20.270 -35.738  -9.110  1.00  0.00     0.078 A
HETATM    4  C6  UNL     1      21.601 -35.835  -8.657  1.00  0.00    -0.004 A
HETATM    5  C7  UNL     1      22.026 -35.114  -7.589  1.00  0.00    -0.033 A
HETATM    6  C8  UNL     1      21.154 -34.259  -6.908  1.00  0.00     0.045 A
HETATM    7  C9  UNL     1      23.414 -35.162  -7.076  1.00  0.00     0.008 C
HETATM    8  C10 UNL     1      23.418 -35.978  -5.807  1.00  0.00     0.025 C
HETATM    9  C11 UNL     1      23.923 -33.765  -6.754  1.00  0.00     0.025 C
HETATM   10  C12 UNL     1      24.330 -35.823  -8.040  1.00  0.00    -0.035 A
HETATM   11  C13 UNL     1      25.685 -35.657  -7.802  1.00  0.00     0.048 A
HETATM   12  C14 UNL     1      26.579 -36.226  -8.657  1.00  0.00     0.105 A
HETATM   13  C15 UNL     1      26.138 -36.945  -9.731  1.00  0.00     0.105 A
HETATM   14  C16 UNL     1      24.802 -37.111  -9.967  1.00  0.00     0.048 A
HETATM   15  C17 UNL     1      23.882 -36.543  -9.113  1.00  0.00    -0.035 A
HETATM   16  C18 UNL     1      22.471 -36.745  -9.382  1.00  0.00     0.088 C
HETATM   17  O6  UNL     1      27.297 -37.379 -10.389  1.00  0.00    -0.323 OA
HETATM   18  C27 UNL     1      28.412 -37.175  -9.570  1.00  0.00     0.352 C
HETATM   19  O7  UNL     1      27.980 -36.203  -8.637  1.00  0.00    -0.323 OA
ENDROOT
BRANCH  16  20
HETATM   20  C19 UNL     1      22.017 -38.151  -9.358  1.00  0.00    -0.040 A
HETATM   21  C20 UNL     1      21.945 -38.865 -10.529  1.00  0.00     0.048 A
HETATM   22  C21 UNL     1      21.496 -40.178 -10.598  1.00  0.00     0.104 A
HETATM   23  C23 UNL     1      21.099 -40.817  -9.447  1.00  0.00     0.133 A
HETATM   24  C24 UNL     1      21.165 -40.112  -8.258  1.00  0.00     0.104 A
HETATM   25  C26 UNL     1      21.617 -38.804  -8.217  1.00  0.00     0.048 A
BRANCH  22  26
HETATM   26  O3  UNL     1      21.452 -40.832 -11.805  1.00  0.00    -0.353 OA
HETATM   27  C22 UNL     1      20.669 -40.458 -12.891  1.00  0.00     0.210 C
ENDBRANCH  22  26
BRANCH  23  28
HETATM   28  O4  UNL     1      20.635 -42.146  -9.458  1.00  0.00    -0.356 OA
ATOM     29  H4  UNL     1      20.760 -42.726  -8.717  1.00  0.00     0.218 HD
ENDBRANCH  23  28
BRANCH  24  30
HETATM   30  O5  UNL     1      20.756 -40.773  -7.083  1.00  0.00    -0.353 OA
HETATM   31  C25 UNL     1      21.266 -40.290  -5.831  1.00  0.00     0.210 C
ENDBRANCH  24  30
ENDBRANCH  16  20
BRANCH   3  32
HETATM   32  O2  UNL     1      19.927 -36.503 -10.200  1.00  0.00    -0.355 OA
HETATM   33  C5  UNL     1      18.596 -36.423 -10.670  1.00  0.00     0.210 C
ENDBRANCH   3  32
BRANCH   1  34
HETATM   34  O1  UNL     1      18.965 -33.313  -6.678  1.00  0.00    -0.356 OA
HETATM   35  C1  UNL     1      18.951 -33.270  -5.269  1.00  0.00     0.210 C
ENDBRANCH   1  34
TORSDOF 6
ENDMDL