MODEL 1
REMARK VINA RESULT: -8.015946672      0.000      0.000
REMARK  6 active torsions:
REMARK  status: ('A' for Active; 'I' for Inactive)
REMARK    1  A    between atoms: C2_2  and  C3_3
REMARK    2  A    between atoms: C13_17  and  C15_19
REMARK    3  A    between atoms: C15_19  and  C16_20
REMARK    4  A    between atoms: C16_20  and  C17_21
REMARK    5  A    between atoms: C23_30  and  C25_32
REMARK    6  A    between atoms: C25_32  and  O8_33
ROOT
HETATM    1  C3  UNL     1      20.093 -34.491  -2.841  1.00  0.00     0.125 C
HETATM    2  C4  UNL     1      18.747 -35.203  -3.162  1.00  0.00     0.052 C
HETATM    3  O1  UNL     1      19.818 -33.228  -2.526  1.00  0.00    -0.336 OA
HETATM    4  C5  UNL     1      20.413 -32.176  -3.074  1.00  0.00     0.198 C
HETATM    5  C6  UNL     1      21.541 -31.465  -2.382  1.00  0.00     0.072 C
HETATM    6  C7  UNL     1      20.850 -30.108  -2.582  1.00  0.00     0.011 C
HETATM    7  C8  UNL     1      19.582 -30.904  -2.820  1.00  0.00     0.072 C
HETATM    8  O2  UNL     1      20.651 -32.241  -4.442  1.00  0.00    -0.197 OA
HETATM    9  O3  UNL     1      19.692 -33.061  -4.892  1.00  0.00    -0.191 OA
HETATM   10  C9  UNL     1      20.432 -34.209  -5.256  1.00  0.00     0.260 C
HETATM   11  C10 UNL     1      19.630 -35.156  -6.069  1.00  0.00     0.080 C
HETATM   12  C11 UNL     1      20.392 -35.303  -7.363  1.00  0.00     0.038 C
HETATM   13  C12 UNL     1      21.645 -34.536  -7.124  1.00  0.00     0.136 C
HETATM   14  O4  UNL     1      21.429 -33.654  -6.079  1.00  0.00    -0.342 OA
HETATM   15  C13 UNL     1      22.874 -35.301  -6.829  1.00  0.00     0.015 C
HETATM   16  C14 UNL     1      23.120 -36.434  -7.801  1.00  0.00     0.020 C
HETATM   17  C21 UNL     1      23.104 -35.678  -5.399  1.00  0.00     0.207 C
HETATM   18  O5  UNL     1      23.158 -34.483  -4.674  1.00  0.00    -0.228 OA
HETATM   19  O6  UNL     1      22.260 -34.269  -3.811  1.00  0.00    -0.191 OA
HETATM   20  C22 UNL     1      21.025 -34.783  -3.988  1.00  0.00     0.289 C
HETATM   21  O7  UNL     1      21.114 -36.153  -4.133  1.00  0.00    -0.330 OA
HETATM   22  C23 UNL     1      22.299 -36.630  -4.675  1.00  0.00     0.112 C
HETATM   23  C24 UNL     1      21.980 -37.957  -5.338  1.00  0.00     0.051 C
ENDROOT
BRANCH  15  24
HETATM   24  C15 UNL     1      24.030 -34.336  -7.046  1.00  0.00     0.018 C
BRANCH  24  25
HETATM   25  C16 UNL     1      25.380 -34.901  -7.172  1.00  0.00     0.028 C
BRANCH  25  26
HETATM   26  C17 UNL     1      26.070 -34.155  -8.257  1.00  0.00    -0.025 C
HETATM   27  C18 UNL     1      26.963 -34.748  -9.015  1.00  0.00    -0.091 C
HETATM   28  C19 UNL     1      27.276 -36.181  -8.773  1.00  0.00     0.042 C
HETATM   29  C20 UNL     1      27.668 -33.995 -10.122  1.00  0.00     0.042 C
ENDBRANCH  25  26
ENDBRANCH  24  25
ENDBRANCH  15  24
BRANCH  22  30
HETATM   30  C25 UNL     1      23.220 -37.140  -3.524  1.00  0.00     0.204 C
BRANCH  30  31
HETATM   31  O8  UNL     1      24.471 -36.588  -3.593  1.00  0.00    -0.398 OA
ATOM     32  H8  UNL     1      24.976 -36.948  -4.312  1.00  0.00     0.209 HD
ENDBRANCH  30  31
ENDBRANCH  22  30
BRANCH   1  33
HETATM   33  C2  UNL     1      20.461 -35.190  -1.549  1.00  0.00     0.039 C
HETATM   34  C1  UNL     1      20.090 -34.492  -0.297  1.00  0.00     0.008 C
ENDBRANCH   1  33
TORSDOF 6
ENDMDL