MODEL 2
REMARK VINA RESULT: -8.203905190      1.989      4.593
REMARK  7 active torsions:
REMARK  status: ('A' for Active; 'I' for Inactive)
REMARK    1  A    between atoms: C2_2  and  N1_3
REMARK    2  A    between atoms: C6_7  and  C7_8
REMARK    3  A    between atoms: C8_9  and  C9_10
REMARK    4  A    between atoms: C9_10  and  O2_12
REMARK    5  A    between atoms: O2_12  and  C10_13
REMARK    6  A    between atoms: C10_13  and  C11_14
REMARK    7  A    between atoms: C21_28  and  O7_29
ROOT
HETATM    1  C11 UNL     1      21.843 -34.794  -5.929  1.00  0.00     0.222 C
HETATM    2  O3  UNL     1      21.205 -34.353  -7.084  1.00  0.00    -0.227 OA
HETATM    3  O4  UNL     1      20.003 -34.853  -7.258  1.00  0.00    -0.197 OA
HETATM    4  C12 UNL     1      20.186 -35.924  -8.152  1.00  0.00     0.229 C
HETATM    5  C13 UNL     1      18.972 -36.774  -8.289  1.00  0.00     0.074 C
HETATM    6  C14 UNL     1      18.022 -36.328  -9.354  1.00  0.00     0.006 C
HETATM    7  C15 UNL     1      18.700 -36.497 -10.694  1.00  0.00     0.000 C
HETATM    8  C16 UNL     1      20.180 -36.329 -10.622  1.00  0.00     0.006 C
HETATM    9  C17 UNL     1      20.624 -35.437  -9.485  1.00  0.00     0.074 C
HETATM   10  O5  UNL     1      21.171 -36.712  -7.506  1.00  0.00    -0.197 OA
HETATM   11  O6  UNL     1      20.691 -36.899  -6.302  1.00  0.00    -0.224 OA
HETATM   12  C18 UNL     1      21.140 -35.984  -5.354  1.00  0.00     0.127 C
HETATM   13  C19 UNL     1      19.970 -35.454  -4.520  1.00  0.00     0.047 C
HETATM   14  C20 UNL     1      19.730 -36.259  -3.275  1.00  0.00     0.035 C
HETATM   15  C21 UNL     1      20.855 -36.075  -2.315  1.00  0.00     0.118 C
HETATM   16  C22 UNL     1      22.164 -36.055  -3.089  1.00  0.00     0.035 C
HETATM   17  C23 UNL     1      21.974 -36.793  -4.388  1.00  0.00     0.047 C
ENDROOT
BRANCH   1  18
HETATM   18  C10 UNL     1      23.303 -35.052  -6.149  1.00  0.00     0.217 C
BRANCH  18  19
HETATM   19  O2  UNL     1      24.041 -33.986  -6.647  1.00  0.00    -0.315 OA
BRANCH  19  20
HETATM   20  C9  UNL     1      25.232 -34.016  -7.328  1.00  0.00     0.282 C
HETATM   21  O1  UNL     1      26.148 -33.266  -6.902  1.00  0.00    -0.260 OA
BRANCH  20  22
HETATM   22  C8  UNL     1      25.482 -34.854  -8.494  1.00  0.00     0.083 C
HETATM   23  C7  UNL     1      25.969 -36.078  -8.394  1.00  0.00     0.019 C
BRANCH  23  24
HETATM   24  C6  UNL     1      26.203 -36.877  -9.578  1.00  0.00    -0.012 A
HETATM   25  C5  UNL     1      27.417 -37.195 -10.152  1.00  0.00     0.038 A
HETATM   26  C3  UNL     1      27.201 -37.986 -11.283  1.00  0.00     0.008 A
HETATM   27  N1  UNL     1      25.869 -38.142 -11.388  1.00  0.00    -0.354 N
HETATM   28  C4  UNL     1      28.292 -38.496 -12.124  1.00  0.00     0.068 C
HETATM   29  C24 UNL     1      25.259 -37.490 -10.384  1.00  0.00     0.018 A
HETATM   30  C25 UNL     1      23.770 -37.442 -10.179  1.00  0.00     0.069 C
BRANCH  27  31
HETATM   31  C2  UNL     1      25.232 -38.904 -12.440  1.00  0.00     0.124 C
HETATM   32  C1  UNL     1      24.683 -40.218 -11.951  1.00  0.00     0.027 C
ENDBRANCH  27  31
ENDBRANCH  23  24
ENDBRANCH  20  22
ENDBRANCH  19  20
ENDBRANCH  18  19
ENDBRANCH   1  18
BRANCH  15  33
HETATM   33  O7  UNL     1      20.873 -37.044  -1.311  1.00  0.00    -0.396 OA
ATOM     34  H7  UNL     1      20.256 -37.748  -1.467  1.00  0.00     0.210 HD
ENDBRANCH  15  33
TORSDOF 7
ENDMDL