MODEL 3
REMARK VINA RESULT: -7.293710564      1.867      2.787
REMARK  7 active torsions:
REMARK  status: ('A' for Active; 'I' for Inactive)
REMARK    1  A    between atoms: C13_13  and  C14_14
REMARK    2  A    between atoms: C14_14  and  O2_16
REMARK    3  A    between atoms: C17_20  and  O4_21
REMARK    4  A    between atoms: C20_24  and  O5_25
REMARK    5  A    between atoms: C22_27  and  O6_28
REMARK    6  A    between atoms: C24_31  and  C25_32
REMARK    7  A    between atoms: N1_33  and  O7_35
ROOT
HETATM    1  C1  UNL     1      28.485 -36.419 -10.453  1.00  0.00     0.014 C
HETATM    2  C2  UNL     1      27.405 -35.851  -9.986  1.00  0.00    -0.085 C
HETATM    3  C3  UNL     1      27.187 -34.387  -9.828  1.00  0.00     0.034 C
HETATM    4  C4  UNL     1      25.727 -34.218  -9.419  1.00  0.00     0.010 C
HETATM    5  C5  UNL     1      25.136 -35.471  -9.941  1.00  0.00    -0.002 C
HETATM    6  C6  UNL     1      26.148 -36.504  -9.507  1.00  0.00     0.018 C
HETATM    7  C7  UNL     1      25.824 -37.795 -10.140  1.00  0.00     0.010 C
HETATM    8  C8  UNL     1      24.480 -37.950 -10.739  1.00  0.00     0.007 C
HETATM    9  C9  UNL     1      23.387 -37.089 -10.317  1.00  0.00     0.009 C
HETATM   10  C10 UNL     1      23.814 -35.874  -9.478  1.00  0.00    -0.004 C
HETATM   11  C11 UNL     1      23.724 -36.452  -8.107  1.00  0.00     0.014 C
HETATM   12  C12 UNL     1      22.325 -37.094  -8.143  1.00  0.00     0.044 C
HETATM   13  C13 UNL     1      21.273 -36.124  -7.779  1.00  0.00     0.234 C
HETATM   14  O3  UNL     1      20.024 -36.546  -8.280  1.00  0.00    -0.332 OA
HETATM   15  C16 UNL     1      19.870 -36.968  -9.578  1.00  0.00     0.113 A
HETATM   16  C17 UNL     1      18.645 -36.819 -10.245  1.00  0.00     0.104 A
HETATM   17  C19 UNL     1      18.493 -37.245 -11.542  1.00  0.00     0.079 A
HETATM   18  C20 UNL     1      19.579 -37.822 -12.172  1.00  0.00     0.104 A
HETATM   19  C22 UNL     1      20.793 -37.962 -11.493  1.00  0.00     0.109 A
HETATM   20  C23 UNL     1      20.950 -37.536 -10.191  1.00  0.00     0.029 A
HETATM   21  C24 UNL     1      22.269 -37.702  -9.514  1.00  0.00     0.037 C
ENDROOT
BRANCH  21  22
HETATM   22  C25 UNL     1      22.442 -39.174  -9.345  1.00  0.00     0.102 C
HETATM   23  N1  UNL     1      21.544 -39.849  -8.722  1.00  0.00    -0.281 N
ATOM     24  H1  UNL     1      20.739 -39.335  -8.364  1.00  0.00     0.193 HD
BRANCH  23  25
HETATM   25  O7  UNL     1      21.576 -41.179  -8.500  1.00  0.00    -0.286 OA
HETATM   26  C26 UNL     1      21.492 -41.801  -7.240  1.00  0.00     0.237 C
ENDBRANCH  23  25
ENDBRANCH  21  22
BRANCH  13  27
HETATM   27  C14 UNL     1      21.144 -36.063  -6.297  1.00  0.00     0.288 C
HETATM   28  O1  UNL     1      20.563 -36.971  -5.658  1.00  0.00    -0.262 OA
BRANCH  27  29
HETATM   29  O2  UNL     1      21.659 -35.004  -5.598  1.00  0.00    -0.324 OA
HETATM   30  C15 UNL     1      22.102 -33.796  -6.139  1.00  0.00     0.213 C
ENDBRANCH  27  29
ENDBRANCH  13  27
BRANCH  19  31
HETATM   31  O6  UNL     1      21.823 -38.551 -12.202  1.00  0.00    -0.357 OA
ATOM     32  H6  UNL     1      21.826 -39.500 -12.225  1.00  0.00     0.217 HD
ENDBRANCH  19  31
BRANCH  16  33
HETATM   33  O4  UNL     1      17.581 -36.237  -9.580  1.00  0.00    -0.353 OA
HETATM   34  C18 UNL     1      16.284 -36.699  -9.825  1.00  0.00     0.210 C
ENDBRANCH  16  33
BRANCH  18  35
HETATM   35  O5  UNL     1      19.479 -38.269 -13.484  1.00  0.00    -0.353 OA
HETATM   36  C21 UNL     1      18.786 -39.475 -13.731  1.00  0.00     0.210 C
ENDBRANCH  18  35
TORSDOF 7
ENDMDL