MODEL 2
REMARK VINA RESULT: -7.861935773      2.020      7.451
REMARK  6 active torsions:
REMARK  status: ('A' for Active; 'I' for Inactive)
REMARK    1  A    between atoms: C2_2  and  O1_4
REMARK    2  A    between atoms: O1_4  and  C4_5
REMARK    3  A    between atoms: C4_5  and  C5_6
REMARK    4  A    between atoms: N1_8  and  C7_9
REMARK    5  A    between atoms: C8_13  and  C9_14
REMARK    6  A    between atoms: C13_18  and  C14_19
ROOT
HETATM    1  C7  UNL     1      20.226 -35.770  -7.316  1.00  0.00     0.181 A
HETATM    2  O2  UNL     1      19.357 -35.741  -6.334  1.00  0.00    -0.219 OA
HETATM    3  N2  UNL     1      19.945 -35.814  -5.187  1.00  0.00    -0.262 N
ATOM      4  H2  UNL     1      19.476 -35.810  -4.280  1.00  0.00     0.194 HD
HETATM    5  C8  UNL     1      21.296 -35.896  -5.378  1.00  0.00     0.055 A
HETATM    6  C13 UNL     1      21.492 -35.869  -6.738  1.00  0.00     0.054 A
ENDROOT
BRANCH   6   7
HETATM    7  C14 UNL     1      22.772 -35.938  -7.432  1.00  0.00    -0.004 A
HETATM    8  C15 UNL     1      23.121 -37.047  -8.190  1.00  0.00     0.102 A
HETATM    9  N3  UNL     1      24.308 -37.109  -8.839  1.00  0.00    -0.351 N
HETATM   10  C16 UNL     1      25.218 -36.117  -8.796  1.00  0.00     0.110 A
ATOM     11  H3  UNL     1      24.522 -37.944  -9.384  1.00  0.00     0.166 HD
HETATM   12  C17 UNL     1      24.902 -34.997  -8.049  1.00  0.00    -0.013 A
HETATM   13  N4  UNL     1      26.462 -36.206  -9.485  1.00  0.00    -0.358 N
HETATM   14  C18 UNL     1      23.707 -34.925  -7.390  1.00  0.00     0.024 A
HETATM   15  C19 UNL     1      25.908 -33.893  -7.997  1.00  0.00     0.044 C
HETATM   16  C20 UNL     1      26.572 -33.819  -9.353  1.00  0.00     0.032 C
HETATM   17  C21 UNL     1      27.390 -35.094  -9.501  1.00  0.00     0.110 C
HETATM   18  C22 UNL     1      28.067 -35.082 -10.834  1.00  0.00     0.193 C
HETATM   19  O3  UNL     1      28.753 -36.243 -11.103  1.00  0.00    -0.388 OA
HETATM   20  C23 UNL     1      28.341 -37.347 -10.398  1.00  0.00     0.187 C
HETATM   21  C24 UNL     1      26.842 -37.410 -10.194  1.00  0.00     0.151 C
ENDBRANCH   6   7
BRANCH   1  22
HETATM   22  N1  UNL     1      19.910 -35.709  -8.689  1.00  0.00    -0.358 N
HETATM   23  C6  UNL     1      20.834 -35.848  -9.796  1.00  0.00     0.132 C
HETATM   24  C5  UNL     1      19.991 -36.249 -10.989  1.00  0.00     0.033 C
HETATM   25  C26 UNL     1      18.635 -36.459 -10.418  1.00  0.00     0.007 C
HETATM   26  C25 UNL     1      18.586 -35.501  -9.246  1.00  0.00     0.129 C
HETATM   27  C27 UNL     1      18.438 -37.866  -9.894  1.00  0.00     0.012 C
BRANCH  24  28
HETATM   28  C4  UNL     1      20.552 -37.483 -11.658  1.00  0.00     0.174 C
BRANCH  28  29
HETATM   29  O1  UNL     1      21.826 -37.813 -11.310  1.00  0.00    -0.386 OA
BRANCH  29  30
HETATM   30  C2  UNL     1      22.215 -39.110 -11.522  1.00  0.00     0.113 C
HETATM   31  C1  UNL     1      23.741 -39.228 -11.624  1.00  0.00     0.039 C
HETATM   32  C3  UNL     1      21.832 -39.930 -10.309  1.00  0.00     0.039 C
ENDBRANCH  29  30
ENDBRANCH  28  29
ENDBRANCH  24  28
ENDBRANCH   1  22
BRANCH   5  33
HETATM   33  C9  UNL     1      22.309 -35.995  -4.305  1.00  0.00    -0.006 C
HETATM   34  C10 UNL     1      21.545 -36.193  -2.982  1.00  0.00     0.021 C
HETATM   35  C11 UNL     1      23.140 -34.753  -4.145  1.00  0.00     0.021 C
HETATM   36  C12 UNL     1      23.186 -37.223  -4.481  1.00  0.00     0.021 C
ENDBRANCH   5  33
TORSDOF 6
ENDMDL