MODEL 3
REMARK VINA RESULT: -6.100274165      1.586      2.037
REMARK  4 active torsions:
REMARK  status: ('A' for Active; 'I' for Inactive)
REMARK    1  A    between atoms: O1_2  and  C2_3
REMARK    2  A    between atoms: C5_6  and  C6_7
REMARK    3  A    between atoms: C6_7  and  N1_8
REMARK    4  A    between atoms: N1_8  and  C7_10
ROOT
HETATM    1  C2  UNL     1      55.641 357.803  84.684  1.00  0.00     0.141 A
HETATM    2  C3  UNL     1      54.934 358.977  84.846  1.00  0.00     0.058 A
HETATM    3  C4  UNL     1      55.676 359.810  85.652  1.00  0.00     0.031 A
HETATM    4  C5  UNL     1      56.819 359.113  85.958  1.00  0.00     0.029 A
HETATM    5  N3  UNL     1      56.794 357.904  85.373  1.00  0.00    -0.339 N
ATOM      6  H3  UNL     1      57.519 357.189  85.439  1.00  0.00     0.168 HD
ENDROOT
BRANCH   4   7
HETATM    7  C6  UNL     1      57.919 359.647  86.822  1.00  0.00     0.177 C
BRANCH   7   8
HETATM    8  N1  UNL     1      57.688 359.343  88.221  1.00  0.00    -0.381 N
ATOM      9  H1  UNL     1      58.077 358.481  88.603  1.00  0.00     0.160 HD
BRANCH   8  10
HETATM   10  C7  UNL     1      56.948 360.184  89.076  1.00  0.00     0.169 C
HETATM   11  N2  UNL     1      56.408 359.782  90.181  1.00  0.00    -0.396 N
ATOM     12  H22 UNL     1      56.533 358.801  90.432  1.00  0.00     0.156 HD
ATOM     13  H21 UNL     1      55.873 360.391  90.800  1.00  0.00     0.156 HD
ENDBRANCH   8  10
ENDBRANCH   7   8
ENDBRANCH   4   7
BRANCH   1  14
HETATM   14  O1  UNL     1      55.211 356.697  83.923  1.00  0.00    -0.341 OA
HETATM   15  C1  UNL     1      53.853 356.494  83.684  1.00  0.00     0.211 C
ENDBRANCH   1  14
TORSDOF 4
ENDMDL