MODEL 2
REMARK VINA RESULT: -5.639016245      1.936      2.465
REMARK  4 active torsions:
REMARK  status: ('A' for Active; 'I' for Inactive)
REMARK    1  A    between atoms: O1_2  and  C2_3
REMARK    2  A    between atoms: C2_3  and  C3_4
REMARK    3  A    between atoms: C3_4  and  N1_5
REMARK    4  A    between atoms: N1_5  and  C4_7
ROOT
HETATM    1  N1  UNL     1      57.459 357.913  85.144  1.00  0.00    -0.415 N
ATOM      2  H1  UNL     1      57.889 357.396  84.378  1.00  0.00     0.153 HD
ENDROOT
BRANCH   1   3
HETATM    3  C3  UNL     1      58.248 358.519  86.153  1.00  0.00     0.140 C
BRANCH   3   4
HETATM    4  C2  UNL     1      59.079 359.654  85.569  1.00  0.00     0.186 C
BRANCH   4   5
HETATM    5  O1  UNL     1      59.709 360.405  86.551  1.00  0.00    -0.394 OA
HETATM    6  C1  UNL     1      59.097 360.346  87.775  1.00  0.00     0.201 C
ENDBRANCH   4   5
ENDBRANCH   3   4
ENDBRANCH   1   3
BRANCH   1   7
HETATM    7  C4  UNL     1      56.054 358.051  85.237  1.00  0.00     0.076 C
HETATM    8  C5  UNL     1      55.498 359.392  84.842  1.00  0.00     0.024 C
HETATM    9  C6  UNL     1      54.011 359.034  84.701  1.00  0.00     0.002 C
HETATM   10  C7  UNL     1      54.024 357.682  84.004  1.00  0.00     0.002 C
HETATM   11  C8  UNL     1      55.406 357.152  84.187  1.00  0.00     0.024 C
ENDBRANCH   1   7
TORSDOF 4
ENDMDL