MODEL 2
REMARK VINA RESULT: -5.604356950      2.047      4.719
REMARK  4 active torsions:
REMARK  status: ('A' for Active; 'I' for Inactive)
REMARK    1  A    between atoms: C2_2  and  C3_3
REMARK    2  A    between atoms: C3_3  and  N1_4
REMARK    3  A    between atoms: N1_4  and  C4_7
REMARK    4  A    between atoms: C4_7  and  C5_8
ROOT
HETATM    1  C5  UNL     1      55.609 358.444  84.543  1.00  0.00     0.051 A
HETATM    2  C6  UNL     1      54.256 358.707  84.420  1.00  0.00     0.115 A
HETATM    3  N2  UNL     1      53.643 357.655  83.903  1.00  0.00    -0.360 N
ATOM      4  H2  UNL     1      52.645 357.577  83.706  1.00  0.00     0.166 HD
HETATM    5  C7  UNL     1      54.572 356.704  83.684  1.00  0.00     0.180 A
HETATM    6  N3  UNL     1      55.774 357.194  84.077  1.00  0.00    -0.353 N
ATOM      7  H3  UNL     1      56.661 356.694  84.028  1.00  0.00     0.166 HD
ENDROOT
BRANCH   1   8
HETATM    8  C4  UNL     1      56.681 359.332  85.079  1.00  0.00     0.290 C
BRANCH   8   9
HETATM    9  N1  UNL     1      57.858 358.570  85.444  1.00  0.00    -0.067 N
ATOM     10  H12 UNL     1      58.730 359.039  85.198  1.00  0.00     0.277 HD
ATOM     11  H11 UNL     1      57.990 357.738  84.868  1.00  0.00     0.277 HD
BRANCH   9  12
HETATM   12  C3  UNL     1      57.751 358.269  86.869  1.00  0.00     0.259 C
BRANCH  12  13
HETATM   13  C2  UNL     1      57.880 359.571  87.611  1.00  0.00    -0.010 C
HETATM   14  C1  UNL     1      57.214 359.838  88.715  1.00  0.00     0.008 C
ENDBRANCH  12  13
ENDBRANCH   9  12
ENDBRANCH   8   9
ENDBRANCH   1   8
TORSDOF 4
ENDMDL