MODEL 3
REMARK VINA RESULT: -5.346472855      1.627      4.784
REMARK  4 active torsions:
REMARK  status: ('A' for Active; 'I' for Inactive)
REMARK    1  A    between atoms: N1_2  and  C2_5
REMARK    2  A    between atoms: C2_5  and  C3_6
REMARK    3  A    between atoms: C3_6  and  N2_7
REMARK    4  A    between atoms: N2_7  and  C4_10
ROOT
HETATM    1  N2  UNL     1      57.507 358.349  85.069  1.00  0.00    -0.069 N
ATOM      2  H21 UNL     1      57.917 357.662  84.436  1.00  0.00     0.277 HD
ATOM      3  H22 UNL     1      57.678 359.195  84.524  1.00  0.00     0.277 HD
ENDROOT
BRANCH   1   4
HETATM    4  C3  UNL     1      58.220 358.388  86.329  1.00  0.00     0.260 C
BRANCH   4   5
HETATM    5  C2  UNL     1      58.883 359.752  86.417  1.00  0.00     0.259 C
BRANCH   5   6
HETATM    6  N1  UNL     1      58.835 360.231  87.817  1.00  0.00    -0.077 N
HETATM    7  C1  UNL     1      57.559 359.794  88.356  1.00  0.00     0.267 C
ATOM      8  H12 UNL     1      58.990 361.235  87.906  1.00  0.00     0.276 HD
ATOM      9  H11 UNL     1      59.634 359.929  88.374  1.00  0.00     0.276 HD
ENDBRANCH   5   6
ENDBRANCH   4   5
ENDBRANCH   1   4
BRANCH   1  10
HETATM   10  C4  UNL     1      56.103 358.120  85.243  1.00  0.00     0.186 C
HETATM   11  C5  UNL     1      55.238 359.312  85.391  1.00  0.00     0.033 C
HETATM   12  C6  UNL     1      54.077 359.128  84.399  1.00  0.00     0.002 C
HETATM   13  C7  UNL     1      54.067 357.622  84.258  1.00  0.00     0.002 C
HETATM   14  C8  UNL     1      55.567 357.359  84.046  1.00  0.00     0.033 C
ENDBRANCH   1  10
TORSDOF 4
ENDMDL