MODEL 2
REMARK VINA RESULT: -6.155206860      1.405      1.579
REMARK  4 active torsions:
REMARK  status: ('A' for Active; 'I' for Inactive)
REMARK    1  A    between atoms: C2_2  and  C3_3
REMARK    2  A    between atoms: C2_2  and  C5_8
REMARK    3  A    between atoms: C3_3  and  N1_4
REMARK    4  A    between atoms: N1_4  and  C4_6
ROOT
HETATM    1  C5  UNL     1      55.564 357.801  84.633  1.00  0.00     0.034 A
HETATM    2  C6  UNL     1      54.419 358.545  84.476  1.00  0.00     0.114 A
HETATM    3  N2  UNL     1      53.454 357.764  83.902  1.00  0.00    -0.360 N
ATOM      4  H2  UNL     1      52.503 358.047  83.667  1.00  0.00     0.166 HD
HETATM    5  C7  UNL     1      54.007 356.541  83.706  1.00  0.00     0.180 A
HETATM    6  N3  UNL     1      55.289 356.584  84.157  1.00  0.00    -0.354 N
ATOM      7  H3  UNL     1      55.944 355.802  84.135  1.00  0.00     0.166 HD
ENDROOT
BRANCH   1   8
HETATM    8  C2  UNL     1      56.869 358.296  85.233  1.00  0.00     0.071 C
HETATM    9  C1  UNL     1      57.047 357.688  86.565  1.00  0.00     0.022 C
BRANCH   8  10
HETATM   10  C3  UNL     1      56.893 359.756  85.065  1.00  0.00     0.073 C
BRANCH  10  11
HETATM   11  N1  UNL     1      57.641 360.365  84.037  1.00  0.00    -0.347 N
ATOM     12  H1  UNL     1      57.282 360.222  83.094  1.00  0.00     0.167 HD
BRANCH  11  13
HETATM   13  C4  UNL     1      58.808 361.139  84.123  1.00  0.00     0.352 C
HETATM   14  O1  UNL     1      59.532 361.481  83.175  1.00  0.00    -0.283 OA
ENDBRANCH  11  13
ENDBRANCH  10  11
ENDBRANCH   8  10
ENDBRANCH   1   8
TORSDOF 4
ENDMDL