MODEL 4
REMARK VINA RESULT: -8.910959781      1.614      3.335
REMARK  4 active torsions:
REMARK  status: ('A' for Active; 'I' for Inactive)
REMARK    1  A    between atoms: N3_13  and  C7_14
REMARK    2  A    between atoms: C7_14  and  C8_15
REMARK    3  A    between atoms: C9_16  and  C10_17
REMARK    4  A    between atoms: C14_21  and  N4_22
ROOT
HETATM    1  N1  UNL     1       2.064  -7.765 -13.827  1.00  0.00    -0.389 N
ATOM      2  H11 UNL     1       2.094  -6.759 -13.666  1.00  0.00     0.157 HD
ATOM      3  H12 UNL     1       1.254  -8.383 -13.780  1.00  0.00     0.157 HD
HETATM    4  C1  UNL     1       3.219  -8.319 -14.117  1.00  0.00     0.070 C
HETATM    5  C2  UNL     1       3.177  -9.777 -14.350  1.00  0.00     0.077 C
HETATM    6  C3  UNL     1       2.383 -10.540 -13.312  1.00  0.00     0.035 C
HETATM    7  C4  UNL     1       1.671 -11.712 -13.906  1.00  0.00     0.233 C
HETATM    8  N2  UNL     1       2.076 -12.988 -13.348  1.00  0.00    -0.071 N
ATOM      9  H21 UNL     1       1.452 -13.737 -13.648  1.00  0.00     0.277 HD
ATOM     10  H22 UNL     1       1.903 -13.024 -12.344  1.00  0.00     0.277 HD
HETATM   11  C5  UNL     1       3.457 -13.304 -13.653  1.00  0.00     0.277 C
HETATM   12  C6  UNL     1       3.717 -14.788 -13.682  1.00  0.00     0.096 C
HETATM   13  N3  UNL     1       5.044 -15.039 -14.066  1.00  0.00    -0.340 N
HETATM   14  C17 UNL     1       6.105 -14.558 -13.280  1.00  0.00     0.096 C
HETATM   15  C18 UNL     1       7.202 -13.918 -14.133  1.00  0.00     0.277 C
HETATM   16  N8  UNL     1       7.914 -12.897 -13.409  1.00  0.00    -0.069 N
ATOM     17  H81 UNL     1       8.740 -12.587 -13.921  1.00  0.00     0.277 HD
ATOM     18  H82 UNL     1       8.372 -13.279 -12.581  1.00  0.00     0.277 HD
HETATM   19  C19 UNL     1       7.067 -11.796 -13.073  1.00  0.00     0.260 C
HETATM   20  C20 UNL     1       7.755 -10.474 -13.012  1.00  0.00     0.259 C
HETATM   21  N9  UNL     1       7.022  -9.474 -13.780  1.00  0.00    -0.072 N
ATOM     22  H91 UNL     1       6.619  -9.866 -14.631  1.00  0.00     0.277 HD
ATOM     23  H92 UNL     1       7.645  -8.790 -14.210  1.00  0.00     0.277 HD
HETATM   24  C21 UNL     1       6.001  -8.833 -12.931  1.00  0.00     0.251 C
HETATM   25  C22 UNL     1       5.580  -7.527 -13.482  1.00  0.00     0.148 C
HETATM   26  N10 UNL     1       4.336  -7.469 -14.182  1.00  0.00    -0.379 N
ATOM     27  H10 UNL     1       4.243  -6.687 -14.830  1.00  0.00     0.160 HD
ENDROOT
BRANCH  13  28
HETATM   28  C7  UNL     1       5.313 -15.607 -15.325  1.00  0.00     0.160 C
BRANCH  28  29
HETATM   29  C8  UNL     1       5.613 -17.048 -15.241  1.00  0.00    -0.054 C
HETATM   30  C9  UNL     1       5.848 -18.234 -15.168  1.00  0.00    -0.043 C
BRANCH  30  31
HETATM   31  C10 UNL     1       6.139 -19.648 -15.060  1.00  0.00     0.088 A
HETATM   32  C11 UNL     1       7.275 -20.210 -15.608  1.00  0.00     0.040 A
HETATM   33  C12 UNL     1       7.553 -21.555 -15.503  1.00  0.00     0.022 A
HETATM   34  C13 UNL     1       6.688 -22.393 -14.834  1.00  0.00     0.052 A
HETATM   35  C14 UNL     1       6.919 -23.745 -14.698  1.00  0.00     0.113 A
HETATM   36  C16 UNL     1       5.541 -21.811 -14.283  1.00  0.00     0.121 A
HETATM   37  N5  UNL     1       6.008 -24.505 -14.016  1.00  0.00    -0.338 N
HETATM   38  C15 UNL     1       4.909 -23.941 -13.489  1.00  0.00     0.183 A
ATOM     39  H5  UNL     1       6.165 -25.507 -13.907  1.00  0.00     0.168 HD
HETATM   40  N6  UNL     1       4.701 -22.633 -13.629  1.00  0.00    -0.338 N
ATOM     41  H6  UNL     1       3.858 -22.232 -13.217  1.00  0.00     0.168 HD
HETATM   42  N7  UNL     1       5.317 -20.493 -14.413  1.00  0.00    -0.335 N
ATOM     43  H7  UNL     1       4.468 -20.108 -13.996  1.00  0.00     0.168 HD
BRANCH  35  44
HETATM   44  N4  UNL     1       7.957 -24.307 -15.192  1.00  0.00    -0.385 N
ATOM     45  H42 UNL     1       8.880 -23.941 -14.958  1.00  0.00     0.157 HD
ATOM     46  H41 UNL     1       7.890 -25.112 -15.814  1.00  0.00     0.157 HD
ENDBRANCH  35  44
ENDBRANCH  30  31
ENDBRANCH  28  29
ENDBRANCH  13  28
TORSDOF 4
ENDMDL