MODEL 2
REMARK VINA RESULT: -6.561138954      3.478      7.404
REMARK  1 active torsions:
REMARK  status: ('A' for Active; 'I' for Inactive)
REMARK    1  A    between atoms: C1_2  and  C2_4
ROOT
HETATM    1  C2  UNL     1       4.068 -14.249 -16.110  1.00  0.00     0.186 C
HETATM    2  C3  UNL     1       4.874 -13.062 -16.545  1.00  0.00     0.166 C
HETATM    3  N2  UNL     1       6.282 -13.339 -16.732  1.00  0.00    -0.319 N
HETATM    4  N3  UNL     1       6.399 -13.478 -18.123  1.00  0.00    -0.276 N
ATOM      5  H3  UNL     1       5.500 -13.430 -18.603  1.00  0.00     0.189 HD
HETATM    6  C4  UNL     1       7.410 -13.658 -18.946  1.00  0.00     0.203 C
HETATM    7  N4  UNL     1       7.027 -13.743 -20.318  1.00  0.00    -0.062 NA
HETATM    8  N5  UNL     1       8.806 -13.781 -18.697  1.00  0.00    -0.359 N
ATOM      9  H5  UNL     1       9.387 -13.575 -19.510  1.00  0.00     0.162 HD
HETATM   10  C5  UNL     1       9.559 -14.137 -17.528  1.00  0.00     0.084 C
HETATM   11  C6  UNL     1       9.114 -15.462 -16.979  1.00  0.00     0.025 C
HETATM   12  C7  UNL     1       8.804 -15.435 -15.510  1.00  0.00     0.004 C
HETATM   13  C8  UNL     1       7.504 -14.793 -15.175  1.00  0.00     0.027 C
HETATM   14  C9  UNL     1       7.259 -13.425 -15.654  1.00  0.00     0.106 C
HETATM   15  C10 UNL     1       8.434 -12.545 -15.887  1.00  0.00     0.013 C
HETATM   16  C11 UNL     1       8.905 -11.828 -14.627  1.00  0.00     0.034 C
HETATM   17  C12 UNL     1       7.822 -11.323 -13.765  1.00  0.00     0.232 C
HETATM   18  N6  UNL     1       8.383 -10.301 -12.885  1.00  0.00    -0.074 N
ATOM     19  H61 UNL     1       9.299  -9.994 -13.213  1.00  0.00     0.277 HD
ATOM     20  H62 UNL     1       8.658 -10.698 -11.986  1.00  0.00     0.277 HD
HETATM   21  C13 UNL     1       7.494  -9.186 -12.709  1.00  0.00     0.259 C
HETATM   22  C14 UNL     1       6.744  -9.324 -11.396  1.00  0.00     0.259 C
HETATM   23  N7  UNL     1       5.504  -8.551 -11.564  1.00  0.00    -0.073 N
ATOM     24  H71 UNL     1       5.622  -7.693 -12.101  1.00  0.00     0.277 HD
ATOM     25  H72 UNL     1       5.174  -8.108 -10.706  1.00  0.00     0.277 HD
HETATM   26  C15 UNL     1       4.546  -9.492 -12.151  1.00  0.00     0.234 C
HETATM   27  C16 UNL     1       3.212  -8.861 -12.401  1.00  0.00     0.055 C
HETATM   28  C17 UNL     1       2.075  -9.792 -12.054  1.00  0.00     0.234 C
HETATM   29  N8  UNL     1       2.571 -11.169 -11.962  1.00  0.00    -0.074 N
ATOM     30  H81 UNL     1       2.555 -11.506 -10.999  1.00  0.00     0.277 HD
ATOM     31  H82 UNL     1       3.576 -11.213 -12.130  1.00  0.00     0.277 HD
HETATM   32  C18 UNL     1       1.861 -12.051 -12.832  1.00  0.00     0.251 C
HETATM   33  C19 UNL     1       2.742 -13.166 -13.393  1.00  0.00     0.150 C
HETATM   34  N9  UNL     1       2.085 -13.640 -14.598  1.00  0.00    -0.359 N
ATOM     35  H9  UNL     1       1.112 -13.934 -14.515  1.00  0.00     0.162 HD
HETATM   36  C20 UNL     1       2.674 -13.727 -15.864  1.00  0.00     0.232 C
HETATM   37  O2  UNL     1       2.039 -13.360 -16.886  1.00  0.00    -0.273 OA
HETATM   38  C21 UNL     1       9.653 -13.077 -16.499  1.00  0.00     0.032 C
ENDROOT
BRANCH   1  39
HETATM   39  C1  UNL     1       3.912 -15.256 -17.193  1.00  0.00     0.246 C
HETATM   40  N1  UNL     1       3.729 -14.846 -18.518  1.00  0.00    -0.061 NA
HETATM   41  O1  UNL     1       3.948 -16.471 -16.914  1.00  0.00    -0.276 OA
ENDBRANCH   1  39
TORSDOF 1
ENDMDL