MODEL 4
REMARK VINA RESULT: -6.841279350      2.391      7.533
REMARK  3 active torsions:
REMARK  status: ('A' for Active; 'I' for Inactive)
REMARK    1  A    between atoms: C2_2  and  C3_3
REMARK    2  A    between atoms: C6_8  and  C7_9
REMARK    3  A    between atoms: C20_39  and  C21_40
ROOT
HETATM    1  C7  UNL     1       7.784 -11.632 -17.192  1.00  0.00    -0.027 C
HETATM    2  C8  UNL     1       9.094 -12.390 -17.166  1.00  0.00     0.066 C
HETATM    3  C9  UNL     1       9.046 -13.506 -16.124  1.00  0.00     0.236 C
HETATM    4  N2  UNL     1       9.157 -14.805 -16.751  1.00  0.00    -0.073 N
ATOM      5  H21 UNL     1       8.661 -14.826 -17.642  1.00  0.00     0.277 HD
ATOM      6  H22 UNL     1       8.614 -15.505 -16.244  1.00  0.00     0.277 HD
HETATM    7  C10 UNL     1      10.529 -15.227 -16.909  1.00  0.00     0.259 C
HETATM    8  C11 UNL     1      10.607 -16.717 -16.652  1.00  0.00     0.259 C
HETATM    9  N3  UNL     1      10.135 -17.004 -15.308  1.00  0.00    -0.072 N
ATOM     10  H31 UNL     1       9.599 -16.226 -14.922  1.00  0.00     0.277 HD
ATOM     11  H32 UNL     1      10.899 -17.014 -14.633  1.00  0.00     0.277 HD
HETATM   12  C12 UNL     1       9.369 -18.259 -15.282  1.00  0.00     0.259 C
HETATM   13  C13 UNL     1       7.905 -17.911 -15.324  1.00  0.00     0.259 C
HETATM   14  N4  UNL     1       7.096 -19.084 -15.107  1.00  0.00    -0.072 N
ATOM     15  H41 UNL     1       7.011 -19.299 -14.113  1.00  0.00     0.277 HD
ATOM     16  H42 UNL     1       7.576 -19.930 -15.411  1.00  0.00     0.277 HD
HETATM   17  C14 UNL     1       5.788 -18.957 -15.737  1.00  0.00     0.259 C
HETATM   18  C15 UNL     1       4.739 -18.521 -14.767  1.00  0.00     0.259 C
HETATM   19  N5  UNL     1       3.871 -17.481 -15.286  1.00  0.00    -0.072 N
ATOM     20  H51 UNL     1       3.020 -17.394 -14.731  1.00  0.00     0.277 HD
ATOM     21  H52 UNL     1       3.452 -17.753 -16.175  1.00  0.00     0.277 HD
HETATM   22  C16 UNL     1       4.573 -16.208 -15.392  1.00  0.00     0.259 C
HETATM   23  C17 UNL     1       3.554 -15.165 -15.795  1.00  0.00     0.259 C
HETATM   24  N6  UNL     1       4.275 -13.958 -16.147  1.00  0.00    -0.072 N
ATOM     25  H61 UNL     1       4.828 -13.603 -15.367  1.00  0.00     0.277 HD
ATOM     26  H62 UNL     1       3.649 -13.160 -16.262  1.00  0.00     0.277 HD
HETATM   27  C18 UNL     1       5.079 -14.182 -17.318  1.00  0.00     0.251 C
HETATM   28  C19 UNL     1       4.920 -13.147 -18.382  1.00  0.00     0.142 C
HETATM   29  N7  UNL     1       5.518 -11.885 -18.106  1.00  0.00    -0.411 N
ATOM     30  H7  UNL     1       4.980 -11.094 -17.752  1.00  0.00     0.153 HD
HETATM   31  C20 UNL     1       6.934 -11.800 -18.361  1.00  0.00     0.115 C
ENDROOT
BRANCH   1  32
HETATM   32  C6  UNL     1       7.532 -10.874 -16.134  1.00  0.00     0.053 A
HETATM   33  C5  UNL     1       7.930  -9.583 -15.868  1.00  0.00     0.119 A
HETATM   34  N1  UNL     1       7.460  -9.184 -14.673  1.00  0.00    -0.350 N
HETATM   35  C4  UNL     1       6.763 -10.198 -14.165  1.00  0.00     0.101 A
ATOM     36  H1  UNL     1       7.609  -8.275 -14.238  1.00  0.00     0.166 HD
HETATM   37  C3  UNL     1       6.149 -10.184 -13.002  1.00  0.00     0.021 C
HETATM   38  N8  UNL     1       6.810 -11.214 -15.048  1.00  0.00    -0.341 N
ATOM     39  H8  UNL     1       6.358 -12.119 -14.912  1.00  0.00     0.167 HD
BRANCH  37  40
HETATM   40  C2  UNL     1       6.200  -8.984 -12.156  1.00  0.00     0.026 C
HETATM   41  C1  UNL     1       7.368  -9.099 -11.202  1.00  0.00     0.009 C
ENDBRANCH  37  40
ENDBRANCH   1  32
BRANCH  31  42
HETATM   42  C21 UNL     1       7.254 -10.843 -19.489  1.00  0.00    -0.027 C
HETATM   43  C22 UNL     1       8.627 -10.267 -19.450  1.00  0.00     0.016 C
HETATM   44  C23 UNL     1       6.279  -9.683 -19.465  1.00  0.00     0.016 C
HETATM   45  C24 UNL     1       7.070 -11.521 -20.829  1.00  0.00     0.016 C
ENDBRANCH  31  42
TORSDOF 3
ENDMDL