MODEL 5
REMARK VINA RESULT: -9.179650424      1.460      1.506
REMARK  2 active torsions:
REMARK  status: ('A' for Active; 'I' for Inactive)
REMARK    1  A    between atoms: C3_4  and  C4_5
REMARK    2  A    between atoms: C4_5  and  N2_6
REMARK       I    between atoms: N2_6  and  C5_8
REMARK       I    between atoms: C5_8  and  N3_10
ROOT
HETATM    1  N1  UNL     1       8.457 -21.035 -16.500  1.00  0.00    -0.191 NA
HETATM    2  C1  UNL     1       7.485 -20.820 -15.892  1.00  0.00     0.102 C
HETATM    3  C2  UNL     1       6.279 -20.592 -15.134  1.00  0.00     0.088 A
HETATM    4  C3  UNL     1       5.578 -19.396 -15.150  1.00  0.00     0.050 A
HETATM    5  N7  UNL     1       4.470 -19.635 -14.383  1.00  0.00    -0.342 N
ATOM      6  H7  UNL     1       3.735 -18.954 -14.191  1.00  0.00     0.167 HD
HETATM    7  C16 UNL     1       4.490 -20.913 -13.914  1.00  0.00     0.127 A
HETATM    8  N8  UNL     1       3.672 -21.621 -13.114  1.00  0.00    -0.293 N
ATOM      9  H8  UNL     1       2.831 -21.178 -12.746  1.00  0.00     0.172 HD
HETATM   10  C17 UNL     1       3.938 -22.902 -12.786  1.00  0.00     0.328 A
HETATM   11  O3  UNL     1       3.154 -23.576 -12.024  1.00  0.00    -0.247 OA
HETATM   12  N9  UNL     1       5.055 -23.552 -13.251  1.00  0.00    -0.275 N
ATOM     13  H9  UNL     1       5.253 -24.522 -13.008  1.00  0.00     0.173 HD
HETATM   14  C18 UNL     1       5.872 -22.839 -14.044  1.00  0.00     0.265 A
HETATM   15  O4  UNL     1       6.897 -23.383 -14.494  1.00  0.00    -0.267 OA
HETATM   16  C19 UNL     1       5.626 -21.542 -14.385  1.00  0.00     0.099 A
ENDROOT
BRANCH   4  17
HETATM   17  C4  UNL     1       6.002 -18.051 -15.617  1.00  0.00     0.183 C
BRANCH  17  18
HETATM   18  N2  UNL     1       5.538 -16.979 -14.801  1.00  0.00    -0.337 N
HETATM   19  C5  UNL     1       6.297 -15.872 -14.412  1.00  0.00     0.324 C
HETATM   20  O1  UNL     1       7.533 -15.846 -14.676  1.00  0.00    -0.247 OA
HETATM   21  N3  UNL     1       5.726 -14.770 -13.735  1.00  0.00    -0.286 N
HETATM   22  C6  UNL     1       4.273 -14.584 -13.757  1.00  0.00     0.179 C
HETATM   23  C15 UNL     1       6.589 -13.904 -12.978  1.00  0.00     0.233 C
HETATM   24  C7  UNL     1       3.897 -13.242 -14.377  1.00  0.00     0.075 C
HETATM   25  N4  UNL     1       2.931 -12.465 -13.714  1.00  0.00    -0.401 N
HETATM   26  C8  UNL     1       3.086 -11.045 -13.794  1.00  0.00     0.120 C
ATOM     27  H4  UNL     1       2.159 -12.893 -13.203  1.00  0.00     0.158 HD
HETATM   28  C9  UNL     1       3.596 -10.493 -15.076  1.00  0.00     0.047 C
HETATM   29  C10 UNL     1       4.770  -9.573 -14.779  1.00  0.00     0.234 C
HETATM   30  N5  UNL     1       5.632  -9.400 -15.914  1.00  0.00    -0.074 N
HETATM   31  C11 UNL     1       6.968  -8.940 -15.462  1.00  0.00     0.251 C
ATOM     32  H52 UNL     1       5.689 -10.244 -16.484  1.00  0.00     0.277 HD
ATOM     33  H51 UNL     1       5.226  -8.777 -16.612  1.00  0.00     0.277 HD
HETATM   34  C12 UNL     1       7.908 -10.100 -15.301  1.00  0.00     0.141 C
HETATM   35  N6  UNL     1       8.432 -10.170 -13.981  1.00  0.00    -0.418 N
HETATM   36  C13 UNL     1       8.908 -11.497 -13.566  1.00  0.00     0.140 C
ATOM     37  H6  UNL     1       8.476  -9.358 -13.366  1.00  0.00     0.153 HD
HETATM   38  C14 UNL     1       7.945 -12.483 -14.116  1.00  0.00     0.195 C
HETATM   39  O2  UNL     1       7.852 -13.699 -13.502  1.00  0.00    -0.345 OA
ATOM     40  H2  UNL     1       4.573 -17.024 -14.473  1.00  0.00     0.164 HD
ENDBRANCH  17  18
ENDBRANCH   4  17
TORSDOF 2
ENDMDL