MODEL 5
REMARK VINA RESULT: -7.679554052      2.598      3.162
REMARK  2 active torsions:
REMARK  status: ('A' for Active; 'I' for Inactive)
REMARK    1  A    between atoms: N8_35  and  C16_36
REMARK    2  A    between atoms: C16_36  and  C17_37
ROOT
HETATM    1  O1  UNL     1      10.157 -16.178 -17.001  1.00  0.00    -0.245 OA
HETATM    2  C1  UNL     1       9.002 -15.646 -16.811  1.00  0.00     0.337 C
HETATM    3  N1  UNL     1       8.744 -14.445 -17.522  1.00  0.00    -0.256 N
ATOM      4  H1  UNL     1       9.093 -14.384 -18.479  1.00  0.00     0.191 HD
HETATM    5  N2  UNL     1       8.060 -13.350 -17.025  1.00  0.00    -0.331 N
ATOM      6  H2  UNL     1       7.096 -13.141 -17.285  1.00  0.00     0.180 HD
HETATM    7  C2  UNL     1       8.807 -12.536 -16.123  1.00  0.00     0.158 C
HETATM    8  C3  UNL     1       9.704 -11.542 -16.824  1.00  0.00     0.135 C
HETATM    9  N3  UNL     1       9.001 -10.406 -17.329  1.00  0.00    -0.420 N
ATOM     10  H3  UNL     1       8.664 -10.352 -18.290  1.00  0.00     0.153 HD
HETATM   11  C4  UNL     1       8.806  -9.350 -16.382  1.00  0.00     0.115 C
HETATM   12  C5  UNL     1       7.603  -8.539 -16.849  1.00  0.00     0.046 C
HETATM   13  C6  UNL     1       6.959  -7.772 -15.740  1.00  0.00     0.234 C
HETATM   14  N4  UNL     1       5.580  -7.482 -16.155  1.00  0.00    -0.073 N
ATOM     15  H41 UNL     1       5.358  -7.944 -17.037  1.00  0.00     0.277 HD
ATOM     16  H42 UNL     1       5.482  -6.510 -16.449  1.00  0.00     0.277 HD
HETATM   17  C7  UNL     1       4.623  -7.813 -15.147  1.00  0.00     0.259 C
HETATM   18  C8  UNL     1       3.291  -8.254 -15.715  1.00  0.00     0.259 C
HETATM   19  N5  UNL     1       2.742  -9.396 -15.019  1.00  0.00    -0.072 N
ATOM     20  H51 UNL     1       1.889  -9.163 -14.510  1.00  0.00     0.277 HD
ATOM     21  H52 UNL     1       3.317  -9.674 -14.224  1.00  0.00     0.277 HD
HETATM   22  C9  UNL     1       2.541 -10.477 -15.945  1.00  0.00     0.259 C
HETATM   23  C10 UNL     1       1.636 -11.539 -15.334  1.00  0.00     0.259 C
HETATM   24  N6  UNL     1       1.910 -12.826 -15.950  1.00  0.00    -0.072 N
ATOM     25  H61 UNL     1       2.815 -12.839 -16.421  1.00  0.00     0.277 HD
ATOM     26  H62 UNL     1       1.317 -12.995 -16.762  1.00  0.00     0.277 HD
HETATM   27  C11 UNL     1       1.797 -13.878 -14.969  1.00  0.00     0.259 C
HETATM   28  C12 UNL     1       2.847 -14.959 -15.204  1.00  0.00     0.259 C
HETATM   29  N7  UNL     1       4.186 -14.415 -15.052  1.00  0.00    -0.073 N
ATOM     30  H71 UNL     1       4.184 -13.451 -14.717  1.00  0.00     0.277 HD
ATOM     31  H72 UNL     1       4.648 -14.249 -15.945  1.00  0.00     0.277 HD
HETATM   32  C13 UNL     1       4.937 -15.309 -14.188  1.00  0.00     0.234 C
HETATM   33  C14 UNL     1       6.428 -15.197 -14.436  1.00  0.00     0.047 C
HETATM   34  C15 UNL     1       6.708 -15.879 -15.760  1.00  0.00     0.129 C
HETATM   35  N8  UNL     1       8.069 -16.262 -15.930  1.00  0.00    -0.329 N
ENDROOT
BRANCH  35  36
HETATM   36  C16 UNL     1       8.572 -17.376 -15.146  1.00  0.00     0.166 C
BRANCH  36  37
HETATM   37  C17 UNL     1       7.878 -18.629 -15.403  1.00  0.00    -0.040 A
HETATM   38  C18 UNL     1       6.565 -18.788 -15.051  1.00  0.00     0.009 A
HETATM   39  C19 UNL     1       5.876 -19.979 -15.285  1.00  0.00     0.001 A
HETATM   40  C20 UNL     1       6.551 -21.019 -15.890  1.00  0.00     0.000 A
HETATM   41  C21 UNL     1       7.874 -20.886 -16.254  1.00  0.00     0.001 A
HETATM   42  C22 UNL     1       8.525 -19.674 -16.001  1.00  0.00     0.009 A
ENDBRANCH  36  37
ENDBRANCH  35  36
TORSDOF 2
ENDMDL