MODEL 2
REMARK VINA RESULT: -5.862569695      2.784      5.029
REMARK  2 active torsions:
REMARK  status: ('A' for Active; 'I' for Inactive)
REMARK    1  A    between atoms: N5_22  and  C12_23
REMARK    2  A    between atoms: C12_23  and  C13_24
ROOT
HETATM    1  C1  UNL     1       4.826  -8.954 -20.785  1.00  0.00     0.145 C
HETATM    2  N1  UNL     1       4.258  -9.531 -19.582  1.00  0.00    -0.399 N
ATOM      3  H1  UNL     1       3.331  -9.254 -19.258  1.00  0.00     0.158 HD
HETATM    4  C2  UNL     1       4.950 -10.398 -18.932  1.00  0.00     0.009 C
HETATM    5  C3  UNL     1       6.305 -10.845 -19.350  1.00  0.00     0.081 C
HETATM    6  C4  UNL     1       7.321 -10.113 -18.496  1.00  0.00     0.238 C
HETATM    7  N2  UNL     1       8.676 -10.352 -18.978  1.00  0.00    -0.073 N
ATOM      8  H21 UNL     1       9.034  -9.577 -19.537  1.00  0.00     0.277 HD
ATOM      9  H22 UNL     1       8.713 -11.073 -19.698  1.00  0.00     0.277 HD
HETATM   10  C5  UNL     1       9.513 -10.652 -17.855  1.00  0.00     0.259 C
HETATM   11  C6  UNL     1      10.373 -11.863 -18.174  1.00  0.00     0.259 C
HETATM   12  N3  UNL     1      11.183 -12.119 -16.990  1.00  0.00    -0.073 N
ATOM     13  H31 UNL     1      10.646 -12.001 -16.132  1.00  0.00     0.277 HD
ATOM     14  H32 UNL     1      11.876 -11.385 -16.840  1.00  0.00     0.277 HD
HETATM   15  C7  UNL     1      11.807 -13.451 -17.064  1.00  0.00     0.234 C
HETATM   16  C8  UNL     1      10.738 -14.525 -17.060  1.00  0.00     0.046 C
HETATM   17  C9  UNL     1      11.108 -15.704 -16.188  1.00  0.00     0.115 C
HETATM   18  N4  UNL     1      10.744 -16.896 -16.873  1.00  0.00    -0.419 N
ATOM     19  H4  UNL     1      11.140 -17.137 -17.782  1.00  0.00     0.153 HD
HETATM   20  C10 UNL     1       9.796 -17.732 -16.221  1.00  0.00     0.144 C
HETATM   21  C11 UNL     1       8.855 -17.006 -15.284  1.00  0.00     0.292 C
HETATM   22  N5  UNL     1       7.541 -17.570 -15.436  1.00  0.00     0.101 N
HETATM   23  C14 UNL     1       6.554 -16.741 -14.784  1.00  0.00     0.300 C
HETATM   24  C15 UNL     1       5.192 -17.331 -14.758  1.00  0.00     0.262 C
HETATM   25  N6  UNL     1       4.417 -17.046 -15.951  1.00  0.00    -0.072 N
ATOM     26  H61 UNL     1       4.455 -17.819 -16.615  1.00  0.00     0.277 HD
ATOM     27  H62 UNL     1       4.860 -16.326 -16.521  1.00  0.00     0.277 HD
HETATM   28  C16 UNL     1       3.044 -16.694 -15.621  1.00  0.00     0.259 C
HETATM   29  C17 UNL     1       3.026 -15.257 -15.127  1.00  0.00     0.259 C
HETATM   30  N7  UNL     1       3.277 -14.427 -16.292  1.00  0.00    -0.073 N
ATOM     31  H71 UNL     1       3.941 -14.847 -16.943  1.00  0.00     0.277 HD
ATOM     32  H72 UNL     1       3.816 -13.589 -16.073  1.00  0.00     0.277 HD
HETATM   33  C18 UNL     1       2.014 -14.135 -16.897  1.00  0.00     0.234 C
HETATM   34  C19 UNL     1       2.016 -12.874 -17.724  1.00  0.00     0.055 C
HETATM   35  C20 UNL     1       2.199 -11.636 -16.899  1.00  0.00     0.234 C
HETATM   36  N8  UNL     1       3.002 -10.662 -17.571  1.00  0.00    -0.070 N
ATOM     37  H81 UNL     1       2.902  -9.751 -17.123  1.00  0.00     0.277 HD
ATOM     38  H82 UNL     1       2.609 -10.451 -18.488  1.00  0.00     0.277 HD
HETATM   39  C21 UNL     1       4.390 -11.010 -17.689  1.00  0.00     0.284 C
ENDROOT
BRANCH  22  40
HETATM   40  C12 UNL     1       7.427 -18.951 -15.142  1.00  0.00     0.385 C
BRANCH  40  41
HETATM   41  C13 UNL     1       7.198 -19.858 -16.270  1.00  0.00     0.202 C
HETATM   42  O1  UNL     1       6.311 -19.459 -17.103  1.00  0.00    -0.647 OA
HETATM   43  O2  UNL     1       7.803 -21.050 -16.524  1.00  0.00    -0.647 OA
ENDBRANCH  40  41
ENDBRANCH  22  40
TORSDOF 2
ENDMDL