MODEL 5
REMARK VINA RESULT: -9.611643122      1.089      1.796
REMARK  3 active torsions:
REMARK  status: ('A' for Active; 'I' for Inactive)
REMARK    1  A    between atoms: N1_1  and  C1_4
REMARK    2  A    between atoms: C6_9  and  C7_10
REMARK    3  A    between atoms: C7_10  and  N2_11
ROOT
HETATM    1  N2  UNL     1       7.245 -16.418 -15.214  1.00  0.00    -0.386 N
HETATM    2  C8  UNL     1       6.694 -15.875 -14.031  1.00  0.00     0.149 C
HETATM    3  C9  UNL     1       6.154 -14.483 -14.353  1.00  0.00     0.252 C
HETATM    4  N3  UNL     1       5.951 -13.748 -13.109  1.00  0.00    -0.072 N
ATOM      5  H31 UNL     1       6.510 -14.128 -12.346  1.00  0.00     0.277 HD
ATOM      6  H32 UNL     1       5.025 -13.916 -12.715  1.00  0.00     0.277 HD
HETATM    7  C10 UNL     1       6.206 -12.320 -13.314  1.00  0.00     0.251 C
HETATM    8  C11 UNL     1       5.462 -11.545 -12.284  1.00  0.00     0.148 C
HETATM    9  N4  UNL     1       4.536 -10.587 -12.823  1.00  0.00    -0.379 N
ATOM     10  H4  UNL     1       3.547 -10.784 -12.672  1.00  0.00     0.160 HD
HETATM   11  C12 UNL     1       4.802  -9.534 -13.460  1.00  0.00     0.114 C
HETATM   12  N5  UNL     1       3.833  -8.624 -13.969  1.00  0.00    -0.086 NA
HETATM   13  C13 UNL     1       6.216  -9.169 -13.728  1.00  0.00     0.304 C
HETATM   14  N6  UNL     1       6.395  -9.219 -15.167  1.00  0.00    -0.069 N
ATOM     15  H61 UNL     1       5.715  -8.621 -15.637  1.00  0.00     0.277 HD
ATOM     16  H62 UNL     1       6.107 -10.125 -15.536  1.00  0.00     0.277 HD
HETATM   17  C14 UNL     1       7.725  -8.900 -15.586  1.00  0.00     0.234 C
HETATM   18  C15 UNL     1       8.698 -10.044 -15.374  1.00  0.00     0.055 C
HETATM   19  C16 UNL     1       8.512 -11.127 -16.416  1.00  0.00     0.234 C
HETATM   20  N7  UNL     1       9.822 -11.651 -16.733  1.00  0.00    -0.073 N
ATOM     21  H71 UNL     1      10.291 -11.993 -15.895  1.00  0.00     0.277 HD
ATOM     22  H72 UNL     1      10.464 -10.901 -16.987  1.00  0.00     0.277 HD
HETATM   23  C17 UNL     1       9.783 -12.667 -17.755  1.00  0.00     0.259 C
HETATM   24  C18 UNL     1       8.919 -13.842 -17.375  1.00  0.00     0.259 C
HETATM   25  N8  UNL     1       9.522 -14.628 -16.302  1.00  0.00    -0.072 N
ATOM     26  H81 UNL     1       9.227 -14.297 -15.383  1.00  0.00     0.277 HD
ATOM     27  H82 UNL     1      10.522 -14.447 -16.222  1.00  0.00     0.277 HD
HETATM   28  C19 UNL     1       9.248 -16.048 -16.470  1.00  0.00     0.252 C
HETATM   29  C20 UNL     1       8.637 -16.658 -15.226  1.00  0.00     0.149 C
ENDROOT
BRANCH   1  30
HETATM   30  C7  UNL     1       6.432 -17.258 -15.999  1.00  0.00     0.097 C
BRANCH  30  31
HETATM   31  C6  UNL     1       6.240 -18.641 -15.518  1.00  0.00    -0.020 A
HETATM   32  C5  UNL     1       5.156 -19.026 -14.767  1.00  0.00     0.026 A
HETATM   33  C4  UNL     1       4.974 -20.319 -14.321  1.00  0.00    -0.009 A
HETATM   34  C3  UNL     1       3.875 -20.676 -13.569  1.00  0.00     0.017 A
HETATM   35  C23 UNL     1       5.894 -21.286 -14.622  1.00  0.00     0.044 A
HETATM   36  C2  UNL     1       3.737 -21.986 -13.145  1.00  0.00     0.049 A
HETATM   37  C1  UNL     1       4.681 -22.938 -13.464  1.00  0.00     0.099 A
HETATM   38  N9  UNL     1       5.741 -22.566 -14.197  1.00  0.00    -0.342 N
ATOM     39  H9  UNL     1       6.447 -23.261 -14.441  1.00  0.00     0.167 HD
HETATM   40  C22 UNL     1       7.003 -20.931 -15.379  1.00  0.00     0.031 A
HETATM   41  C21 UNL     1       7.166 -19.616 -15.820  1.00  0.00     0.015 A
BRANCH  37  42
HETATM   42  N1  UNL     1       4.537 -24.175 -13.055  1.00  0.00    -0.385 N
ATOM     43  H12 UNL     1       5.320 -24.829 -13.063  1.00  0.00     0.157 HD
ATOM     44  H11 UNL     1       3.633 -24.505 -12.719  1.00  0.00     0.157 HD
ENDBRANCH  37  42
ENDBRANCH  30  31
ENDBRANCH   1  30
TORSDOF 3
ENDMDL