MODEL 4
REMARK VINA RESULT: -7.437084479      3.199      6.844
REMARK  5 active torsions:
REMARK  status: ('A' for Active; 'I' for Inactive)
REMARK    1  A    between atoms: C3_3  and  N1_4
REMARK    2  A    between atoms: C11_21  and  N6_22
REMARK    3  A    between atoms: N6_22  and  C12_24
REMARK    4  A    between atoms: C16_33  and  N9_34
REMARK       I    between atoms: N9_34  and  C17_36
REMARK       I    between atoms: C17_36  and  N10_38
REMARK    5  A    between atoms: N10_38  and  C18_40
ROOT
HETATM    1  C1  UNL     1       5.480 -14.005 -16.638  1.00  0.00     0.056 C
HETATM    2  C2  UNL     1       5.659 -15.365 -16.134  1.00  0.00     0.029 A
HETATM    3  C3  UNL     1       6.820 -15.729 -15.524  1.00  0.00     0.147 A
HETATM    4  N5  UNL     1       6.994 -17.003 -15.063  1.00  0.00    -0.175 N
ATOM      5  H5  UNL     1       7.865 -17.277 -14.607  1.00  0.00     0.186 HD
HETATM    6  C11 UNL     1       6.009 -17.880 -15.221  1.00  0.00     0.681 A
HETATM    7  N8  UNL     1       4.861 -17.521 -15.824  1.00  0.00    -0.176 N
ATOM      8  H8  UNL     1       4.130 -18.225 -15.926  1.00  0.00     0.186 HD
HETATM    9  C16 UNL     1       4.621 -16.290 -16.300  1.00  0.00     0.134 A
ENDROOT
BRANCH   3  10
HETATM   10  N1  UNL     1       7.936 -14.874 -15.290  1.00  0.00    -0.275 N
HETATM   11  C4  UNL     1       8.761 -14.569 -16.398  1.00  0.00     0.195 C
HETATM   12  C5  UNL     1       9.652 -13.376 -16.370  1.00  0.00     0.082 C
HETATM   13  N2  UNL     1       9.082 -12.116 -16.400  1.00  0.00    -0.379 N
HETATM   14  C6  UNL     1       9.583 -10.979 -15.812  1.00  0.00     0.087 C
ATOM     15  H2  UNL     1       8.202 -12.021 -16.908  1.00  0.00     0.164 HD
HETATM   16  C7  UNL     1       9.423 -10.599 -14.419  1.00  0.00     0.276 C
HETATM   17  N3  UNL     1       8.113 -10.708 -13.798  1.00  0.00    -0.071 N
HETATM   18  C8  UNL     1       7.823 -12.063 -13.716  1.00  0.00     0.234 C
ATOM     19  H32 UNL     1       8.052 -10.229 -12.901  1.00  0.00     0.277 HD
ATOM     20  H31 UNL     1       7.392 -10.171 -14.280  1.00  0.00     0.277 HD
HETATM   21  C9  UNL     1       6.925 -12.691 -12.704  1.00  0.00     0.048 C
HETATM   22  C10 UNL     1       6.978 -14.178 -13.172  1.00  0.00     0.141 C
HETATM   23  N4  UNL     1       8.084 -14.478 -13.987  1.00  0.00    -0.332 N
ATOM     24  H4  UNL     1       9.023 -14.399 -13.597  1.00  0.00     0.180 HD
ENDBRANCH   3  10
BRANCH   9  25
HETATM   25  N9  UNL     1       3.569 -15.890 -16.875  1.00  0.00    -0.294 N
HETATM   26  C17 UNL     1       2.257 -15.841 -16.401  1.00  0.00     0.322 C
HETATM   27  O1  UNL     1       1.918 -15.302 -15.315  1.00  0.00    -0.247 OA
HETATM   28  N10 UNL     1       1.218 -16.426 -17.170  1.00  0.00    -0.335 N
ATOM     29  H10 UNL     1       1.446 -16.876 -18.057  1.00  0.00     0.165 HD
ATOM     30  H9  UNL     1       3.698 -15.552 -17.829  1.00  0.00     0.172 HD
BRANCH  28  31
HETATM   31  C18 UNL     1      -0.159 -16.398 -16.721  1.00  0.00     0.023 C
HETATM   32  C19 UNL     1      -0.347 -17.399 -15.627  1.00  0.00     0.037 C
HETATM   33  C20 UNL     1      -1.052 -16.788 -17.903  1.00  0.00     0.037 C
HETATM   34  C21 UNL     1      -0.602 -15.054 -16.248  1.00  0.00     0.037 C
ENDBRANCH  28  31
ENDBRANCH   9  25
BRANCH   6  35
HETATM   35  N6  UNL     1       6.083 -19.105 -14.825  1.00  0.00    -0.220 N
ATOM     36  H6  UNL     1       6.195 -19.303 -13.831  1.00  0.00     0.178 HD
BRANCH  35  37
HETATM   37  C12 UNL     1       6.012 -20.189 -15.747  1.00  0.00     0.126 C
HETATM   38  C13 UNL     1       6.120 -21.555 -15.134  1.00  0.00     0.055 C
HETATM   39  C14 UNL     1       7.539 -21.948 -15.369  1.00  0.00     0.234 C
HETATM   40  N7  UNL     1       8.017 -21.231 -16.511  1.00  0.00    -0.073 N
HETATM   41  C15 UNL     1       7.152 -20.099 -16.711  1.00  0.00     0.257 C
ATOM     42  H72 UNL     1       9.000 -20.970 -16.433  1.00  0.00     0.277 HD
ATOM     43  H71 UNL     1       8.099 -21.818 -17.341  1.00  0.00     0.277 HD
ENDBRANCH  35  37
ENDBRANCH   6  35
TORSDOF 5
ENDMDL