MODEL 1
REMARK VINA RESULT: -8.442230884      0.000      0.000
REMARK  2 active torsions:
REMARK  status: ('A' for Active; 'I' for Inactive)
REMARK       I    between atoms: C2_2  and  N1_4
REMARK    1  A    between atoms: N1_4  and  C3_6
REMARK    2  A    between atoms: C15_29  and  C16_30
ROOT
HETATM    1  C3  UNL     1       4.289 -15.150 -14.735  1.00  0.00     0.176 C
HETATM    2  C4  UNL     1       5.010 -14.309 -13.727  1.00  0.00     0.036 C
HETATM    3  C5  UNL     1       4.965 -12.852 -13.973  1.00  0.00     0.030 C
HETATM    4  C6  UNL     1       6.359 -12.267 -14.140  1.00  0.00     0.232 C
HETATM    5  N2  UNL     1       6.483 -11.760 -15.487  1.00  0.00    -0.075 N
ATOM      6  H21 UNL     1       5.590 -11.808 -15.978  1.00  0.00     0.277 HD
ATOM      7  H22 UNL     1       7.028 -12.397 -16.067  1.00  0.00     0.277 HD
HETATM    8  C7  UNL     1       7.029 -10.422 -15.539  1.00  0.00     0.233 C
HETATM    9  C8  UNL     1       8.177 -10.432 -16.527  1.00  0.00     0.055 C
HETATM   10  C9  UNL     1       9.402  -9.911 -15.783  1.00  0.00     0.234 C
HETATM   11  N3  UNL     1      10.563 -10.363 -16.524  1.00  0.00    -0.073 N
ATOM     12  H31 UNL     1      11.341  -9.706 -16.472  1.00  0.00     0.277 HD
ATOM     13  H32 UNL     1      10.420 -10.331 -17.533  1.00  0.00     0.277 HD
HETATM   14  C10 UNL     1      10.922 -11.689 -16.054  1.00  0.00     0.259 C
HETATM   15  C11 UNL     1      11.550 -12.482 -17.170  1.00  0.00     0.259 C
HETATM   16  N4  UNL     1      10.856 -13.752 -17.350  1.00  0.00    -0.073 N
ATOM     17  H41 UNL     1      10.759 -13.992 -18.336  1.00  0.00     0.277 HD
ATOM     18  H42 UNL     1       9.867 -13.679 -17.110  1.00  0.00     0.277 HD
HETATM   19  C12 UNL     1      11.514 -14.813 -16.600  1.00  0.00     0.233 C
HETATM   20  C13 UNL     1      11.029 -16.124 -17.142  1.00  0.00     0.045 C
HETATM   21  C14 UNL     1      10.072 -16.788 -16.190  1.00  0.00     0.132 C
HETATM   22  N5  UNL     1       8.771 -16.133 -16.256  1.00  0.00    -0.146 NA
HETATM   23  N6  UNL     1       8.088 -16.479 -15.083  1.00  0.00    -0.122 NA
HETATM   24  C15 UNL     1       6.749 -16.931 -15.320  1.00  0.00     0.201 C
HETATM   25  N7  UNL     1       6.047 -16.162 -16.320  1.00  0.00    -0.339 N
ATOM     26  H7  UNL     1       6.315 -16.288 -17.295  1.00  0.00     0.164 HD
HETATM   27  C21 UNL     1       5.007 -15.243 -16.028  1.00  0.00     0.241 C
HETATM   28  O3  UNL     1       4.668 -14.446 -16.934  1.00  0.00    -0.271 OA
ENDROOT
BRANCH  24  29
HETATM   29  C16 UNL     1       6.823 -18.369 -15.808  1.00  0.00     0.049 C
HETATM   30  C17 UNL     1       5.522 -19.036 -15.349  1.00  0.00     0.012 C
HETATM   31  C18 UNL     1       5.821 -20.518 -15.216  1.00  0.00     0.027 C
HETATM   32  C19 UNL     1       6.935 -20.840 -16.193  1.00  0.00     0.167 C
HETATM   33  O2  UNL     1       8.136 -20.317 -15.751  1.00  0.00    -0.391 OA
HETATM   34  C20 UNL     1       8.000 -19.073 -15.168  1.00  0.00     0.175 C
ENDBRANCH  24  29
BRANCH   1  35
HETATM   35  N1  UNL     1       2.948 -14.744 -14.989  1.00  0.00    -0.348 N
HETATM   36  C2  UNL     1       1.901 -15.541 -15.454  1.00  0.00     0.214 C
HETATM   37  C1  UNL     1       0.524 -15.048 -15.697  1.00  0.00     0.117 C
HETATM   38  O1  UNL     1       2.122 -16.756 -15.688  1.00  0.00    -0.274 OA
ATOM     39  H1  UNL     1       2.729 -13.764 -14.811  1.00  0.00     0.163 HD
ENDBRANCH   1  35
TORSDOF 2
ENDMDL