MODEL 5
REMARK VINA RESULT: -7.732618480      2.367      4.183
REMARK  5 active torsions:
REMARK  status: ('A' for Active; 'I' for Inactive)
REMARK    1  A    between atoms: N1_1  and  S1_4
REMARK    2  A    between atoms: S1_4  and  C1_7
REMARK    3  A    between atoms: C4_10  and  N2_11
REMARK    4  A    between atoms: N2_11  and  C5_13
REMARK    5  A    between atoms: C5_13  and  N3_15
ROOT
HETATM    1  N3  UNL     1       7.703 -15.312 -15.583  1.00  0.00    -0.266 N
HETATM    2  C6  UNL     1       8.735 -14.321 -15.667  1.00  0.00     0.153 C
HETATM    3  C7  UNL     1       8.170 -12.907 -15.670  1.00  0.00     0.049 C
HETATM    4  C8  UNL     1       8.871 -11.992 -14.724  1.00  0.00     0.234 C
HETATM    5  N4  UNL     1       8.222 -11.883 -13.427  1.00  0.00    -0.071 N
ATOM      6  H41 UNL     1       8.821 -11.412 -12.750  1.00  0.00     0.277 HD
ATOM      7  H42 UNL     1       8.150 -12.792 -12.969  1.00  0.00     0.277 HD
HETATM    8  C9  UNL     1       6.949 -11.248 -13.528  1.00  0.00     0.277 C
HETATM    9  C10 UNL     1       5.847 -11.974 -12.774  1.00  0.00     0.092 C
HETATM   10  N5  UNL     1       4.773 -12.209 -13.633  1.00  0.00    -0.348 N
HETATM   11  C11 UNL     1       3.877 -11.172 -13.922  1.00  0.00     0.084 C
HETATM   12  C12 UNL     1       2.595 -11.755 -14.478  1.00  0.00     0.159 C
HETATM   13  N6  UNL     1       2.778 -12.719 -15.495  1.00  0.00    -0.413 N
ATOM     14  H6  UNL     1       2.151 -12.796 -16.297  1.00  0.00     0.153 HD
HETATM   15  C13 UNL     1       3.927 -13.592 -15.313  1.00  0.00     0.161 C
HETATM   16  C14 UNL     1       4.305 -13.531 -13.834  1.00  0.00     0.205 C
HETATM   17  N7  UNL     1       5.019 -14.596 -13.334  1.00  0.00    -0.362 N
ATOM     18  H7  UNL     1       4.671 -15.039 -12.484  1.00  0.00     0.162 HD
HETATM   19  C15 UNL     1       6.174 -15.112 -13.895  1.00  0.00     0.194 C
HETATM   20  N8  UNL     1       6.368 -15.029 -15.305  1.00  0.00    -0.292 N
ATOM     21  H8  UNL     1       5.651 -14.801 -15.993  1.00  0.00     0.188 HD
ENDROOT
BRANCH   1  22
HETATM   22  C5  UNL     1       8.089 -16.691 -15.802  1.00  0.00     0.193 C
HETATM   23  S2  UNL     1       9.613 -17.072 -15.435  1.00  0.00    -0.039 SA
BRANCH  22  24
HETATM   24  N2  UNL     1       7.180 -17.635 -16.264  1.00  0.00    -0.332 N
ATOM     25  H2  UNL     1       6.540 -17.338 -17.000  1.00  0.00     0.168 HD
BRANCH  24  26
HETATM   26  C4  UNL     1       7.057 -18.966 -15.814  1.00  0.00     0.034 A
HETATM   27  C3  UNL     1       8.053 -19.890 -15.827  1.00  0.00     0.031 A
HETATM   28  C2  UNL     1       7.852 -21.178 -15.330  1.00  0.00     0.027 A
HETATM   29  C1  UNL     1       6.652 -21.580 -14.808  1.00  0.00     0.079 A
HETATM   30  C17 UNL     1       5.639 -20.651 -14.792  1.00  0.00     0.027 A
HETATM   31  C16 UNL     1       5.831 -19.390 -15.276  1.00  0.00     0.031 A
BRANCH  29  32
HETATM   32  S1  UNL     1       6.434 -23.202 -14.195  1.00  0.00     0.256 S
HETATM   33  O1  UNL     1       7.367 -23.446 -13.061  1.00  0.00    -0.201 OA
HETATM   34  O2  UNL     1       5.000 -23.374 -13.792  1.00  0.00    -0.201 OA
BRANCH  32  35
HETATM   35  N1  UNL     1       6.784 -24.314 -15.448  1.00  0.00    -0.324 N
ATOM     36  H12 UNL     1       6.770 -24.091 -16.443  1.00  0.00     0.169 HD
ATOM     37  H11 UNL     1       7.004 -25.219 -15.033  1.00  0.00     0.169 HD
ENDBRANCH  32  35
ENDBRANCH  29  32
ENDBRANCH  24  26
ENDBRANCH  22  24
ENDBRANCH   1  22
TORSDOF 5
ENDMDL