MODEL 2
REMARK VINA RESULT: -8.571234200      1.650      1.753
REMARK  3 active torsions:
REMARK  status: ('A' for Active; 'I' for Inactive)
REMARK    1  A    between atoms: N1_1  and  C1_5
REMARK       I    between atoms: N2_10  and  C6_11
REMARK       I    between atoms: C6_11  and  N3_13
REMARK    2  A    between atoms: N3_13  and  C7_15
REMARK    3  A    between atoms: C7_15  and  C8_16
REMARK       I    between atoms: C8_16  and  N4_18
ROOT
HETATM    1  C8  UNL     1      -5.386  17.170 -15.214  1.00  0.00     0.237 C
HETATM    2  O2  UNL     1      -6.562  17.572 -15.343  1.00  0.00    -0.272 OA
HETATM    3  N4  UNL     1      -5.085  15.802 -15.398  1.00  0.00    -0.348 N
HETATM    4  C9  UNL     1      -3.740  15.334 -15.246  1.00  0.00     0.153 C
HETATM    5  C10 UNL     1      -3.467  14.792 -13.860  1.00  0.00     0.252 C
HETATM    6  N5  UNL     1      -2.311  13.914 -13.901  1.00  0.00    -0.072 N
ATOM      7  H51 UNL     1      -1.481  14.382 -13.538  1.00  0.00     0.277 HD
ATOM      8  H52 UNL     1      -2.004  13.757 -14.861  1.00  0.00     0.277 HD
HETATM    9  C11 UNL     1      -2.542  12.669 -13.222  1.00  0.00     0.259 C
HETATM   10  C12 UNL     1      -2.329  11.551 -14.202  1.00  0.00     0.259 C
HETATM   11  N6  UNL     1      -2.362  10.256 -13.597  1.00  0.00    -0.073 N
ATOM     12  H61 UNL     1      -1.683  10.200 -12.838  1.00  0.00     0.277 HD
ATOM     13  H62 UNL     1      -1.974   9.558 -14.231  1.00  0.00     0.277 HD
HETATM   14  C13 UNL     1      -3.656   9.849 -13.139  1.00  0.00     0.234 C
HETATM   15  C14 UNL     1      -4.058   8.591 -13.870  1.00  0.00     0.055 C
HETATM   16  C15 UNL     1      -4.917   8.908 -15.084  1.00  0.00     0.234 C
HETATM   17  N7  UNL     1      -6.295   8.805 -14.686  1.00  0.00    -0.073 N
ATOM     18  H71 UNL     1      -6.562   9.605 -14.113  1.00  0.00     0.277 HD
ATOM     19  H72 UNL     1      -6.414   8.056 -14.004  1.00  0.00     0.277 HD
HETATM   20  C16 UNL     1      -7.207   8.641 -15.772  1.00  0.00     0.259 C
HETATM   21  C17 UNL     1      -8.451   9.456 -15.676  1.00  0.00     0.259 C
HETATM   22  N8  UNL     1      -8.536  10.283 -14.509  1.00  0.00    -0.072 N
ATOM     23  H81 UNL     1      -7.686  10.258 -13.945  1.00  0.00     0.277 HD
ATOM     24  H82 UNL     1      -9.177   9.912 -13.808  1.00  0.00     0.277 HD
HETATM   25  C18 UNL     1      -8.887  11.628 -14.935  1.00  0.00     0.259 C
HETATM   26  C19 UNL     1      -7.666  12.414 -15.370  1.00  0.00     0.259 C
HETATM   27  N9  UNL     1      -7.051  13.147 -14.312  1.00  0.00    -0.072 N
ATOM     28  H91 UNL     1      -6.117  12.785 -14.122  1.00  0.00     0.277 HD
ATOM     29  H92 UNL     1      -7.503  12.936 -13.422  1.00  0.00     0.277 HD
HETATM   30  C20 UNL     1      -7.005  14.561 -14.528  1.00  0.00     0.252 C
HETATM   31  C21 UNL     1      -6.166  14.881 -15.742  1.00  0.00     0.153 C
ENDROOT
BRANCH   1  32
HETATM   32  C7  UNL     1      -4.313  18.118 -14.872  1.00  0.00     0.227 C
BRANCH  32  33
HETATM   33  N3  UNL     1      -4.715  19.490 -14.882  1.00  0.00    -0.334 N
HETATM   34  C6  UNL     1      -4.117  20.461 -14.041  1.00  0.00     0.320 C
HETATM   35  N2  UNL     1      -4.536  21.841 -14.076  1.00  0.00    -0.306 N
HETATM   36  O1  UNL     1      -3.206  20.082 -13.259  1.00  0.00    -0.247 OA
HETATM   37  C1  UNL     1      -5.580  22.196 -14.992  1.00  0.00     0.287 C
HETATM   38  C5  UNL     1      -3.874  22.750 -13.191  1.00  0.00     0.130 C
HETATM   39  C2  UNL     1      -5.678  23.694 -15.157  1.00  0.00     0.054 C
HETATM   40  C3  UNL     1      -4.262  24.232 -15.172  1.00  0.00     0.005 C
HETATM   41  C4  UNL     1      -3.742  24.140 -13.756  1.00  0.00     0.020 C
ATOM     42  H3  UNL     1      -5.458  19.781 -15.517  1.00  0.00     0.164 HD
BRANCH  37  43
HETATM   43  N1  UNL     1      -6.886  21.736 -14.560  1.00  0.00    -0.058 N
ATOM     44  H13 UNL     1      -7.634  21.987 -15.205  1.00  0.00     0.276 HD
ATOM     45  H12 UNL     1      -6.997  20.723 -14.623  1.00  0.00     0.276 HD
ATOM     46  H11 UNL     1      -7.029  22.098 -13.618  1.00  0.00     0.276 HD
ENDBRANCH  37  43
ENDBRANCH  32  33
ENDBRANCH   1  32
TORSDOF 3
ENDMDL