MODEL 3
REMARK VINA RESULT: -9.436314568      0.885      1.462
REMARK  4 active torsions:
REMARK  status: ('A' for Active; 'I' for Inactive)
REMARK    1  A    between atoms: C3_5  and  N2_6
REMARK       I    between atoms: N2_6  and  C4_8
REMARK    2  A    between atoms: C4_8  and  C5_10
REMARK    3  A    between atoms: C5_10  and  O2_11
REMARK    4  A    between atoms: O2_11  and  C6_12
REMARK       I    between atoms: C6_12  and  N3_14
ROOT
HETATM    1  C6  UNL     1      -8.429  16.329 -15.354  1.00  0.00     0.363 C
HETATM    2  O3  UNL     1      -9.684  16.301 -15.597  1.00  0.00    -0.238 OA
HETATM    3  N3  UNL     1      -7.707  15.121 -15.176  1.00  0.00    -0.325 N
HETATM    4  C7  UNL     1      -8.430  13.872 -15.277  1.00  0.00     0.155 C
HETATM    5  C8  UNL     1      -7.590  12.705 -15.679  1.00  0.00     0.252 C
HETATM    6  N4  UNL     1      -7.377  11.785 -14.550  1.00  0.00    -0.074 N
ATOM      7  H41 UNL     1      -8.204  11.242 -14.304  1.00  0.00     0.277 HD
ATOM      8  H42 UNL     1      -7.270  12.258 -13.652  1.00  0.00     0.277 HD
HETATM    9  C9  UNL     1      -6.235  10.971 -14.917  1.00  0.00     0.234 C
HETATM   10  C10 UNL     1      -5.681  10.204 -13.747  1.00  0.00     0.055 C
HETATM   11  C11 UNL     1      -5.382  11.030 -12.547  1.00  0.00     0.234 C
HETATM   12  N5  UNL     1      -4.522  12.141 -12.762  1.00  0.00    -0.073 N
ATOM     13  H51 UNL     1      -4.347  12.630 -11.884  1.00  0.00     0.277 HD
ATOM     14  H52 UNL     1      -5.011  12.874 -13.276  1.00  0.00     0.277 HD
HETATM   15  C12 UNL     1      -3.282  11.814 -13.411  1.00  0.00     0.259 C
HETATM   16  C13 UNL     1      -2.453  13.055 -13.651  1.00  0.00     0.259 C
HETATM   17  N6  UNL     1      -3.111  14.279 -13.323  1.00  0.00    -0.072 N
ATOM     18  H61 UNL     1      -2.684  14.708 -12.501  1.00  0.00     0.277 HD
ATOM     19  H62 UNL     1      -4.045  14.099 -12.954  1.00  0.00     0.277 HD
HETATM   20  C14 UNL     1      -3.167  15.225 -14.427  1.00  0.00     0.251 C
HETATM   21  C15 UNL     1      -3.619  14.538 -15.672  1.00  0.00     0.141 C
HETATM   22  N7  UNL     1      -4.443  15.318 -16.535  1.00  0.00    -0.418 N
ATOM     23  H7  UNL     1      -4.266  15.383 -17.537  1.00  0.00     0.153 HD
HETATM   24  C16 UNL     1      -5.528  16.000 -15.915  1.00  0.00     0.133 C
HETATM   25  C17 UNL     1      -6.287  15.197 -14.902  1.00  0.00     0.147 C
ENDROOT
BRANCH   1  26
HETATM   26  O2  UNL     1      -7.783  17.531 -15.266  1.00  0.00    -0.295 OA
BRANCH  26  27
HETATM   27  C5  UNL     1      -8.255  18.747 -15.783  1.00  0.00     0.284 C
BRANCH  27  28
HETATM   28  C4  UNL     1      -7.256  19.446 -16.592  1.00  0.00     0.260 C
HETATM   29  N2  UNL     1      -7.171  20.881 -16.473  1.00  0.00    -0.158 N
ATOM     30  H2  UNL     1      -7.719  21.482 -17.087  1.00  0.00     0.187 HD
HETATM   31  O1  UNL     1      -6.492  18.835 -17.366  1.00  0.00    -0.270 OA
BRANCH  29  32
HETATM   32  C3  UNL     1      -6.385  21.400 -15.574  1.00  0.00     0.688 A
HETATM   33  N1  UNL     1      -6.640  22.638 -15.135  1.00  0.00    -0.195 N
HETATM   34  C2  UNL     1      -5.886  23.265 -14.206  1.00  0.00     0.034 A
ATOM     35  H1  UNL     1      -7.444  23.132 -15.522  1.00  0.00     0.184 HD
HETATM   36  C1  UNL     1      -6.174  24.629 -13.728  1.00  0.00     0.069 C
HETATM   37  C19 UNL     1      -4.802  22.556 -13.704  1.00  0.00     0.029 A
HETATM   38  C18 UNL     1      -4.531  21.279 -14.151  1.00  0.00     0.267 A
HETATM   39  C20 UNL     1      -3.941  23.215 -12.671  1.00  0.00     0.056 C
HETATM   40  N8  UNL     1      -5.332  20.726 -15.079  1.00  0.00    -0.155 N
HETATM   41  O4  UNL     1      -3.543  20.638 -13.690  1.00  0.00    -0.267 OA
ATOM     42  H8  UNL     1      -5.138  19.782 -15.413  1.00  0.00     0.187 HD
ENDBRANCH  29  32
ENDBRANCH  27  28
ENDBRANCH  26  27
ENDBRANCH   1  26
TORSDOF 4
ENDMDL