MODEL 3
REMARK VINA RESULT: -6.203293686      3.987      6.908
REMARK  2 active torsions:
REMARK  status: ('A' for Active; 'I' for Inactive)
REMARK       I    between atoms: C1_4  and  N2_5
REMARK       I    between atoms: C1_4  and  N3_10
REMARK    1  A    between atoms: N2_5  and  C2_7
REMARK    2  A    between atoms: N3_10  and  C4_12
ROOT
HETATM    1  C4  UNL     1      -7.443  16.391 -15.657  1.00  0.00     0.217 C
HETATM    2  C5  UNL     1      -7.314  15.488 -14.459  1.00  0.00     0.267 C
HETATM    3  N4  UNL     1      -5.934  15.262 -14.087  1.00  0.00    -0.071 N
ATOM      4  H41 UNL     1      -5.860  14.919 -13.129  1.00  0.00     0.277 HD
ATOM      5  H42 UNL     1      -5.430  16.142 -13.981  1.00  0.00     0.277 HD
HETATM    6  C6  UNL     1      -5.258  14.378 -15.014  1.00  0.00     0.259 C
HETATM    7  C7  UNL     1      -4.318  13.506 -14.247  1.00  0.00     0.259 C
HETATM    8  N5  UNL     1      -4.993  12.234 -13.981  1.00  0.00    -0.073 N
ATOM      9  H51 UNL     1      -5.947  12.348 -13.636  1.00  0.00     0.277 HD
ATOM     10  H52 UNL     1      -4.622  11.743 -13.167  1.00  0.00     0.277 HD
HETATM   11  C8  UNL     1      -4.915  11.463 -15.197  1.00  0.00     0.241 C
HETATM   12  C9  UNL     1      -5.126   9.987 -14.950  1.00  0.00     0.130 C
HETATM   13  C10 UNL     1      -6.005   9.705 -13.811  1.00  0.00     0.219 C
HETATM   14  O2  UNL     1      -5.527   9.645 -12.643  1.00  0.00    -0.274 OA
HETATM   15  N6  UNL     1      -7.404   9.486 -13.940  1.00  0.00    -0.361 N
ATOM     16  H6  UNL     1      -7.851   8.834 -13.296  1.00  0.00     0.162 HD
HETATM   17  C11 UNL     1      -8.226  10.136 -14.934  1.00  0.00     0.123 C
HETATM   18  C12 UNL     1      -8.400   9.262 -16.165  1.00  0.00     0.030 C
HETATM   19  C13 UNL     1      -9.812   9.362 -16.649  1.00  0.00     0.075 C
HETATM   20  S1  UNL     1     -10.089  10.882 -17.615  1.00  0.00    -0.167 SA
HETATM   21  C14 UNL     1     -10.962  12.049 -16.545  1.00  0.00     0.100 C
HETATM   22  C15 UNL     1     -11.737  13.079 -17.333  1.00  0.00     0.177 C
HETATM   23  O3  UNL     1     -10.945  13.948 -18.038  1.00  0.00    -0.389 OA
HETATM   24  C16 UNL     1      -9.913  14.505 -17.310  1.00  0.00     0.187 C
HETATM   25  C17 UNL     1     -10.386  15.327 -16.136  1.00  0.00     0.148 C
HETATM   26  N7  UNL     1      -9.927  16.694 -16.190  1.00  0.00    -0.357 N
ATOM     27  H7  UNL     1     -10.515  17.371 -16.678  1.00  0.00     0.162 HD
HETATM   28  C18 UNL     1      -8.730  17.164 -15.618  1.00  0.00     0.242 C
HETATM   29  O4  UNL     1      -8.702  18.284 -15.041  1.00  0.00    -0.271 OA
ENDROOT
BRANCH   1  30
HETATM   30  N3  UNL     1      -6.311  17.258 -15.774  1.00  0.00    -0.212 N
HETATM   31  C1  UNL     1      -6.387  18.659 -15.963  1.00  0.00     0.670 C
HETATM   32  N1  UNL     1      -6.830  19.096 -17.086  1.00  0.00    -0.235 N
HETATM   33  N2  UNL     1      -5.995  19.579 -14.961  1.00  0.00    -0.198 N
ATOM     34  H12 UNL     1      -6.885  20.105 -17.222  1.00  0.00     0.174 HD
ATOM     35  H11 UNL     1      -7.113  18.433 -17.807  1.00  0.00     0.174 HD
ATOM     36  H2  UNL     1      -6.707  19.947 -14.331  1.00  0.00     0.180 HD
ATOM     37  H3  UNL     1      -5.384  16.836 -15.718  1.00  0.00     0.178 HD
BRANCH  33  38
HETATM   38  C2  UNL     1      -4.623  20.023 -14.792  1.00  0.00     0.261 A
HETATM   39  C3  UNL     1      -4.186  20.698 -13.615  1.00  0.00     0.224 A
HETATM   40  O1  UNL     1      -4.648  21.511 -14.668  1.00  0.00    -0.360 OA
ENDBRANCH  33  38
ENDBRANCH   1  30
TORSDOF 2
ENDMDL