MODEL 2
REMARK VINA RESULT: -8.303399210      1.001      1.091
REMARK  4 active torsions:
REMARK  status: ('A' for Active; 'I' for Inactive)
REMARK    1  A    between atoms: N1_2  and  C2_4
REMARK    2  A    between atoms: C3_7  and  C4_8
REMARK    3  A    between atoms: C4_8  and  C5_9
REMARK    4  A    between atoms: C18_37  and  N8_38
ROOT
HETATM    1  C5  UNL     1      -5.224  15.379 -14.974  1.00  0.00     0.194 C
HETATM    2  C6  UNL     1      -4.304  14.970 -13.828  1.00  0.00     0.060 C
HETATM    3  C7  UNL     1      -3.119  14.184 -14.268  1.00  0.00     0.234 C
HETATM    4  N3  UNL     1      -3.346  12.753 -14.287  1.00  0.00    -0.073 N
ATOM      5  H31 UNL     1      -2.959  12.311 -15.121  1.00  0.00     0.277 HD
ATOM      6  H32 UNL     1      -4.327  12.520 -14.442  1.00  0.00     0.277 HD
HETATM    7  C8  UNL     1      -2.836  12.179 -13.083  1.00  0.00     0.259 C
HETATM    8  C9  UNL     1      -3.573  10.992 -12.583  1.00  0.00     0.259 C
HETATM    9  N4  UNL     1      -4.321  10.294 -13.606  1.00  0.00    -0.072 N
ATOM     10  H41 UNL     1      -3.706   9.842 -14.282  1.00  0.00     0.277 HD
ATOM     11  H42 UNL     1      -4.793  10.942 -14.238  1.00  0.00     0.277 HD
HETATM   12  C10 UNL     1      -5.245   9.358 -13.013  1.00  0.00     0.259 C
HETATM   13  C11 UNL     1      -6.454   9.116 -13.905  1.00  0.00     0.259 C
HETATM   14  N5  UNL     1      -6.968  10.364 -14.441  1.00  0.00    -0.072 N
ATOM     15  H51 UNL     1      -7.178  10.284 -15.437  1.00  0.00     0.277 HD
ATOM     16  H52 UNL     1      -6.240  11.077 -14.490  1.00  0.00     0.277 HD
HETATM   17  C12 UNL     1      -8.119  10.833 -13.695  1.00  0.00     0.258 C
HETATM   18  C13 UNL     1      -7.922  12.251 -13.195  1.00  0.00     0.195 C
HETATM   19  O1  UNL     1      -8.484  13.189 -14.056  1.00  0.00    -0.388 OA
HETATM   20  C14 UNL     1      -7.592  13.391 -15.097  1.00  0.00     0.195 C
HETATM   21  C15 UNL     1      -7.486  14.865 -15.409  1.00  0.00     0.258 C
HETATM   22  N6  UNL     1      -6.573  15.553 -14.545  1.00  0.00    -0.069 N
ATOM     23  H61 UNL     1      -6.813  16.541 -14.456  1.00  0.00     0.277 HD
ATOM     24  H62 UNL     1      -6.696  15.275 -13.572  1.00  0.00     0.277 HD
ENDROOT
BRANCH   1  25
HETATM   25  C4  UNL     1      -4.689  16.465 -15.833  1.00  0.00     0.109 C
BRANCH  25  26
HETATM   26  C3  UNL     1      -4.265  17.700 -15.153  1.00  0.00     0.087 A
HETATM   27  N2  UNL     1      -3.147  17.761 -14.399  1.00  0.00    -0.330 N
HETATM   28  C2  UNL     1      -2.681  18.825 -13.752  1.00  0.00     0.132 A
ATOM     29  H2  UNL     1      -2.604  16.902 -14.317  1.00  0.00     0.168 HD
HETATM   30  C19 UNL     1      -3.400  20.042 -13.834  1.00  0.00     0.113 A
HETATM   31  C17 UNL     1      -4.527  19.980 -14.595  1.00  0.00     0.111 A
HETATM   32  N9  UNL     1      -3.105  21.197 -13.270  1.00  0.00    -0.332 N
HETATM   33  N7  UNL     1      -4.957  18.845 -15.242  1.00  0.00    -0.333 N
HETATM   34  S1  UNL     1      -5.130  21.585 -14.477  1.00  0.00    -0.034 SA
HETATM   35  C16 UNL     1      -6.157  19.008 -15.994  1.00  0.00     0.158 C
HETATM   36  C18 UNL     1      -3.914  22.231 -13.471  1.00  0.00     0.144 A
ATOM     37  H9  UNL     1      -2.270  21.295 -12.691  1.00  0.00     0.168 HD
BRANCH  28  38
HETATM   38  N1  UNL     1      -1.591  18.762 -13.055  1.00  0.00    -0.379 N
HETATM   39  C1  UNL     1      -0.357  19.112 -13.723  1.00  0.00     0.147 C
ATOM     40  H1  UNL     1      -1.603  18.478 -12.075  1.00  0.00     0.160 HD
ENDBRANCH  28  38
BRANCH  36  41
HETATM   41  N8  UNL     1      -3.811  23.452 -13.011  1.00  0.00    -0.380 N
ATOM     42  H82 UNL     1      -3.028  24.100 -13.094  1.00  0.00     0.158 HD
ATOM     43  H81 UNL     1      -4.501  23.986 -12.483  1.00  0.00     0.158 HD
ENDBRANCH  36  41
ENDBRANCH  25  26
ENDBRANCH   1  25
TORSDOF 4
ENDMDL