MODEL 3
REMARK VINA RESULT: -6.592347513      3.360      5.106
REMARK  2 active torsions:
REMARK  status: ('A' for Active; 'I' for Inactive)
REMARK       I    between atoms: C2_2  and  N1_4
REMARK    1  A    between atoms: N1_4  and  C3_6
REMARK    2  A    between atoms: C7_12  and  C8_13
REMARK       I    between atoms: C8_13  and  N3_15
ROOT
HETATM    1  C8  UNL     1      -3.714  13.114 -13.929  1.00  0.00     0.253 C
HETATM    2  O2  UNL     1      -2.930  14.084 -13.735  1.00  0.00    -0.270 OA
HETATM    3  N3  UNL     1      -3.496  11.876 -13.280  1.00  0.00    -0.348 N
HETATM    4  C9  UNL     1      -2.376  11.726 -12.382  1.00  0.00     0.127 C
HETATM    5  C10 UNL     1      -1.073  12.145 -13.024  1.00  0.00     0.047 C
HETATM    6  C11 UNL     1       0.007  11.102 -12.839  1.00  0.00     0.234 C
HETATM    7  N4  UNL     1       0.251  10.791 -11.465  1.00  0.00    -0.075 N
ATOM      8  H41 UNL     1      -0.412  10.100 -11.115  1.00  0.00     0.277 HD
ATOM      9  H42 UNL     1       0.003  11.571 -10.855  1.00  0.00     0.277 HD
HETATM   10  C12 UNL     1       1.618  10.369 -11.254  1.00  0.00     0.233 C
HETATM   11  C13 UNL     1       1.624   8.893 -10.886  1.00  0.00     0.055 C
HETATM   12  C14 UNL     1       2.297   8.043 -11.932  1.00  0.00     0.234 C
HETATM   13  N5  UNL     1       1.348   7.679 -12.948  1.00  0.00    -0.073 N
ATOM     14  H51 UNL     1       1.690   7.955 -13.868  1.00  0.00     0.277 HD
ATOM     15  H52 UNL     1       0.518   8.269 -12.885  1.00  0.00     0.277 HD
HETATM   16  C15 UNL     1       0.976   6.299 -12.950  1.00  0.00     0.259 C
HETATM   17  C16 UNL     1      -0.474   6.123 -12.505  1.00  0.00     0.259 C
HETATM   18  N6  UNL     1      -1.277   6.933 -13.396  1.00  0.00    -0.072 N
ATOM     19  H61 UNL     1      -1.074   6.717 -14.372  1.00  0.00     0.277 HD
ATOM     20  H62 UNL     1      -0.975   7.907 -13.378  1.00  0.00     0.277 HD
HETATM   21  C17 UNL     1      -2.689   6.823 -13.122  1.00  0.00     0.251 C
HETATM   22  C18 UNL     1      -3.146   7.615 -11.962  1.00  0.00     0.141 C
HETATM   23  N7  UNL     1      -3.960   8.741 -12.218  1.00  0.00    -0.418 N
ATOM     24  H7  UNL     1      -4.666   9.058 -11.553  1.00  0.00     0.153 HD
HETATM   25  C19 UNL     1      -3.736   9.416 -13.471  1.00  0.00     0.133 C
HETATM   26  C20 UNL     1      -4.373  10.779 -13.513  1.00  0.00     0.145 C
ENDROOT
BRANCH   1  27
HETATM   27  C7  UNL     1      -4.854  13.344 -14.861  1.00  0.00     0.246 C
HETATM   28  C6  UNL     1      -6.033  13.888 -14.289  1.00  0.00    -0.129 C
HETATM   29  C5  UNL     1      -7.223  14.171 -13.644  1.00  0.00     0.202 C
HETATM   30  N2  UNL     1      -7.657  15.533 -14.083  1.00  0.00    -0.390 N
HETATM   31  C4  UNL     1      -7.445  15.875 -15.429  1.00  0.00     0.091 C
ATOM     32  H2  UNL     1      -8.090  16.188 -13.431  1.00  0.00     0.159 HD
HETATM   33  C3  UNL     1      -6.197  16.450 -15.968  1.00  0.00     0.215 C
HETATM   34  C21 UNL     1      -5.049  15.578 -16.298  1.00  0.00     0.246 C
HETATM   35  N8  UNL     1      -4.421  14.340 -15.911  1.00  0.00    -0.337 N
HETATM   36  O3  UNL     1      -4.350  16.064 -17.259  1.00  0.00    -0.271 OA
ATOM     37  H8  UNL     1      -3.567  14.104 -16.415  1.00  0.00     0.164 HD
BRANCH  33  38
HETATM   38  N1  UNL     1      -5.795  17.635 -15.217  1.00  0.00    -0.344 N
HETATM   39  C2  UNL     1      -5.815  18.940 -15.698  1.00  0.00     0.214 C
HETATM   40  C1  UNL     1      -5.383  20.063 -14.843  1.00  0.00     0.117 C
HETATM   41  O1  UNL     1      -6.199  19.177 -16.865  1.00  0.00    -0.274 OA
ATOM     42  H1  UNL     1      -5.473  17.494 -14.258  1.00  0.00     0.163 HD
ENDBRANCH  33  38
ENDBRANCH   1  27
TORSDOF 2
ENDMDL