MODEL 1
REMARK VINA RESULT: -7.355332876      0.000      0.000
REMARK  2 active torsions:
REMARK  status: ('A' for Active; 'I' for Inactive)
REMARK    1  A    between atoms: C2_2  and  C3_3
REMARK    2  A    between atoms: C2_2  and  N2_6
ROOT
HETATM    1  N2  UNL     1     -11.488  13.782 -18.554  1.00  0.00     0.103 N
HETATM    2  C4  UNL     1     -11.943  15.076 -18.163  1.00  0.00     0.275 C
HETATM    3  C5  UNL     1     -11.587  15.395 -16.730  1.00  0.00     0.057 C
HETATM    4  C6  UNL     1     -11.026  16.794 -16.642  1.00  0.00     0.234 C
HETATM    5  N3  UNL     1      -9.880  16.735 -15.753  1.00  0.00    -0.075 N
ATOM      6  H31 UNL     1      -9.540  15.778 -15.651  1.00  0.00     0.277 HD
ATOM      7  H32 UNL     1     -10.153  16.913 -14.786  1.00  0.00     0.277 HD
HETATM    8  C7  UNL     1      -8.814  17.628 -16.170  1.00  0.00     0.241 C
HETATM    9  C8  UNL     1      -7.611  17.309 -15.286  1.00  0.00     0.130 C
HETATM   10  C9  UNL     1      -6.717  18.481 -15.155  1.00  0.00     0.219 C
HETATM   11  O2  UNL     1      -7.196  19.652 -15.240  1.00  0.00    -0.274 OA
HETATM   12  N4  UNL     1      -5.324  18.311 -14.935  1.00  0.00    -0.359 N
ATOM     13  H4  UNL     1      -4.853  18.946 -14.291  1.00  0.00     0.162 HD
HETATM   14  C10 UNL     1      -4.546  17.281 -15.580  1.00  0.00     0.150 C
HETATM   15  C11 UNL     1      -3.503  16.689 -14.646  1.00  0.00     0.252 C
HETATM   16  N5  UNL     1      -3.965  15.432 -14.138  1.00  0.00    -0.072 N
ATOM     17  H51 UNL     1      -4.863  15.181 -14.552  1.00  0.00     0.277 HD
ATOM     18  H52 UNL     1      -4.248  15.517 -13.161  1.00  0.00     0.277 HD
HETATM   19  C12 UNL     1      -3.007  14.361 -14.303  1.00  0.00     0.259 C
HETATM   20  C13 UNL     1      -3.744  13.066 -13.970  1.00  0.00     0.259 C
HETATM   21  N6  UNL     1      -2.937  11.902 -14.232  1.00  0.00    -0.073 N
ATOM     22  H61 UNL     1      -2.879  11.309 -13.404  1.00  0.00     0.277 HD
ATOM     23  H62 UNL     1      -1.954  12.158 -14.325  1.00  0.00     0.277 HD
HETATM   24  C14 UNL     1      -3.372  11.146 -15.368  1.00  0.00     0.234 C
HETATM   25  C15 UNL     1      -4.638  10.404 -15.060  1.00  0.00     0.055 C
HETATM   26  C16 UNL     1      -5.184   9.804 -16.356  1.00  0.00     0.233 C
HETATM   27  N7  UNL     1      -6.564  10.169 -16.448  1.00  0.00    -0.075 N
ATOM     28  H71 UNL     1      -6.683  11.000 -17.027  1.00  0.00     0.277 HD
ATOM     29  H72 UNL     1      -6.903  10.536 -15.558  1.00  0.00     0.277 HD
HETATM   30  C17 UNL     1      -7.408   9.091 -16.916  1.00  0.00     0.233 C
HETATM   31  C18 UNL     1      -8.835   9.470 -16.557  1.00  0.00     0.055 C
HETATM   32  C19 UNL     1      -9.415  10.134 -17.805  1.00  0.00     0.234 C
HETATM   33  N8  UNL     1     -10.766  10.580 -17.567  1.00  0.00    -0.073 N
ATOM     34  H81 UNL     1     -11.265   9.942 -16.946  1.00  0.00     0.277 HD
ATOM     35  H82 UNL     1     -11.345  10.476 -18.400  1.00  0.00     0.277 HD
HETATM   36  C20 UNL     1     -10.799  11.955 -17.059  1.00  0.00     0.262 C
HETATM   37  C21 UNL     1     -11.947  12.727 -17.674  1.00  0.00     0.300 C
ENDROOT
BRANCH   1  38
HETATM   38  C2  UNL     1     -11.726  13.509 -19.932  1.00  0.00     0.307 C
HETATM   39  C1  UNL     1     -12.645  12.327 -20.107  1.00  0.00     0.053 C
BRANCH  38  40
HETATM   40  C3  UNL     1     -10.535  13.317 -20.768  1.00  0.00     0.264 C
HETATM   41  N1  UNL     1     -10.113  14.434 -21.554  1.00  0.00    -0.060 NA
HETATM   42  O1  UNL     1      -9.848  12.278 -20.869  1.00  0.00    -0.274 OA
ENDBRANCH  38  40
ENDBRANCH   1  38
TORSDOF 2
ENDMDL