MODEL 3
REMARK VINA RESULT: -6.404718185      4.029      8.262
REMARK  2 active torsions:
REMARK  status: ('A' for Active; 'I' for Inactive)
REMARK    1  A    between atoms: C21_40  and  C22_41
REMARK    2  A    between atoms: C22_41  and  N8_42
ROOT
HETATM    1  C1  UNL     1     -13.659  14.215 -17.820  1.00  0.00     0.311 C
HETATM    2  N1  UNL     1     -12.631  14.304 -18.797  1.00  0.00     0.101 N
HETATM    3  C2  UNL     1     -11.394  14.804 -18.299  1.00  0.00     0.300 C
HETATM    4  C3  UNL     1     -11.505  15.423 -16.925  1.00  0.00     0.262 C
HETATM    5  N2  UNL     1     -10.449  16.410 -16.801  1.00  0.00    -0.073 N
ATOM      6  H21 UNL     1     -10.830  17.351 -16.695  1.00  0.00     0.277 HD
ATOM      7  H22 UNL     1      -9.954  16.538 -17.684  1.00  0.00     0.277 HD
HETATM    8  C4  UNL     1      -9.527  16.084 -15.715  1.00  0.00     0.234 C
HETATM    9  C5  UNL     1      -8.349  15.294 -16.228  1.00  0.00     0.055 C
HETATM   10  C6  UNL     1      -8.440  13.835 -15.856  1.00  0.00     0.234 C
HETATM   11  N3  UNL     1      -7.382  13.420 -14.962  1.00  0.00    -0.073 N
ATOM     12  H31 UNL     1      -6.534  13.976 -15.076  1.00  0.00     0.277 HD
ATOM     13  H32 UNL     1      -6.990  12.513 -15.215  1.00  0.00     0.277 HD
HETATM   14  C7  UNL     1      -7.886  13.448 -13.602  1.00  0.00     0.259 C
HETATM   15  C8  UNL     1      -7.035  12.608 -12.676  1.00  0.00     0.259 C
HETATM   16  N4  UNL     1      -6.682  11.337 -13.282  1.00  0.00    -0.072 N
ATOM     17  H41 UNL     1      -5.870  11.403 -13.896  1.00  0.00     0.277 HD
ATOM     18  H42 UNL     1      -7.357  11.031 -13.983  1.00  0.00     0.277 HD
HETATM   19  C9  UNL     1      -6.503  10.370 -12.211  1.00  0.00     0.259 C
HETATM   20  C10 UNL     1      -6.899   8.966 -12.669  1.00  0.00     0.259 C
HETATM   21  N5  UNL     1      -6.068   8.528 -13.770  1.00  0.00    -0.074 N
ATOM     22  H51 UNL     1      -5.917   7.519 -13.772  1.00  0.00     0.277 HD
ATOM     23  H52 UNL     1      -5.094   8.813 -13.664  1.00  0.00     0.277 HD
HETATM   24  C11 UNL     1      -6.656   9.003 -14.996  1.00  0.00     0.232 C
HETATM   25  C12 UNL     1      -6.904   7.843 -15.944  1.00  0.00     0.027 C
HETATM   26  C13 UNL     1      -7.579   8.323 -17.192  1.00  0.00     0.002 C
HETATM   27  C14 UNL     1      -7.270   7.353 -18.312  1.00  0.00     0.000 C
HETATM   28  C15 UNL     1      -7.566   7.961 -19.660  1.00  0.00     0.002 C
HETATM   29  C16 UNL     1      -8.905   7.495 -20.201  1.00  0.00     0.020 C
HETATM   30  C17 UNL     1      -9.962   8.600 -20.080  1.00  0.00     0.122 C
HETATM   31  N6  UNL     1     -11.245   7.995 -19.780  1.00  0.00    -0.360 N
ATOM     32  H6  UNL     1     -11.246   7.148 -19.212  1.00  0.00     0.162 HD
HETATM   33  C18 UNL     1     -12.496   8.492 -20.217  1.00  0.00     0.235 C
HETATM   34  O1  UNL     1     -13.477   7.718 -20.382  1.00  0.00    -0.272 OA
HETATM   35  C19 UNL     1     -12.737   9.951 -20.509  1.00  0.00     0.225 C
HETATM   36  N7  UNL     1     -13.197  10.646 -19.326  1.00  0.00    -0.350 N
ATOM     37  H7  UNL     1     -13.950  10.203 -18.798  1.00  0.00     0.163 HD
HETATM   38  C20 UNL     1     -12.709  11.875 -18.830  1.00  0.00     0.253 C
HETATM   39  O2  UNL     1     -12.461  11.933 -17.590  1.00  0.00    -0.271 OA
HETATM   40  C21 UNL     1     -12.454  13.108 -19.597  1.00  0.00     0.338 C
ENDROOT
BRANCH  40  41
HETATM   41  C22 UNL     1     -13.258  13.190 -20.876  1.00  0.00     0.275 C
BRANCH  41  42
HETATM   42  N8  UNL     1     -12.404  13.191 -22.055  1.00  0.00    -0.077 N
ATOM     43  H83 UNL     1     -11.779  13.997 -22.060  1.00  0.00     0.274 HD
ATOM     44  H82 UNL     1     -11.707  12.448 -22.008  1.00  0.00     0.274 HD
ATOM     45  H81 UNL     1     -12.946  13.136 -22.918  1.00  0.00     0.274 HD
ENDBRANCH  41  42
ENDBRANCH  40  41
TORSDOF 2
ENDMDL