MODEL 3
REMARK VINA RESULT: -7.936823352      6.207      7.548
REMARK  2 active torsions:
REMARK  status: ('A' for Active; 'I' for Inactive)
REMARK    1  A    between atoms: N5_25  and  C12_26
REMARK    2  A    between atoms: C12_26  and  C13_27
ROOT
HETATM    1  O1  UNL     1      -5.889   7.904 -14.250  1.00  0.00    -0.272 OA
HETATM    2  C1  UNL     1      -5.799   8.874 -13.452  1.00  0.00     0.244 C
HETATM    3  C2  UNL     1      -4.588   8.937 -12.593  1.00  0.00     0.334 C
HETATM    4  N1  UNL     1      -4.003   7.621 -12.433  1.00  0.00    -0.065 N
ATOM      5  H11 UNL     1      -4.280   6.995 -13.189  1.00  0.00     0.277 HD
ATOM      6  H12 UNL     1      -4.424   7.119 -11.650  1.00  0.00     0.277 HD
HETATM    7  C3  UNL     1      -2.556   7.688 -12.303  1.00  0.00     0.260 C
HETATM    8  C4  UNL     1      -1.900   7.858 -13.664  1.00  0.00     0.259 C
HETATM    9  N2  UNL     1      -0.799   8.774 -13.510  1.00  0.00    -0.072 N
ATOM     10  H21 UNL     1       0.009   8.315 -13.089  1.00  0.00     0.277 HD
ATOM     11  H22 UNL     1      -0.988   9.463 -12.782  1.00  0.00     0.277 HD
HETATM   12  C5  UNL     1      -0.449   9.414 -14.769  1.00  0.00     0.259 C
HETATM   13  C6  UNL     1       0.668  10.395 -14.477  1.00  0.00     0.259 C
HETATM   14  N3  UNL     1       0.829  11.348 -15.531  1.00  0.00    -0.073 N
ATOM     15  H31 UNL     1       0.478  10.989 -16.419  1.00  0.00     0.277 HD
ATOM     16  H32 UNL     1       1.810  11.464 -15.786  1.00  0.00     0.277 HD
HETATM   17  C7  UNL     1       0.205  12.635 -15.186  1.00  0.00     0.234 C
HETATM   18  C8  UNL     1       1.033  13.705 -15.810  1.00  0.00     0.055 C
HETATM   19  C9  UNL     1       0.328  14.989 -16.054  1.00  0.00     0.234 C
HETATM   20  N4  UNL     1      -0.890  15.165 -15.327  1.00  0.00    -0.071 N
ATOM     21  H41 UNL     1      -0.739  15.323 -14.331  1.00  0.00     0.277 HD
ATOM     22  H42 UNL     1      -1.432  14.305 -15.246  1.00  0.00     0.277 HD
HETATM   23  C10 UNL     1      -1.630  16.248 -15.968  1.00  0.00     0.277 C
HETATM   24  C11 UNL     1      -2.742  16.767 -15.078  1.00  0.00     0.090 C
HETATM   25  N5  UNL     1      -3.995  16.218 -15.402  1.00  0.00    -0.366 N
HETATM   26  C19 UNL     1      -4.508  15.231 -14.510  1.00  0.00     0.155 C
HETATM   27  C20 UNL     1      -5.647  14.456 -15.118  1.00  0.00     0.252 C
HETATM   28  N6  UNL     1      -5.902  13.225 -14.376  1.00  0.00    -0.072 N
ATOM     29  H61 UNL     1      -5.035  12.786 -14.069  1.00  0.00     0.277 HD
ATOM     30  H62 UNL     1      -6.246  12.483 -14.986  1.00  0.00     0.277 HD
HETATM   31  C21 UNL     1      -6.805  13.461 -13.262  1.00  0.00     0.260 C
HETATM   32  C22 UNL     1      -8.003  12.560 -13.366  1.00  0.00     0.261 C
HETATM   33  N7  UNL     1      -8.063  11.580 -12.309  1.00  0.00    -0.058 N
ATOM     34  H71 UNL     1      -8.916  11.025 -12.378  1.00  0.00     0.279 HD
ATOM     35  H72 UNL     1      -8.228  12.030 -11.409  1.00  0.00     0.279 HD
HETATM   36  C23 UNL     1      -6.910  10.735 -12.249  1.00  0.00     0.357 C
HETATM   37  N8  UNL     1      -6.804   9.848 -13.387  1.00  0.00    -0.336 N
ATOM     38  H8  UNL     1      -7.471   9.932 -14.153  1.00  0.00     0.164 HD
ENDROOT
BRANCH  25  39
HETATM   39  C12 UNL     1      -4.918  16.996 -16.103  1.00  0.00     0.101 C
BRANCH  39  40
HETATM   40  C13 UNL     1      -5.154  18.371 -15.678  1.00  0.00    -0.021 A
HETATM   41  C14 UNL     1      -6.282  19.002 -16.192  1.00  0.00     0.013 A
HETATM   42  C15 UNL     1      -6.606  20.300 -15.858  1.00  0.00     0.001 A
HETATM   43  C16 UNL     1      -5.811  21.018 -14.995  1.00  0.00     0.000 A
HETATM   44  C17 UNL     1      -4.688  20.427 -14.468  1.00  0.00     0.001 A
HETATM   45  C18 UNL     1      -4.372  19.108 -14.816  1.00  0.00     0.013 A
ENDBRANCH  39  40
ENDBRANCH  25  39
TORSDOF 2
ENDMDL