MODEL 4
REMARK VINA RESULT: -7.035874694      3.021      8.803
REMARK  4 active torsions:
REMARK  status: ('A' for Active; 'I' for Inactive)
REMARK    1  A    between atoms: C2_2  and  C3_3
REMARK    2  A    between atoms: C8_12  and  C9_13
REMARK    3  A    between atoms: C9_13  and  O1_14
REMARK    4  A    between atoms: C9_13  and  N3_16
ROOT
HETATM    1  N3  UNL     1      -8.030  11.075 -16.298  1.00  0.00    -0.362 N
HETATM    2  C10 UNL     1      -6.693  10.876 -16.763  1.00  0.00     0.152 C
HETATM    3  C11 UNL     1      -6.008  12.188 -17.133  1.00  0.00     0.252 C
HETATM    4  N4  UNL     1      -4.914  12.365 -16.217  1.00  0.00    -0.074 N
ATOM      5  H41 UNL     1      -4.199  11.652 -16.368  1.00  0.00     0.277 HD
ATOM      6  H42 UNL     1      -5.196  12.125 -15.268  1.00  0.00     0.277 HD
HETATM    7  C12 UNL     1      -4.334  13.685 -16.259  1.00  0.00     0.234 C
HETATM    8  C13 UNL     1      -2.877  13.544 -15.847  1.00  0.00     0.046 C
HETATM    9  C14 UNL     1      -2.576  14.266 -14.560  1.00  0.00     0.115 C
HETATM   10  N5  UNL     1      -3.124  13.635 -13.400  1.00  0.00    -0.420 N
ATOM     11  H5  UNL     1      -3.999  13.937 -12.973  1.00  0.00     0.153 HD
HETATM   12  C15 UNL     1      -2.351  12.548 -12.884  1.00  0.00     0.141 C
HETATM   13  C16 UNL     1      -3.271  11.339 -12.749  1.00  0.00     0.251 C
HETATM   14  N6  UNL     1      -4.401  11.597 -11.908  1.00  0.00    -0.072 N
ATOM     15  H61 UNL     1      -4.405  12.564 -11.584  1.00  0.00     0.277 HD
ATOM     16  H62 UNL     1      -4.306  11.125 -11.009  1.00  0.00     0.277 HD
HETATM   17  C17 UNL     1      -5.673  11.249 -12.557  1.00  0.00     0.259 C
HETATM   18  C18 UNL     1      -6.474  12.522 -12.675  1.00  0.00     0.259 C
HETATM   19  N7  UNL     1      -7.877  12.320 -12.802  1.00  0.00    -0.072 N
ATOM     20  H71 UNL     1      -8.360  13.212 -12.906  1.00  0.00     0.277 HD
ATOM     21  H72 UNL     1      -8.277  12.010 -11.917  1.00  0.00     0.277 HD
HETATM   22  C19 UNL     1      -8.242  11.413 -13.874  1.00  0.00     0.252 C
HETATM   23  C20 UNL     1      -8.150  12.083 -15.227  1.00  0.00     0.152 C
ENDROOT
BRANCH   1  24
HETATM   24  C9  UNL     1      -9.208  10.460 -16.708  1.00  0.00     0.127 C
BRANCH  24  25
HETATM   25  C8  UNL     1     -10.266  10.985 -17.619  1.00  0.00     0.154 C
HETATM   26  C7  UNL     1     -10.788   9.994 -18.606  1.00  0.00     0.042 C
HETATM   27  C6  UNL     1     -10.537  10.235 -20.063  1.00  0.00     0.120 C
HETATM   28  N2  UNL     1     -11.671  10.771 -20.857  1.00  0.00    -0.401 N
HETATM   29  C5  UNL     1     -12.293  11.636 -20.000  1.00  0.00     0.075 C
ATOM     30  H2  UNL     1     -11.927  10.547 -21.818  1.00  0.00     0.158 HD
HETATM   31  C4  UNL     1     -13.281  12.690 -20.111  1.00  0.00     0.165 C
HETATM   32  N1  UNL     1     -13.547  13.004 -18.718  1.00  0.00    -0.375 N
HETATM   33  C3  UNL     1     -12.664  13.588 -17.862  1.00  0.00     0.079 C
ATOM     34  H1  UNL     1     -14.470  12.767 -18.352  1.00  0.00     0.161 HD
HETATM   35  N8  UNL     1     -11.853  12.943 -16.903  1.00  0.00    -0.316 N
HETATM   36  C21 UNL     1     -11.223  11.695 -16.729  1.00  0.00     0.235 C
ATOM     37  H8  UNL     1     -11.671  13.557 -16.108  1.00  0.00     0.170 HD
HETATM   38  O2  UNL     1     -11.541  11.110 -15.627  1.00  0.00    -0.272 OA
BRANCH  33  39
HETATM   39  C2  UNL     1     -11.905  14.822 -18.393  1.00  0.00     0.072 C
HETATM   40  C1  UNL     1     -11.531  15.728 -17.215  1.00  0.00     0.013 C
ENDBRANCH  33  39
ENDBRANCH  24  25
BRANCH  24  41
HETATM   41  O1  UNL     1      -9.477   9.265 -16.270  1.00  0.00    -0.349 OA
ATOM     42  H1  UNL     1      -9.364   9.189 -15.330  1.00  0.00     0.219 HD
ENDBRANCH  24  41
ENDBRANCH   1  24
TORSDOF 4
ENDMDL