MODEL 2
REMARK VINA RESULT: -6.136584893      3.445      7.097
REMARK  2 active torsions:
REMARK  status: ('A' for Active; 'I' for Inactive)
REMARK    1  A    between atoms: C1_2  and  C2_4
REMARK    2  A    between atoms: C2_4  and  C3_5
ROOT
HETATM    1  C3  UNL     1      -7.413  14.708 -15.174  1.00  0.00     0.186 C
HETATM    2  N1  UNL     1      -8.322  13.773 -14.529  1.00  0.00    -0.345 N
ATOM      3  H1  UNL     1      -9.181  14.160 -14.139  1.00  0.00     0.163 HD
HETATM    4  C4  UNL     1      -8.129  12.378 -14.389  1.00  0.00     0.252 C
HETATM    5  O3  UNL     1      -9.054  11.614 -14.807  1.00  0.00    -0.271 OA
HETATM    6  C5  UNL     1      -6.945  11.714 -13.798  1.00  0.00     0.315 C
HETATM    7  C6  UNL     1      -7.374  10.885 -12.578  1.00  0.00     0.076 C
HETATM    8  C7  UNL     1      -7.420   9.728 -13.522  1.00  0.00     0.276 C
HETATM    9  N2  UNL     1      -6.577  10.487 -14.452  1.00  0.00     0.103 N
HETATM   10  C8  UNL     1      -5.184  10.209 -14.109  1.00  0.00     0.300 C
HETATM   11  C9  UNL     1      -4.684   8.920 -14.672  1.00  0.00     0.262 C
HETATM   12  N3  UNL     1      -4.169   8.124 -13.562  1.00  0.00    -0.073 N
ATOM     13  H31 UNL     1      -4.533   7.171 -13.589  1.00  0.00     0.277 HD
ATOM     14  H32 UNL     1      -4.570   8.424 -12.673  1.00  0.00     0.277 HD
HETATM   15  C10 UNL     1      -2.719   8.134 -13.515  1.00  0.00     0.232 C
HETATM   16  C11 UNL     1      -2.168   9.265 -12.694  1.00  0.00     0.029 C
HETATM   17  C12 UNL     1      -1.465  10.304 -13.526  1.00  0.00     0.029 C
HETATM   18  C13 UNL     1      -0.657   9.597 -14.579  1.00  0.00     0.232 C
HETATM   19  N4  UNL     1       0.546  10.355 -14.913  1.00  0.00    -0.074 N
ATOM     20  H41 UNL     1       1.131   9.903 -15.615  1.00  0.00     0.277 HD
ATOM     21  H42 UNL     1       1.239  10.371 -14.166  1.00  0.00     0.277 HD
HETATM   22  C14 UNL     1       0.081  11.685 -15.308  1.00  0.00     0.259 C
HETATM   23  C15 UNL     1       1.130  12.309 -16.188  1.00  0.00     0.259 C
HETATM   24  N5  UNL     1       1.276  13.716 -15.892  1.00  0.00    -0.073 N
ATOM     25  H51 UNL     1       1.936  14.156 -16.532  1.00  0.00     0.277 HD
ATOM     26  H52 UNL     1       1.777  13.852 -15.013  1.00  0.00     0.277 HD
HETATM   27  C16 UNL     1       0.020  14.425 -15.881  1.00  0.00     0.234 C
HETATM   28  C17 UNL     1      -0.610  14.474 -17.248  1.00  0.00     0.055 C
HETATM   29  C18 UNL     1      -2.124  14.486 -17.114  1.00  0.00     0.234 C
HETATM   30  N6  UNL     1      -2.474  15.778 -16.548  1.00  0.00    -0.074 N
ATOM     31  H61 UNL     1      -1.897  16.541 -16.901  1.00  0.00     0.277 HD
ATOM     32  H62 UNL     1      -2.217  15.869 -15.564  1.00  0.00     0.277 HD
HETATM   33  C19 UNL     1      -3.890  15.970 -16.790  1.00  0.00     0.251 C
HETATM   34  C20 UNL     1      -4.558  16.466 -15.532  1.00  0.00     0.150 C
HETATM   35  N7  UNL     1      -4.989  15.437 -14.637  1.00  0.00    -0.358 N
ATOM     36  H7  UNL     1      -4.249  14.876 -14.214  1.00  0.00     0.162 HD
HETATM   37  C21 UNL     1      -6.307  15.100 -14.264  1.00  0.00     0.241 C
HETATM   38  O4  UNL     1      -6.653  15.113 -13.022  1.00  0.00    -0.271 OA
ENDROOT
BRANCH   1  39
HETATM   39  C2  UNL     1      -8.256  15.945 -15.555  1.00  0.00     0.147 C
BRANCH  39  40
HETATM   40  C1  UNL     1      -9.523  15.450 -16.134  1.00  0.00     0.175 C
HETATM   41  O1  UNL     1     -10.615  15.942 -15.715  1.00  0.00    -0.648 OA
HETATM   42  O2  UNL     1      -9.587  14.482 -17.105  1.00  0.00    -0.648 OA
ENDBRANCH  39  40
ENDBRANCH   1  39
TORSDOF 2
ENDMDL