MODEL 4
REMARK VINA RESULT: -9.646952438      0.946      1.105
REMARK  7 active torsions:
REMARK  status: ('A' for Active; 'I' for Inactive)
REMARK    1  A    between atoms: C3_9  and  C4_10
REMARK       I    between atoms: C4_10  and  N4_12
REMARK    2  A    between atoms: N4_12  and  C5_14
REMARK    3  A    between atoms: C8_23  and  N8_24
REMARK    4  A    between atoms: N8_24  and  C9_25
REMARK    5  A    between atoms: C12_28  and  S2_29
REMARK    6  A    between atoms: S2_29  and  N9_32
REMARK       I    between atoms: N9_32  and  C13_34
REMARK       I    between atoms: C13_34  and  N10_36
REMARK    7  A    between atoms: N10_36  and  C14_38
ROOT
HETATM    1  N1  UNL     1     -14.925   3.687   0.408  1.00  0.00    -0.191 NA
HETATM    2  C1  UNL     1     -14.203   2.951   0.933  1.00  0.00     0.111 C
HETATM    3  C2  UNL     1     -13.281   2.023   1.570  1.00  0.00     0.136 A
HETATM    4  S1  UNL     1     -11.576   1.971   1.548  1.00  0.00     0.015 SA
HETATM    5  N2  UNL     1     -11.361   0.614   2.522  1.00  0.00    -0.268 N
ATOM      6  H2  UNL     1     -10.486   0.176   2.809  1.00  0.00     0.195 HD
HETATM    7  N3  UNL     1     -12.574   0.259   2.821  1.00  0.00    -0.288 N
ATOM      8  H3  UNL     1     -12.736  -0.554   3.416  1.00  0.00     0.188 HD
HETATM    9  C3  UNL     1     -13.579   0.940   2.362  1.00  0.00     0.146 A
ENDROOT
BRANCH   9  10
HETATM   10  C4  UNL     1     -14.989   0.589   2.671  1.00  0.00     0.277 C
HETATM   11  O1  UNL     1     -15.609   1.151   3.616  1.00  0.00    -0.266 OA
HETATM   12  N4  UNL     1     -15.715  -0.376   1.947  1.00  0.00    -0.305 N
ATOM     13  H4  UNL     1     -15.916  -1.246   2.441  1.00  0.00     0.170 HD
BRANCH  12  14
HETATM   14  C5  UNL     1     -16.150  -0.303   0.764  1.00  0.00     0.140 A
HETATM   15  N5  UNL     1     -15.822  -1.140  -0.217  1.00  0.00    -0.337 N
HETATM   16  C6  UNL     1     -16.361  -0.949  -1.438  1.00  0.00     0.183 A
ATOM     17  H5  UNL     1     -15.177  -1.911  -0.048  1.00  0.00     0.168 HD
HETATM   18  N6  UNL     1     -17.210   0.042  -1.732  1.00  0.00    -0.336 N
HETATM   19  C7  UNL     1     -17.578   0.928  -0.761  1.00  0.00     0.140 A
ATOM     20  H6  UNL     1     -17.582   0.134  -2.677  1.00  0.00     0.168 HD
HETATM   21  N7  UNL     1     -18.374   1.985  -0.737  1.00  0.00    -0.300 N
HETATM   22  C20 UNL     1     -17.038   0.747   0.493  1.00  0.00     0.125 A
HETATM   23  C8  UNL     1     -18.383   2.527   0.521  1.00  0.00     0.261 A
ATOM     24  H7  UNL     1     -18.900   2.342  -1.534  1.00  0.00     0.171 HD
HETATM   25  N12 UNL     1     -17.542   1.724   1.240  1.00  0.00    -0.310 N
ATOM     26  H12 UNL     1     -17.328   1.858   2.228  1.00  0.00     0.170 HD
BRANCH  23  27
HETATM   27  N8  UNL     1     -18.953   3.471   0.967  1.00  0.00    -0.371 NA
BRANCH  27  28
HETATM   28  C9  UNL     1     -19.600   4.507   1.406  1.00  0.00     0.111 A
HETATM   29  C10 UNL     1     -18.919   5.671   1.828  1.00  0.00     0.046 A
HETATM   30  C11 UNL     1     -19.567   6.783   2.292  1.00  0.00     0.028 A
HETATM   31  C12 UNL     1     -20.927   6.795   2.361  1.00  0.00     0.080 A
HETATM   32  C18 UNL     1     -21.660   5.696   1.967  1.00  0.00     0.028 A
HETATM   33  C19 UNL     1     -21.003   4.595   1.507  1.00  0.00     0.046 A
BRANCH  31  34
HETATM   34  S2  UNL     1     -21.813   8.185   2.938  1.00  0.00     0.266 S
HETATM   35  O2  UNL     1     -21.384   8.530   4.342  1.00  0.00    -0.200 OA
HETATM   36  O3  UNL     1     -23.297   7.947   2.897  1.00  0.00    -0.200 OA
BRANCH  34  37
HETATM   37  N9  UNL     1     -21.414   9.525   1.917  1.00  0.00    -0.232 N
HETATM   38  C13 UNL     1     -20.301  10.357   2.165  1.00  0.00     0.330 C
HETATM   39  O4  UNL     1     -19.567  10.139   3.148  1.00  0.00    -0.246 OA
HETATM   40  N10 UNL     1     -20.019  11.435   1.301  1.00  0.00    -0.336 N
ATOM     41  H10 UNL     1     -20.615  11.619   0.494  1.00  0.00     0.164 HD
ATOM     42  H9  UNL     1     -22.003   9.720   1.107  1.00  0.00     0.183 HD
BRANCH  40  43
HETATM   43  C14 UNL     1     -18.874  12.276   1.573  1.00  0.00     0.113 C
HETATM   44  C15 UNL     1     -19.303  13.729   1.803  1.00  0.00     0.054 C
HETATM   45  C16 UNL     1     -18.024  14.466   1.496  1.00  0.00     0.234 C
HETATM   46  N11 UNL     1     -17.208  13.598   0.673  1.00  0.00    -0.073 N
HETATM   47  C17 UNL     1     -18.010  12.443   0.344  1.00  0.00     0.257 C
ATOM     48 2H11 UNL     1     -16.828  14.068  -0.149  1.00  0.00     0.277 HD
ATOM     49 1H11 UNL     1     -16.318  13.355   1.109  1.00  0.00     0.277 HD
ENDBRANCH  40  43
ENDBRANCH  34  37
ENDBRANCH  31  34
ENDBRANCH  27  28
ENDBRANCH  23  27
ENDBRANCH  12  14
ENDBRANCH   9  10
TORSDOF 7
ENDMDL