MODEL 1
REMARK VINA RESULT: -7.197253409      0.000      0.000
REMARK  6 active torsions:
REMARK  status: ('A' for Active; 'I' for Inactive)
REMARK    1  A    between atoms: O1_1  and  C1_3
REMARK    2  A    between atoms: C1_3  and  C2_4
REMARK    3  A    between atoms: C2_4  and  N1_5
REMARK    4  A    between atoms: N5_24  and  C12_25
REMARK    5  A    between atoms: N7_36  and  C19_37
REMARK    6  A    between atoms: C19_37  and  C20_38
ROOT
HETATM    1  N1  UNL     1     -10.163   2.333   3.622  1.00  0.00    -0.404 N
HETATM    2  C3  UNL     1     -10.020   1.957   2.243  1.00  0.00     0.144 C
HETATM    3  C4  UNL     1      -8.649   1.392   1.998  1.00  0.00     0.251 C
HETATM    4  N2  UNL     1      -8.497   0.051   2.569  1.00  0.00    -0.074 N
ATOM      5  H21 UNL     1      -9.391  -0.348   2.855  1.00  0.00     0.277 HD
ATOM      6  H22 UNL     1      -8.046   0.071   3.483  1.00  0.00     0.277 HD
HETATM    7  C5  UNL     1      -7.794  -0.803   1.633  1.00  0.00     0.234 C
HETATM    8  C6  UNL     1      -8.111  -2.251   1.812  1.00  0.00     0.055 C
HETATM    9  C7  UNL     1      -7.847  -2.975   0.503  1.00  0.00     0.234 C
HETATM   10  N3  UNL     1      -8.883  -3.945   0.205  1.00  0.00    -0.073 N
ATOM     11  H31 UNL     1      -9.354  -4.292   1.040  1.00  0.00     0.277 HD
ATOM     12  H32 UNL     1      -8.509  -4.837  -0.119  1.00  0.00     0.277 HD
HETATM   13  C8  UNL     1      -9.786  -3.343  -0.737  1.00  0.00     0.259 C
HETATM   14  C9  UNL     1     -10.698  -4.344  -1.398  1.00  0.00     0.259 C
HETATM   15  N4  UNL     1     -11.672  -3.621  -2.162  1.00  0.00    -0.072 N
ATOM     16  H41 UNL     1     -11.414  -3.597  -3.149  1.00  0.00     0.277 HD
ATOM     17  H42 UNL     1     -11.630  -2.623  -1.954  1.00  0.00     0.277 HD
HETATM   18  C10 UNL     1     -13.026  -4.129  -1.992  1.00  0.00     0.262 C
HETATM   19  C11 UNL     1     -13.939  -3.183  -2.717  1.00  0.00     0.300 C
HETATM   20  N5  UNL     1     -15.348  -3.444  -2.483  1.00  0.00     0.100 N
HETATM   21  C15 UNL     1     -15.790  -2.839  -1.240  1.00  0.00     0.299 C
HETATM   22  C16 UNL     1     -16.624  -1.638  -1.612  1.00  0.00     0.198 C
HETATM   23  O2  UNL     1     -17.128  -0.975  -0.521  1.00  0.00    -0.384 OA
HETATM   24  C17 UNL     1     -16.193  -0.676   0.439  1.00  0.00     0.212 C
HETATM   25  C18 UNL     1     -16.606   0.498   1.319  1.00  0.00     0.089 C
HETATM   26  N7  UNL     1     -16.364   1.733   0.686  1.00  0.00    -0.366 N
HETATM   27  C24 UNL     1     -15.973   2.846   1.439  1.00  0.00     0.065 C
HETATM   28  C25 UNL     1     -15.066   2.593   2.599  1.00  0.00     0.064 C
HETATM   29  C26 UNL     1     -13.766   1.946   2.289  1.00  0.00     0.124 C
HETATM   30  N8  UNL     1     -12.714   2.793   1.875  1.00  0.00    -0.400 N
ATOM     31  H8  UNL     1     -12.398   2.798   0.905  1.00  0.00     0.158 HD
HETATM   32  C27 UNL     1     -12.111   3.631   2.835  1.00  0.00     0.074 C
HETATM   33  C28 UNL     1     -11.378   2.976   3.955  1.00  0.00     0.161 C
ENDROOT
BRANCH  20  34
HETATM   34  C12 UNL     1     -15.555  -4.867  -2.497  1.00  0.00     0.274 C
HETATM   35  C13 UNL     1     -16.899  -5.328  -2.012  1.00  0.00     0.269 C
HETATM   36  N6  UNL     1     -16.909  -6.263  -3.144  1.00  0.00    -0.071 N
HETATM   37  C14 UNL     1     -16.040  -5.340  -3.847  1.00  0.00     0.269 C
ATOM     38  H62 UNL     1     -16.644  -7.240  -3.018  1.00  0.00     0.277 HD
ATOM     39  H61 UNL     1     -17.787  -6.574  -3.558  1.00  0.00     0.277 HD
ENDBRANCH  20  34
BRANCH  26  40
HETATM   40  C19 UNL     1     -17.377   2.080  -0.277  1.00  0.00     0.192 C
BRANCH  40  41
HETATM   41  C20 UNL     1     -18.625   2.610   0.298  1.00  0.00     0.070 A
HETATM   42  C21 UNL     1     -19.871   2.038   0.286  1.00  0.00     0.036 A
HETATM   43  C22 UNL     1     -20.731   2.911   0.952  1.00  0.00     0.027 A
HETATM   44  C23 UNL     1     -19.954   3.965   1.330  1.00  0.00     0.142 A
HETATM   45  O3  UNL     1     -18.746   3.748   0.931  1.00  0.00    -0.325 OA
ENDBRANCH  40  41
ENDBRANCH  26  40
BRANCH   1  46
HETATM   46  C2  UNL     1      -8.989   2.903   4.197  1.00  0.00     0.143 C
BRANCH  46  47
HETATM   47  C1  UNL     1      -8.627   2.314   5.545  1.00  0.00     0.183 C
BRANCH  47  48
HETATM   48  O1  UNL     1      -8.826   0.934   5.502  1.00  0.00    -0.399 OA
ATOM     49  H1  UNL     1      -8.229   0.518   6.113  1.00  0.00     0.209 HD
ENDBRANCH  47  48
ENDBRANCH  46  47
ENDBRANCH   1  46
TORSDOF 6
ENDMDL