MODEL 2
REMARK VINA RESULT: -6.766755212      4.175      7.362
REMARK  8 active torsions:
REMARK  status: ('A' for Active; 'I' for Inactive)
REMARK    1  A    between atoms: C1_2  and  N2_4
REMARK    2  A    between atoms: N2_4  and  C2_6
REMARK    3  A    between atoms: C4_10  and  C5_11
REMARK    4  A    between atoms: C6_14  and  S2_15
REMARK    5  A    between atoms: S2_15  and  C7_16
REMARK    6  A    between atoms: C9_19  and  N4_20
REMARK    7  A    between atoms: N4_20  and  C10_22
REMARK    8  A    between atoms: C10_22  and  N5_24
ROOT
HETATM    1  S2  UNL     1     -14.377  -2.748  -1.361  1.00  0.00    -0.105 SA
ENDROOT
BRANCH   1   2
HETATM    2  C6  UNL     1     -13.834  -1.615  -0.137  1.00  0.00     0.023 C
HETATM    3  C4  UNL     1     -14.725  -1.220   0.777  1.00  0.00     0.129 C
HETATM    4  N3  UNL     1     -14.415  -0.317   1.811  1.00  0.00    -0.292 N
HETATM    5  C3  UNL     1     -14.697   0.823   2.655  1.00  0.00     0.251 C
HETATM    6  C15 UNL     1     -13.165  -0.449   2.537  1.00  0.00     0.187 C
HETATM    7  C2  UNL     1     -13.218   1.042   2.646  1.00  0.00     0.210 C
HETATM    8  O1  UNL     1     -15.755   1.277   3.098  1.00  0.00    -0.271 OA
HETATM    9  S6  UNL     1     -11.825  -1.102   1.523  1.00  0.00    -0.135 SA
HETATM   10  C14 UNL     1     -12.446  -1.147  -0.170  1.00  0.00     0.124 C
BRANCH   3  11
HETATM   11  C5  UNL     1     -16.101  -1.731   0.708  1.00  0.00     0.228 C
HETATM   12  O2  UNL     1     -16.440  -2.895   0.985  1.00  0.00    -0.643 OA
HETATM   13  O3  UNL     1     -17.119  -0.867   0.305  1.00  0.00    -0.643 OA
ENDBRANCH   3  11
BRANCH   7  14
HETATM   14  N2  UNL     1     -12.654   1.710   3.763  1.00  0.00    -0.353 N
ATOM     15  H2  UNL     1     -13.212   1.667   4.616  1.00  0.00     0.162 HD
BRANCH  14  16
HETATM   16  C1  UNL     1     -11.458   2.418   3.878  1.00  0.00     0.181 C
HETATM   17  N1  UNL     1     -11.443   3.832   3.952  1.00  0.00    -0.070 NA
HETATM   18  S1  UNL     1     -10.030   1.656   3.959  1.00  0.00    -0.044 SA
ENDBRANCH  14  16
ENDBRANCH   7  14
ENDBRANCH   1   2
BRANCH   1  19
HETATM   19  C7  UNL     1     -14.212  -2.220  -3.049  1.00  0.00     0.176 C
HETATM   20  S3  UNL     1     -15.581  -2.873  -4.038  1.00  0.00    -0.140 SA
HETATM   21  C8  UNL     1     -16.747  -1.491  -4.217  1.00  0.00     0.112 C
HETATM   22  C9  UNL     1     -16.427  -0.502  -3.143  1.00  0.00     0.157 C
HETATM   23  S5  UNL     1     -14.587  -0.433  -3.123  1.00  0.00    -0.117 SA
BRANCH  22  24
HETATM   24  N4  UNL     1     -16.978   0.788  -3.324  1.00  0.00    -0.352 N
ATOM     25  H4  UNL     1     -17.704   0.901  -4.031  1.00  0.00     0.163 HD
BRANCH  24  26
HETATM   26  C10 UNL     1     -16.590   1.922  -2.595  1.00  0.00     0.189 C
HETATM   27  S4  UNL     1     -15.558   2.997  -3.238  1.00  0.00    -0.039 SA
BRANCH  26  28
HETATM   28  N5  UNL     1     -17.102   2.167  -1.289  1.00  0.00    -0.263 N
HETATM   29  C11 UNL     1     -16.360   2.987  -0.381  1.00  0.00     0.178 C
HETATM   30  C12 UNL     1     -17.147   3.467   0.798  1.00  0.00     0.200 C
HETATM   31  O4  UNL     1     -18.529   3.302   0.627  1.00  0.00    -0.322 OA
HETATM   32  C13 UNL     1     -19.039   2.153   0.051  1.00  0.00     0.246 C
HETATM   33  N6  UNL     1     -20.273   1.558   0.429  1.00  0.00    -0.055 NA
HETATM   34  N7  UNL     1     -18.318   1.613  -0.889  1.00  0.00    -0.263 N
ATOM     35  H7  UNL     1     -18.650   0.763  -1.344  1.00  0.00     0.190 HD
ENDBRANCH  26  28
ENDBRANCH  24  26
ENDBRANCH  22  24
ENDBRANCH   1  19
TORSDOF 8
ENDMDL