MODEL 3
REMARK VINA RESULT: -6.080346744      2.395      5.342
REMARK  14 active torsions:
REMARK  status: ('A' for Active; 'I' for Inactive)
REMARK    1  A    between atoms: N1_1  and  C1_5
REMARK    2  A    between atoms: N2_8  and  C4_9
REMARK    3  A    between atoms: C4_9  and  S2_11
REMARK    4  A    between atoms: S2_11  and  S3_12
REMARK    5  A    between atoms: S3_12  and  C5_13
REMARK    6  A    between atoms: C5_13  and  N3_15
REMARK    7  A    between atoms: N3_15  and  C6_17
REMARK    8  A    between atoms: C7_18  and  O1_19
REMARK    9  A    between atoms: O1_19  and  C8_20
REMARK   10  A    between atoms: C8_20  and  C9_22
REMARK   11  A    between atoms: C9_22  and  C10_23
REMARK   12  A    between atoms: C9_22  and  N4_26
REMARK   13  A    between atoms: C16_32  and  O5_33
REMARK   14  A    between atoms: C17_35  and  O6_36
ROOT
HETATM    1  C6  UNL     1     -16.330   1.382  -0.956  1.00  0.00     0.144 C
HETATM    2  C7  UNL     1     -16.126   0.069  -0.238  1.00  0.00     0.159 C
HETATM    3  C15 UNL     1     -16.639   0.277   1.180  1.00  0.00     0.069 C
HETATM    4  C16 UNL     1     -17.786   1.212   0.983  1.00  0.00     0.151 C
HETATM    5  C17 UNL     1     -17.407   2.085  -0.191  1.00  0.00     0.172 C
ENDROOT
BRANCH   1   6
HETATM    6  N3  UNL     1     -15.104   2.165  -0.825  1.00  0.00    -0.365 N
ATOM      7  H3  UNL     1     -14.240   1.705  -0.539  1.00  0.00     0.161 HD
BRANCH   6   8
HETATM    8  C5  UNL     1     -15.104   3.555  -1.090  1.00  0.00     0.146 C
HETATM    9  S4  UNL     1     -15.413   4.078  -2.601  1.00  0.00    -0.052 SA
BRANCH   8  10
HETATM   10  S3  UNL     1     -14.759   4.698   0.248  1.00  0.00    -0.021 SA
BRANCH  10  11
HETATM   11  S2  UNL     1     -14.785   3.707   2.098  1.00  0.00    -0.020 SA
BRANCH  11  12
HETATM   12  C4  UNL     1     -13.425   2.608   2.269  1.00  0.00     0.147 C
HETATM   13  S1  UNL     1     -11.921   3.284   1.958  1.00  0.00    -0.052 SA
BRANCH  12  14
HETATM   14  N2  UNL     1     -13.440   1.267   2.627  1.00  0.00    -0.366 N
HETATM   15  C3  UNL     1     -12.829   0.252   1.754  1.00  0.00     0.126 C
HETATM   16  C2  UNL     1     -11.717  -0.360   2.567  1.00  0.00     0.052 C
HETATM   17  C1  UNL     1     -12.285  -1.066   3.752  1.00  0.00     0.186 C
HETATM   18  C19 UNL     1     -13.710  -0.720   4.002  1.00  0.00     0.052 C
HETATM   19  C18 UNL     1     -14.008   0.773   3.845  1.00  0.00     0.126 C
BRANCH  17  20
HETATM   20  N1  UNL     1     -11.458  -0.859   4.947  1.00  0.00    -0.075 N
ATOM     21  H13 UNL     1     -11.081   0.088   4.982  1.00  0.00     0.274 HD
ATOM     22  H12 UNL     1     -12.025  -0.833   5.795  1.00  0.00     0.274 HD
ATOM     23  H11 UNL     1     -10.718  -1.558   5.014  1.00  0.00     0.274 HD
ENDBRANCH  17  20
ENDBRANCH  12  14
ENDBRANCH  11  12
ENDBRANCH  10  11
ENDBRANCH   8  10
ENDBRANCH   6   8
ENDBRANCH   1   6
BRANCH   2  24
HETATM   24  O1  UNL     1     -16.726  -1.007  -0.882  1.00  0.00    -0.312 OA
BRANCH  24  25
HETATM   25  C8  UNL     1     -16.860  -2.215  -0.222  1.00  0.00     0.293 C
HETATM   26  O2  UNL     1     -17.928  -2.425   0.410  1.00  0.00    -0.262 OA
BRANCH  25  27
HETATM   27  C9  UNL     1     -15.817  -3.273  -0.220  1.00  0.00     0.285 C
BRANCH  27  28
HETATM   28  C10 UNL     1     -16.085  -4.251  -1.278  1.00  0.00     0.207 C
HETATM   29  O3  UNL     1     -15.617  -5.412  -1.165  1.00  0.00    -0.646 OA
HETATM   30  O4  UNL     1     -16.834  -3.969  -2.411  1.00  0.00    -0.646 OA
ENDBRANCH  27  28
BRANCH  27  31
HETATM   31  N4  UNL     1     -14.497  -2.782  -0.166  1.00  0.00    -0.371 N
HETATM   32  C11 UNL     1     -13.774  -2.675  -1.383  1.00  0.00     0.123 C
HETATM   33  C12 UNL     1     -12.290  -2.689  -0.990  1.00  0.00     0.025 C
HETATM   34  C13 UNL     1     -12.300  -3.591   0.213  1.00  0.00     0.046 C
HETATM   35  C14 UNL     1     -13.647  -3.299   0.833  1.00  0.00     0.059 C
ENDBRANCH  27  31
ENDBRANCH  25  27
ENDBRANCH  24  25
ENDBRANCH   2  24
BRANCH   5  36
HETATM   36  O6  UNL     1     -18.539   2.280  -0.999  1.00  0.00    -0.391 OA
ATOM     37  H6  UNL     1     -19.312   1.911  -0.587  1.00  0.00     0.210 HD
ENDBRANCH   5  36
BRANCH   4  38
HETATM   38  O5  UNL     1     -18.969   0.507   0.716  1.00  0.00    -0.393 OA
ATOM     39  H5  UNL     1     -19.137   0.465  -0.219  1.00  0.00     0.210 HD
ENDBRANCH   4  38
TORSDOF 14
ENDMDL