MODEL 3
REMARK VINA RESULT: -7.997905019      3.880      6.469
REMARK  7 active torsions:
REMARK  status: ('A' for Active; 'I' for Inactive)
REMARK    1  A    between atoms: C2_2  and  N1_3
REMARK    2  A    between atoms: C2_2  and  C17_37
REMARK       I    between atoms: N5_7  and  C3_8
REMARK       I    between atoms: C3_8  and  N6_10
REMARK    3  A    between atoms: N6_10  and  C4_12
REMARK    4  A    between atoms: C4_12  and  C5_13
REMARK    5  A    between atoms: C5_13  and  S1_14
REMARK    6  A    between atoms: S1_14  and  C6_17
REMARK    7  A    between atoms: C9_25  and  N8_26
ROOT
HETATM    1  N1  UNL     1      -9.818   0.603   3.545  1.00  0.00    -0.174 NA
HETATM    2  N2  UNL     1      -9.878   1.905   3.978  1.00  0.00    -0.033 NA
HETATM    3  N3  UNL     1     -11.152   2.433   4.024  1.00  0.00     0.000 NA
HETATM    4  N4  UNL     1     -11.812   2.377   2.810  1.00  0.00    -0.003 NA
HETATM    5  N5  UNL     1     -11.958   1.001   2.476  1.00  0.00    -0.195 N
HETATM    6  C3  UNL     1     -12.923   0.621   1.513  1.00  0.00     0.337 C
HETATM    7  O1  UNL     1     -13.599   1.522   0.964  1.00  0.00    -0.246 OA
HETATM    8  N6  UNL     1     -13.135  -0.723   1.165  1.00  0.00    -0.341 N
ATOM      9  H6  UNL     1     -12.579  -1.440   1.631  1.00  0.00     0.164 HD
HETATM   10  C15 UNL     1     -11.099   0.072   3.124  1.00  0.00     0.310 C
HETATM   11  C16 UNL     1     -11.700  -0.617   4.266  1.00  0.00     0.103 C
HETATM   12  N10 UNL     1     -12.168  -1.145   5.182  1.00  0.00    -0.194 NA
ENDROOT
BRANCH   1  13
HETATM   13  C2  UNL     1      -8.764   0.289   2.634  1.00  0.00     0.084 C
HETATM   14  C1  UNL     1      -8.212   1.494   1.901  1.00  0.00     0.029 C
BRANCH  13  15
HETATM   15  C17 UNL     1      -7.713  -0.571   3.254  1.00  0.00    -0.034 C
HETATM   16  C18 UNL     1      -8.110  -0.835   4.687  1.00  0.00     0.016 C
HETATM   17  C19 UNL     1      -6.337   0.063   3.227  1.00  0.00     0.016 C
HETATM   18  C20 UNL     1      -7.673  -1.923   2.544  1.00  0.00     0.016 C
ENDBRANCH  13  15
ENDBRANCH   1  13
BRANCH   8  19
HETATM   19  C4  UNL     1     -14.097  -1.132   0.188  1.00  0.00     0.140 C
BRANCH  19  20
HETATM   20  C5  UNL     1     -15.341  -1.713   0.790  1.00  0.00     0.168 C
BRANCH  20  21
HETATM   21  S1  UNL     1     -16.725  -1.228  -0.223  1.00  0.00     0.209 S
HETATM   22  O2  UNL     1     -16.457  -1.299  -1.670  1.00  0.00    -0.220 OA
HETATM   23  O3  UNL     1     -17.811  -2.257   0.070  1.00  0.00    -0.220 OA
BRANCH  21  24
HETATM   24  C6  UNL     1     -17.316   0.378   0.245  1.00  0.00     0.213 A
HETATM   25  N7  UNL     1     -16.408   1.253   0.516  1.00  0.00    -0.256 N
HETATM   26  S2  UNL     1     -16.771   2.863   0.989  1.00  0.00     0.267 S
ATOM     27  H7  UNL     1     -15.428   0.976   0.445  1.00  0.00     0.181 HD
HETATM   28  O4  UNL     1     -16.204   3.776  -0.087  1.00  0.00    -0.200 OA
HETATM   29  O5  UNL     1     -16.155   3.224   2.308  1.00  0.00    -0.200 OA
HETATM   30  C7  UNL     1     -18.512   3.006   1.013  1.00  0.00     0.108 A
HETATM   31  C8  UNL     1     -19.133   4.179   1.356  1.00  0.00     0.057 A
HETATM   32  C14 UNL     1     -19.263   1.908   0.677  1.00  0.00     0.057 A
HETATM   33  C9  UNL     1     -20.509   4.354   1.391  1.00  0.00     0.031 A
HETATM   34  C12 UNL     1     -21.267   3.249   1.054  1.00  0.00     0.031 A
HETATM   35  C13 UNL     1     -20.653   2.069   0.709  1.00  0.00     0.033 A
HETATM   36  N9  UNL     1     -18.686   0.660   0.313  1.00  0.00    -0.331 N
ATOM     37  H9  UNL     1     -19.328  -0.097   0.080  1.00  0.00     0.168 HD
BRANCH  33  38
HETATM   38  N8  UNL     1     -21.078   5.595   1.754  1.00  0.00    -0.390 N
HETATM   39  C10 UNL     1     -20.219   6.693   2.094  1.00  0.00     0.149 C
HETATM   40  C11 UNL     1     -22.504   5.748   1.780  1.00  0.00     0.149 C
ENDBRANCH  33  38
ENDBRANCH  21  24
ENDBRANCH  20  21
ENDBRANCH  19  20
ENDBRANCH   8  19
TORSDOF 7
ENDMDL