MODEL 3
REMARK VINA RESULT: -8.031412514      1.641      4.842
REMARK  8 active torsions:
REMARK  status: ('A' for Active; 'I' for Inactive)
REMARK    1  A    between atoms: C4_7  and  C5_8
REMARK       I    between atoms: C5_8  and  N3_10
REMARK    2  A    between atoms: N3_10  and  N4_12
REMARK       I    between atoms: N4_12  and  C6_14
REMARK       I    between atoms: C6_14  and  N5_16
REMARK    3  A    between atoms: N5_16  and  N6_18
REMARK    4  A    between atoms: N6_18  and  C7_20
REMARK    5  A    between atoms: N7_21  and  C8_22
REMARK    6  A    between atoms: C16_33  and  C17_34
REMARK       I    between atoms: C17_34  and  N9_36
REMARK    7  A    between atoms: N9_36  and  N10_38
REMARK    8  A    between atoms: N12_44  and  C19_45
ROOT
HETATM    1  C7  UNL     1     -16.325   0.753   0.358  1.00  0.00     0.715 A
HETATM    2  N7  UNL     1     -16.822   1.833  -0.204  1.00  0.00    -0.107 N
HETATM    3  C14 UNL     1     -16.668   1.994  -1.557  1.00  0.00     0.297 A
HETATM    4  O3  UNL     1     -17.138   3.022  -2.110  1.00  0.00    -0.264 OA
HETATM    5  C15 UNL     1     -16.020   1.075  -2.344  1.00  0.00     0.149 A
HETATM    6  N8  UNL     1     -15.708   0.930  -3.641  1.00  0.00    -0.330 N
ATOM      7  H8  UNL     1     -15.945   1.596  -4.377  1.00  0.00     0.168 HD
HETATM    8  C16 UNL     1     -15.036  -0.224  -3.832  1.00  0.00     0.178 A
HETATM    9  N11 UNL     1     -14.921  -0.818  -2.637  1.00  0.00    -0.321 N
ATOM     10  H11 UNL     1     -14.459  -1.711  -2.463  1.00  0.00     0.169 HD
HETATM   11  C18 UNL     1     -15.522  -0.039  -1.684  1.00  0.00     0.163 A
HETATM   12  N12 UNL     1     -15.659  -0.216  -0.371  1.00  0.00    -0.128 N
ENDROOT
BRANCH   1  13
HETATM   13  N6  UNL     1     -16.397   0.483   1.559  1.00  0.00    -0.127 N
ATOM     14  H6  UNL     1     -17.180  -0.147   1.738  1.00  0.00     0.206 HD
BRANCH  13  15
HETATM   15  N5  UNL     1     -15.756   0.770   2.695  1.00  0.00    -0.236 N
HETATM   16  C6  UNL     1     -14.521   1.520   2.702  1.00  0.00     0.353 C
HETATM   17  N4  UNL     1     -13.857   1.816   3.902  1.00  0.00    -0.247 N
HETATM   18  O2  UNL     1     -14.066   1.895   1.615  1.00  0.00    -0.244 OA
ATOM     19  H4  UNL     1     -14.271   1.488   4.776  1.00  0.00     0.192 HD
ATOM     20  H5  UNL     1     -16.149   0.451   3.581  1.00  0.00     0.192 HD
BRANCH  17  21
HETATM   21  N3  UNL     1     -12.653   2.538   3.966  1.00  0.00    -0.259 N
HETATM   22  C5  UNL     1     -11.399   1.929   4.056  1.00  0.00     0.304 C
HETATM   23  O1  UNL     1     -11.434   0.641   4.078  1.00  0.00    -0.263 OA
ATOM     24  H3  UNL     1     -12.698   3.557   3.946  1.00  0.00     0.190 HD
BRANCH  22  25
HETATM   25  C4  UNL     1     -10.103   2.551   4.126  1.00  0.00     0.177 A
HETATM   26  N1  UNL     1      -9.129   2.740   3.232  1.00  0.00    -0.342 N
HETATM   27  C1  UNL     1      -9.163   2.308   1.851  1.00  0.00     0.157 C
HETATM   28  C2  UNL     1      -8.068   3.399   3.788  1.00  0.00     0.109 A
HETATM   29  C3  UNL     1      -8.415   3.623   5.080  1.00  0.00     0.107 A
HETATM   30  N2  UNL     1      -9.617   3.119   5.270  1.00  0.00    -0.346 N
ATOM     31  H2  UNL     1     -10.121   3.148   6.156  1.00  0.00     0.167 HD
ENDBRANCH  22  25
ENDBRANCH  17  21
ENDBRANCH  13  15
ENDBRANCH   1  13
BRANCH   2  32
HETATM   32  C8  UNL     1     -17.513   2.871   0.466  1.00  0.00     0.060 A
HETATM   33  C9  UNL     1     -18.893   2.840   0.643  1.00  0.00     0.030 A
HETATM   34  C10 UNL     1     -19.560   3.871   1.264  1.00  0.00     0.002 A
HETATM   35  C11 UNL     1     -18.890   4.978   1.738  1.00  0.00     0.000 A
HETATM   36  C12 UNL     1     -17.523   5.023   1.569  1.00  0.00     0.002 A
HETATM   37  C13 UNL     1     -16.853   3.984   0.943  1.00  0.00     0.030 A
ENDBRANCH   2  32
BRANCH  12  38
HETATM   38  C19 UNL     1     -15.126  -1.369   0.258  1.00  0.00     0.059 A
HETATM   39  C20 UNL     1     -13.798  -1.450   0.634  1.00  0.00     0.030 A
HETATM   40  C21 UNL     1     -13.294  -2.581   1.244  1.00  0.00     0.002 A
HETATM   41  C22 UNL     1     -14.083  -3.675   1.505  1.00  0.00     0.000 A
HETATM   42  C23 UNL     1     -15.423  -3.612   1.135  1.00  0.00     0.002 A
HETATM   43  C24 UNL     1     -15.923  -2.464   0.519  1.00  0.00     0.030 A
ENDBRANCH  12  38
BRANCH   8  44
HETATM   44  C17 UNL     1     -14.529  -0.726  -5.120  1.00  0.00     0.303 C
HETATM   45  O4  UNL     1     -13.659  -0.091  -5.760  1.00  0.00    -0.263 OA
HETATM   46  N9  UNL     1     -15.020  -1.936  -5.652  1.00  0.00    -0.270 N
ATOM     47  H9  UNL     1     -15.728  -2.464  -5.143  1.00  0.00     0.189 HD
BRANCH  46  48
HETATM   48  N10 UNL     1     -14.540  -2.413  -6.873  1.00  0.00    -0.342 N
ATOM     49 2H10 UNL     1     -15.200  -2.812  -7.540  1.00  0.00     0.176 HD
ATOM     50 1H10 UNL     1     -13.545  -2.360  -7.090  1.00  0.00     0.176 HD
ENDBRANCH  46  48
ENDBRANCH   8  44
TORSDOF 8
ENDMDL