MODEL 2
REMARK VINA RESULT: -9.267629370      1.111      2.299
REMARK  10 active torsions:
REMARK  status: ('A' for Active; 'I' for Inactive)
REMARK    1  A    between atoms: C2_2  and  N1_3
REMARK    2  A    between atoms: C2_2  and  C4_8
REMARK       I    between atoms: N1_3  and  C3_5
REMARK       I    between atoms: C4_8  and  N3_10
REMARK    3  A    between atoms: N3_10  and  C5_12
REMARK    4  A    between atoms: C8_15  and  C9_16
REMARK    5  A    between atoms: C10_17  and  C11_18
REMARK    6  A    between atoms: C12_21  and  N5_22
REMARK    7  A    between atoms: N6_25  and  C15_26
REMARK    8  A    between atoms: C17_28  and  N7_29
REMARK    9  A    between atoms: N7_29  and  C18_31
REMARK   10  A    between atoms: C25_44  and  N11_45
ROOT
HETATM    1  C11 UNL     1     -17.073  -0.229   0.558  1.00  0.00     0.191 A
HETATM    2  N4  UNL     1     -15.828  -0.205   1.069  1.00  0.00    -0.167 N
ATOM      3  H4  UNL     1     -15.541   0.632   1.575  1.00  0.00     0.186 HD
HETATM    4  C12 UNL     1     -14.942  -1.196   0.962  1.00  0.00     0.697 A
HETATM    5  N10 UNL     1     -15.326  -2.293   0.296  1.00  0.00    -0.022 N
ATOM      6  H10 UNL     1     -14.688  -3.081   0.185  1.00  0.00     0.203 HD
HETATM    7  C25 UNL     1     -16.573  -2.341  -0.227  1.00  0.00     0.692 A
HETATM    8  N12 UNL     1     -17.448  -1.317  -0.101  1.00  0.00    -0.168 N
ATOM      9  H12 UNL     1     -18.382  -1.380  -0.506  1.00  0.00     0.186 HD
ENDROOT
BRANCH   1  10
HETATM   10  C10 UNL     1     -17.985   0.869   0.707  1.00  0.00    -0.024 C
HETATM   11  C9  UNL     1     -18.744   1.789   0.857  1.00  0.00    -0.057 C
BRANCH  11  12
HETATM   12  C8  UNL     1     -19.641   2.885   1.065  1.00  0.00     0.033 A
HETATM   13  C7  UNL     1     -21.009   2.814   0.946  1.00  0.00     0.026 A
HETATM   14  C6  UNL     1     -21.828   3.943   1.168  1.00  0.00     0.050 A
HETATM   15  C5  UNL     1     -21.278   5.145   1.510  1.00  0.00     0.107 A
HETATM   16  N13 UNL     1     -19.921   5.182   1.619  1.00  0.00    -0.351 N
HETATM   17  C26 UNL     1     -19.130   4.118   1.411  1.00  0.00     0.110 A
ATOM     18  H13 UNL     1     -19.482   6.066   1.874  1.00  0.00     0.166 HD
BRANCH  15  19
HETATM   19  N3  UNL     1     -21.999   6.317   1.750  1.00  0.00    -0.311 N
HETATM   20  C4  UNL     1     -21.530   7.547   2.249  1.00  0.00     0.245 C
HETATM   21  O2  UNL     1     -20.338   7.768   2.560  1.00  0.00    -0.271 OA
ATOM     22  H3  UNL     1     -22.996   6.276   1.536  1.00  0.00     0.170 HD
BRANCH  20  23
HETATM   23  C2  UNL     1     -22.544   8.658   2.412  1.00  0.00     0.174 C
HETATM   24  C1  UNL     1     -22.619   9.011   3.868  1.00  0.00     0.042 C
BRANCH  23  25
HETATM   25  N1  UNL     1     -22.130   9.762   1.585  1.00  0.00    -0.333 N
HETATM   26  C3  UNL     1     -22.799  10.010   0.372  1.00  0.00     0.329 C
HETATM   27  N2  UNL     1     -22.383  11.113  -0.451  1.00  0.00    -0.040 NA
HETATM   28  O1  UNL     1     -23.763   9.277  -0.007  1.00  0.00    -0.251 OA
ATOM     29  H1  UNL     1     -21.357  10.361   1.877  1.00  0.00     0.164 HD
ENDBRANCH  23  25
ENDBRANCH  20  23
ENDBRANCH  15  19
ENDBRANCH  11  12
ENDBRANCH   1  10
BRANCH   4  30
HETATM   30  N5  UNL     1     -13.663  -1.027   1.552  1.00  0.00    -0.214 N
HETATM   31  C13 UNL     1     -13.226  -1.832   2.647  1.00  0.00     0.161 C
HETATM   32  C14 UNL     1     -12.261  -1.182   3.586  1.00  0.00     0.145 C
HETATM   33  N6  UNL     1     -11.266  -0.350   2.931  1.00  0.00    -0.364 N
HETATM   34  C23 UNL     1     -11.340  -0.216   1.502  1.00  0.00     0.145 C
HETATM   35  C24 UNL     1     -12.767  -0.014   1.030  1.00  0.00     0.161 C
BRANCH  33  36
HETATM   36  C15 UNL     1     -10.296   0.279   3.755  1.00  0.00     0.107 A
HETATM   37  C16 UNL     1     -10.238   1.633   3.996  1.00  0.00     0.096 A
HETATM   38  C17 UNL     1      -9.277   2.216   4.817  1.00  0.00     0.105 A
HETATM   39  N8  UNL     1      -8.372   1.419   5.390  1.00  0.00    -0.339 N
HETATM   40  C22 UNL     1      -8.406   0.100   5.170  1.00  0.00     0.183 A
ATOM     41  H8  UNL     1      -7.654   1.816   5.995  1.00  0.00     0.168 HD
HETATM   42  N9  UNL     1      -9.335  -0.445   4.381  1.00  0.00    -0.339 N
ATOM     43  H9  UNL     1      -9.322  -1.456   4.242  1.00  0.00     0.168 HD
BRANCH  38  44
HETATM   44  N7  UNL     1      -9.337   3.466   4.955  1.00  0.00    -0.368 N
ATOM     45  H7  UNL     1     -10.164   3.801   5.450  1.00  0.00     0.161 HD
BRANCH  44  46
HETATM   46  C18 UNL     1      -8.442   4.489   4.534  1.00  0.00     0.021 C
HETATM   47  C19 UNL     1      -7.617   4.124   3.340  1.00  0.00     0.037 C
HETATM   48  C20 UNL     1      -9.240   5.731   4.207  1.00  0.00     0.037 C
HETATM   49  C21 UNL     1      -7.476   4.875   5.663  1.00  0.00     0.037 C
ENDBRANCH  44  46
ENDBRANCH  38  44
ENDBRANCH  33  36
ENDBRANCH   4  30
BRANCH   7  50
HETATM   50  N11 UNL     1     -16.927  -3.413  -0.870  1.00  0.00    -0.234 N
ATOM     51 2H11 UNL     1     -17.243  -3.340  -1.837  1.00  0.00     0.174 HD
ATOM     52 1H11 UNL     1     -16.878  -4.305  -0.380  1.00  0.00     0.174 HD
ENDBRANCH   7  50
TORSDOF 10
ENDMDL