MODEL 2
REMARK VINA RESULT: -10.783939608      1.528      4.834
REMARK  8 active torsions:
REMARK  status: ('A' for Active; 'I' for Inactive)
REMARK    1  A    between atoms: C4_4  and  C5_5
REMARK    2  A    between atoms: C5_5  and  N1_6
REMARK    3  A    between atoms: N1_6  and  C6_8
REMARK    4  A    between atoms: C7_11  and  N3_12
REMARK    5  A    between atoms: C13_18  and  N4_19
REMARK    6  A    between atoms: C15_26  and  N6_27
REMARK    7  A    between atoms: N6_27  and  C16_29
REMARK    8  A    between atoms: C22_40  and  C23_41
ROOT
HETATM    1  C6  UNL     1     -16.739   2.323   1.269  1.00  0.00     0.707 A
HETATM    2  N2  UNL     1     -15.730   2.205   2.126  1.00  0.00    -0.021 N
ATOM      3  H2  UNL     1     -15.670   2.868   2.899  1.00  0.00     0.203 HD
HETATM    4  C7  UNL     1     -14.781   1.251   2.024  1.00  0.00     0.709 A
HETATM    5  N5  UNL     1     -14.911   0.415   0.997  1.00  0.00    -0.021 N
ATOM      6  H5  UNL     1     -14.211  -0.319   0.890  1.00  0.00     0.203 HD
HETATM    7  C15 UNL     1     -15.914   0.470   0.078  1.00  0.00     0.707 A
HETATM    8  N8  UNL     1     -16.812   1.438   0.245  1.00  0.00    -0.021 N
ATOM      9  H8  UNL     1     -17.581   1.517  -0.420  1.00  0.00     0.203 HD
ENDROOT
BRANCH   1  10
HETATM   10  N1  UNL     1     -17.656   3.221   1.349  1.00  0.00    -0.221 N
ATOM     11  H1  UNL     1     -17.410   4.152   1.685  1.00  0.00     0.178 HD
BRANCH  10  12
HETATM   12  C5  UNL     1     -19.033   2.950   0.974  1.00  0.00     0.176 C
BRANCH  12  13
HETATM   13  C4  UNL     1     -19.942   4.053   1.306  1.00  0.00    -0.039 A
HETATM   14  C3  UNL     1     -21.311   3.943   1.329  1.00  0.00     0.016 A
HETATM   15  C2  UNL     1     -22.170   5.003   1.651  1.00  0.00    -0.051 A
HETATM   16  C1  UNL     1     -23.638   4.749   1.642  1.00  0.00     0.049 C
HETATM   17  C22 UNL     1     -21.590   6.200   1.954  1.00  0.00    -0.004 A
HETATM   18  C21 UNL     1     -20.234   6.339   1.938  1.00  0.00     0.012 A
HETATM   19  C20 UNL     1     -19.398   5.278   1.617  1.00  0.00     0.009 A
BRANCH  17  20
HETATM   20  C23 UNL     1     -22.401   7.401   2.289  1.00  0.00     0.135 C
HETATM   21  C24 UNL     1     -23.423   6.892   3.340  1.00  0.00     0.069 C
HETATM   22  N9  UNL     1     -23.106   7.922   1.192  1.00  0.00    -0.334 N
HETATM   23  C25 UNL     1     -22.910   9.077   0.705  1.00  0.00     0.192 C
ATOM     24  H9  UNL     1     -23.821   7.336   0.760  1.00  0.00     0.165 HD
HETATM   25  N10 UNL     1     -23.724   9.456  -0.441  1.00  0.00    -0.063 NA
HETATM   26  N11 UNL     1     -22.007  10.027   1.260  1.00  0.00    -0.305 N
HETATM   27  C26 UNL     1     -21.388   9.640   2.328  1.00  0.00     0.194 C
ATOM     28  H11 UNL     1     -21.858  10.946   0.845  1.00  0.00     0.171 HD
HETATM   29  N12 UNL     1     -20.444  10.530   2.959  1.00  0.00    -0.063 NA
HETATM   30  N13 UNL     1     -21.648   8.411   2.955  1.00  0.00    -0.329 N
HETATM   31  C27 UNL     1     -21.146   8.218   4.331  1.00  0.00     0.155 C
ENDBRANCH  17  20
ENDBRANCH  12  13
ENDBRANCH  10  12
ENDBRANCH   1  10
BRANCH   4  32
HETATM   32  N3  UNL     1     -13.714   1.162   2.962  1.00  0.00    -0.215 N
HETATM   33  C8  UNL     1     -14.012   0.176   4.004  1.00  0.00     0.141 C
HETATM   34  C9  UNL     1     -13.211  -1.073   3.757  1.00  0.00     0.020 C
HETATM   35  C10 UNL     1     -12.323  -1.002   2.563  1.00  0.00     0.002 C
HETATM   36  C11 UNL     1     -11.019  -0.326   2.770  1.00  0.00     0.002 C
HETATM   37  C12 UNL     1     -10.972   0.654   3.900  1.00  0.00     0.034 C
HETATM   38  C13 UNL     1     -11.493   2.006   3.587  1.00  0.00     0.202 C
HETATM   39  C14 UNL     1     -12.643   2.052   2.637  1.00  0.00     0.173 C
BRANCH  38  40
HETATM   40  N4  UNL     1     -11.784   2.704   4.838  1.00  0.00    -0.073 N
ATOM     41  H43 UNL     1     -12.627   3.274   4.778  1.00  0.00     0.274 HD
ATOM     42  H42 UNL     1     -12.092   2.069   5.574  1.00  0.00     0.274 HD
ATOM     43  H41 UNL     1     -10.965   3.248   5.111  1.00  0.00     0.274 HD
ENDBRANCH  38  40
ENDBRANCH   4  32
BRANCH   7  44
HETATM   44  N6  UNL     1     -15.954  -0.363  -0.856  1.00  0.00    -0.219 N
ATOM     45  H6  UNL     1     -15.362  -0.088  -1.639  1.00  0.00     0.178 HD
BRANCH  44  46
HETATM   46  C16 UNL     1     -16.611  -1.580  -1.093  1.00  0.00     0.126 C
HETATM   47  C17 UNL     1     -16.284  -2.244  -2.409  1.00  0.00     0.055 C
HETATM   48  C18 UNL     1     -16.178  -3.703  -2.097  1.00  0.00     0.234 C
HETATM   49  N7  UNL     1     -16.762  -3.870  -0.773  1.00  0.00    -0.073 N
HETATM   50  C19 UNL     1     -16.419  -2.641  -0.062  1.00  0.00     0.257 C
ATOM     51  H72 UNL     1     -17.760  -4.080  -0.783  1.00  0.00     0.277 HD
ATOM     52  H71 UNL     1     -16.472  -4.722  -0.295  1.00  0.00     0.277 HD
ENDBRANCH  44  46
ENDBRANCH   7  44
TORSDOF 8
ENDMDL