MODEL 2
REMARK VINA RESULT: -8.876133408      1.913      2.639
REMARK  7 active torsions:
REMARK  status: ('A' for Active; 'I' for Inactive)
REMARK    1  A    between atoms: N1_2  and  C3_4
REMARK    2  A    between atoms: N3_8  and  C5_10
REMARK    3  A    between atoms: C8_13  and  N4_14
REMARK    4  A    between atoms: C11_22  and  N7_23
REMARK    5  A    between atoms: N7_23  and  C12_25
REMARK    6  A    between atoms: C18_39  and  N12_40
REMARK    7  A    between atoms: C20_47  and  N14_48
ROOT
HETATM    1  C12 UNL     1     -11.761  -1.343   2.499  1.00  0.00     0.075 A
HETATM    2  C13 UNL     1     -12.431  -1.385   3.691  1.00  0.00     0.049 A
HETATM    3  C14 UNL     1     -11.912  -0.708   4.787  1.00  0.00     0.092 A
HETATM    4  N8  UNL     1     -10.760  -0.016   4.682  1.00  0.00    -0.351 N
ATOM      5  H8  UNL     1     -10.388   0.477   5.494  1.00  0.00     0.166 HD
HETATM    6  C15 UNL     1     -10.101   0.028   3.516  1.00  0.00     0.122 A
HETATM    7  N9  UNL     1      -9.002   0.690   3.401  1.00  0.00    -0.384 N
ATOM      8  H91 UNL     1      -8.501   0.723   2.514  1.00  0.00     0.157 HD
ATOM      9  H92 UNL     1      -8.641   1.179   4.220  1.00  0.00     0.157 HD
HETATM   10  C16 UNL     1     -10.589  -0.632   2.410  1.00  0.00     0.115 A
HETATM   11  C17 UNL     1      -9.875  -0.575   1.156  1.00  0.00     0.105 C
HETATM   12  N10 UNL     1      -9.305  -0.547   0.146  1.00  0.00    -0.191 NA
ENDROOT
BRANCH   1  13
HETATM   13  N7  UNL     1     -12.205  -2.018   1.335  1.00  0.00    -0.189 N
ATOM     14  H7  UNL     1     -11.549  -2.273   0.597  1.00  0.00     0.184 HD
BRANCH  13  15
HETATM   15  C11 UNL     1     -13.477  -2.307   1.231  1.00  0.00     0.698 A
HETATM   16  N6  UNL     1     -13.892  -3.587   1.313  1.00  0.00    -0.187 N
HETATM   17  C10 UNL     1     -15.204  -3.828   1.179  1.00  0.00     0.215 A
ATOM     18  H6  UNL     1     -13.230  -4.347   1.471  1.00  0.00     0.185 HD
HETATM   19  N5  UNL     1     -16.087  -2.858   0.971  1.00  0.00    -0.187 N
HETATM   20  C9  UNL     1     -15.629  -1.558   0.891  1.00  0.00     0.694 A
ATOM     21  H5  UNL     1     -17.080  -3.069   0.873  1.00  0.00     0.185 HD
HETATM   22  N4  UNL     1     -16.493  -0.657   0.689  1.00  0.00    -0.219 N
HETATM   23  N11 UNL     1     -14.324  -1.294   1.023  1.00  0.00    -0.022 N
ATOM     24  H4  UNL     1     -17.461  -0.969   0.606  1.00  0.00     0.178 HD
ATOM     25  H11 UNL     1     -13.980  -0.335   0.966  1.00  0.00     0.203 HD
BRANCH  22  26
HETATM   26  C8  UNL     1     -16.267   0.738   0.566  1.00  0.00     0.130 C
HETATM   27  C7  UNL     1     -16.183   1.419   1.911  1.00  0.00     0.030 C
HETATM   28  C6  UNL     1     -15.820   2.864   1.726  1.00  0.00     0.028 C
HETATM   29  C5  UNL     1     -16.847   3.526   0.860  1.00  0.00     0.101 C
HETATM   30  C19 UNL     1     -17.985   2.573   0.550  1.00  0.00     0.060 C
HETATM   31  C18 UNL     1     -17.439   1.370  -0.199  1.00  0.00     0.208 C
BRANCH  29  32
HETATM   32  N3  UNL     1     -17.296   4.735   1.386  1.00  0.00    -0.220 N
HETATM   33  C4  UNL     1     -18.423   5.234   1.643  1.00  0.00     0.707 A
HETATM   34  N2  UNL     1     -19.606   4.647   1.446  1.00  0.00    -0.021 N
HETATM   35  N13 UNL     1     -18.438   6.507   2.146  1.00  0.00    -0.021 N
HETATM   36  C3  UNL     1     -20.754   5.257   1.720  1.00  0.00     0.708 A
ATOM     37  H2  UNL     1     -19.629   3.698   1.072  1.00  0.00     0.203 HD
HETATM   38  N15 UNL     1     -20.734   6.495   2.208  1.00  0.00    -0.021 N
HETATM   39  C20 UNL     1     -19.563   7.169   2.439  1.00  0.00     0.709 A
ATOM     40  H15 UNL     1     -21.619   6.957   2.417  1.00  0.00     0.203 HD
ATOM     41  H13 UNL     1     -17.546   6.975   2.304  1.00  0.00     0.203 HD
ATOM     42  H3  UNL     1     -16.529   5.367   1.620  1.00  0.00     0.178 HD
BRANCH  36  43
HETATM   43  N1  UNL     1     -21.965   4.561   1.475  1.00  0.00    -0.225 N
HETATM   44  C1  UNL     1     -21.894   3.280   0.819  1.00  0.00     0.168 C
HETATM   45  C2  UNL     1     -23.238   5.107   1.863  1.00  0.00     0.168 C
ENDBRANCH  36  43
BRANCH  39  46
HETATM   46  N14 UNL     1     -19.636   8.489   2.934  1.00  0.00    -0.217 N
HETATM   47  C21 UNL     1     -20.816   9.030   3.508  1.00  0.00     0.141 C
HETATM   48  C22 UNL     1     -21.031  10.481   3.215  1.00  0.00     0.020 C
HETATM   49  C23 UNL     1     -19.948  11.217   2.552  1.00  0.00     0.003 C
HETATM   50  C24 UNL     1     -18.840  10.451   1.928  1.00  0.00     0.020 C
HETATM   51  C25 UNL     1     -18.436   9.317   2.834  1.00  0.00     0.141 C
ENDBRANCH  39  46
ENDBRANCH  29  32
BRANCH  31  52
HETATM   52  N12 UNL     1     -18.441   0.342  -0.359  1.00  0.00    -0.073 N
ATOM     53 3H12 UNL     1     -19.129   0.561  -1.079  1.00  0.00     0.274 HD
ATOM     54 2H12 UNL     1     -18.076  -0.511  -0.784  1.00  0.00     0.274 HD
ATOM     55 1H12 UNL     1     -18.856   0.186   0.559  1.00  0.00     0.274 HD
ENDBRANCH  31  52
ENDBRANCH  22  26
ENDBRANCH  13  15
ENDBRANCH   1  13
TORSDOF 7
ENDMDL