MODEL 3
REMARK VINA RESULT: -7.170029424      2.897      5.538
REMARK  10 active torsions:
REMARK  status: ('A' for Active; 'I' for Inactive)
REMARK    1  A    between atoms: C3_3  and  N1_4
REMARK       I    between atoms: N1_4  and  C4_6
REMARK       I    between atoms: C4_6  and  N3_11
REMARK    2  A    between atoms: N2_7  and  O1_9
REMARK    3  A    between atoms: N3_11  and  C5_13
REMARK    4  A    between atoms: C5_13  and  C6_14
REMARK    5  A    between atoms: C8_21  and  N7_22
REMARK    6  A    between atoms: C10_32  and  N11_33
REMARK    7  A    between atoms: N12_36  and  C13_37
REMARK    8  A    between atoms: C13_37  and  O2_38
REMARK    9  A    between atoms: C13_37  and  N13_40
REMARK   10  A    between atoms: N14_43  and  C16_44
ROOT
HETATM    1  C1  UNL     1     -14.182  -0.309   0.040  1.00  0.00     0.056 C
HETATM    2  C2  UNL     1     -14.358  -1.642   0.668  1.00  0.00     0.027 A
HETATM    3  C3  UNL     1     -15.041  -2.639   0.008  1.00  0.00     0.131 A
HETATM    4  N9  UNL     1     -15.167  -3.825   0.613  1.00  0.00    -0.338 N
ATOM      5  H9  UNL     1     -15.670  -4.577   0.140  1.00  0.00     0.168 HD
HETATM    6  C9  UNL     1     -14.641  -4.048   1.840  1.00  0.00     0.183 A
HETATM    7  N10 UNL     1     -13.971  -3.044   2.467  1.00  0.00    -0.338 N
ATOM      8  H10 UNL     1     -13.578  -3.219   3.392  1.00  0.00     0.168 HD
HETATM    9  C10 UNL     1     -13.808  -1.833   1.917  1.00  0.00     0.114 A
ENDROOT
BRANCH   3  10
HETATM   10  N1  UNL     1     -15.585  -2.431  -1.274  1.00  0.00    -0.174 N
HETATM   11  C4  UNL     1     -15.174  -3.244  -2.356  1.00  0.00     0.699 C
HETATM   12  N2  UNL     1     -14.251  -2.877  -3.170  1.00  0.00    -0.099 N
HETATM   13  N3  UNL     1     -15.794  -4.495  -2.547  1.00  0.00    -0.217 N
ATOM     14  H2  UNL     1     -14.008  -3.518  -3.925  1.00  0.00     0.213 HD
ATOM     15  H3  UNL     1     -15.447  -5.321  -2.058  1.00  0.00     0.178 HD
ATOM     16  H1  UNL     1     -16.275  -1.694  -1.423  1.00  0.00     0.186 HD
BRANCH  12  17
HETATM   17  O1  UNL     1     -13.568  -1.694  -3.103  1.00  0.00    -0.276 OA
ATOM     18  H1  UNL     1     -13.870  -0.868  -3.461  1.00  0.00     0.245 HD
ENDBRANCH  12  17
BRANCH  13  19
HETATM   19  C5  UNL     1     -16.927  -4.597  -3.441  1.00  0.00     0.215 C
BRANCH  19  20
HETATM   20  C6  UNL     1     -16.998  -5.986  -3.942  1.00  0.00     0.118 A
HETATM   21  N4  UNL     1     -18.034  -6.463  -4.645  1.00  0.00    -0.318 N
HETATM   22  C7  UNL     1     -18.072  -7.747  -5.103  1.00  0.00     0.208 A
ATOM     23  H4  UNL     1     -18.821  -5.845  -4.844  1.00  0.00     0.169 HD
HETATM   24  N5  UNL     1     -19.163  -8.256  -5.850  1.00  0.00    -0.063 NA
HETATM   25  N6  UNL     1     -16.995  -8.532  -4.808  1.00  0.00    -0.164 N
HETATM   26  C8  UNL     1     -15.942  -8.087  -4.106  1.00  0.00     0.679 A
ATOM     27  H6  UNL     1     -16.990  -9.498  -5.136  1.00  0.00     0.187 HD
HETATM   28  N8  UNL     1     -15.961  -6.809  -3.680  1.00  0.00    -0.179 N
ATOM     29  H8  UNL     1     -15.168  -6.454  -3.144  1.00  0.00     0.185 HD
BRANCH  26  30
HETATM   30  N7  UNL     1     -14.969  -8.889  -3.868  1.00  0.00    -0.234 N
ATOM     31  H72 UNL     1     -14.058  -8.574  -3.535  1.00  0.00     0.174 HD
ATOM     32  H71 UNL     1     -15.104  -9.890  -4.015  1.00  0.00     0.174 HD
ENDBRANCH  26  30
ENDBRANCH  19  20
ENDBRANCH  13  19
ENDBRANCH   3  10
BRANCH   9  33
HETATM   33  N11 UNL     1     -13.117  -0.816   2.586  1.00  0.00    -0.363 N
HETATM   34  C11 UNL     1     -11.932  -0.132   2.190  1.00  0.00     0.144 C
HETATM   35  C12 UNL     1     -12.133   1.360   2.319  1.00  0.00     0.147 C
HETATM   36  N12 UNL     1     -13.373   1.810   2.855  1.00  0.00    -0.340 N
HETATM   37  C21 UNL     1     -14.207   0.971   3.738  1.00  0.00     0.101 C
HETATM   38  C22 UNL     1     -15.618   0.824   3.220  1.00  0.00     0.034 C
HETATM   39  C23 UNL     1     -13.646  -0.392   3.901  1.00  0.00     0.149 C
BRANCH  36  40
HETATM   40  C13 UNL     1     -13.857   3.097   2.601  1.00  0.00     0.217 C
BRANCH  40  41
HETATM   41  O2  UNL     1     -13.219   4.016   3.313  1.00  0.00    -0.332 OA
ATOM     42  H2  UNL     1     -13.719   4.821   3.383  1.00  0.00     0.220 HD
ENDBRANCH  40  41
BRANCH  40  43
HETATM   43  N13 UNL     1     -14.827   3.639   1.798  1.00  0.00    -0.344 N
HETATM   44  C14 UNL     1     -15.956   4.399   2.218  1.00  0.00     0.145 C
HETATM   45  C15 UNL     1     -17.041   4.474   1.156  1.00  0.00     0.137 C
HETATM   46  N14 UNL     1     -17.176   3.282   0.380  1.00  0.00    -0.406 N
HETATM   47  C19 UNL     1     -15.947   2.766  -0.134  1.00  0.00     0.137 C
HETATM   48  C20 UNL     1     -14.732   3.481   0.327  1.00  0.00     0.145 C
BRANCH  46  49
HETATM   49  C16 UNL     1     -18.148   2.352   0.812  1.00  0.00     0.071 C
HETATM   50  C17 UNL     1     -18.197   1.078   0.012  1.00  0.00     0.031 C
HETATM   51  C18 UNL     1     -19.522   2.975   0.968  1.00  0.00     0.031 C
ENDBRANCH  46  49
ENDBRANCH  40  43
ENDBRANCH  36  40
ENDBRANCH   9  33
TORSDOF 10
ENDMDL