MODEL 4
REMARK VINA RESULT: -6.959466276      2.648      6.231
REMARK  5 active torsions:
REMARK  status: ('A' for Active; 'I' for Inactive)
REMARK    1  A    between atoms: C2_2  and  C4_4
REMARK    2  A    between atoms: C8_11  and  C9_12
REMARK    3  A    between atoms: C10_13  and  S1_14
REMARK    4  A    between atoms: C13_22  and  N3_23
REMARK    5  A    between atoms: C22_35  and  C23_36
ROOT
HETATM    1  C4  UNL     1       5.180  -6.774  15.346  1.00  0.00     0.180 C
HETATM    2  N1  UNL     1       4.521  -6.391  16.588  1.00  0.00    -0.347 N
ATOM      3  H1  UNL     1       5.075  -5.829  17.234  1.00  0.00     0.163 HD
HETATM    4  C5  UNL     1       3.221  -6.701  17.003  1.00  0.00     0.224 C
HETATM    5  O1  UNL     1       3.134  -7.374  18.103  1.00  0.00    -0.273 OA
HETATM    6  C6  UNL     1       1.943  -6.364  16.356  1.00  0.00     0.100 C
HETATM    7  C7  UNL     1       1.833  -6.646  14.910  1.00  0.00     0.022 C
HETATM    8  C8  UNL     1       0.776  -7.089  17.044  1.00  0.00     0.120 C
HETATM    9  N2  UNL     1      -0.432  -6.964  16.285  1.00  0.00    -0.351 N
ATOM     10  H2  UNL     1      -0.628  -6.028  15.930  1.00  0.00     0.163 HD
HETATM   11  C12 UNL     1      -1.379  -7.934  15.961  1.00  0.00     0.251 C
HETATM   12  O4  UNL     1      -2.436  -7.621  15.297  1.00  0.00    -0.271 OA
HETATM   13  C13 UNL     1      -1.330  -9.385  16.306  1.00  0.00     0.313 C
HETATM   14  C16 UNL     1      -1.409 -10.268  15.107  1.00  0.00     0.045 C
HETATM   15  C17 UNL     1      -0.231 -11.224  14.994  1.00  0.00     0.003 C
HETATM   16  C18 UNL     1       0.188 -11.380  13.544  1.00  0.00     0.002 C
HETATM   17  C19 UNL     1       0.783 -10.143  12.976  1.00  0.00     0.020 C
HETATM   18  C20 UNL     1       2.243 -10.229  12.631  1.00  0.00     0.122 C
HETATM   19  N4  UNL     1       3.038 -10.992  13.576  1.00  0.00    -0.359 N
ATOM     20  H4  UNL     1       2.566 -11.637  14.210  1.00  0.00     0.162 HD
HETATM   21  C21 UNL     1       4.465 -10.868  13.645  1.00  0.00     0.240 C
HETATM   22  O5  UNL     1       5.124 -11.930  13.606  1.00  0.00    -0.271 OA
HETATM   23  C22 UNL     1       5.193  -9.593  13.758  1.00  0.00     0.182 C
HETATM   24  N5  UNL     1       5.669  -9.311  15.117  1.00  0.00    -0.341 N
HETATM   25  C26 UNL     1       5.811 -10.412  16.057  1.00  0.00     0.153 C
HETATM   26  C27 UNL     1       6.008  -7.999  15.542  1.00  0.00     0.243 C
HETATM   27  O6  UNL     1       7.134  -7.888  16.144  1.00  0.00    -0.271 OA
ENDROOT
BRANCH   8  28
HETATM   28  C9  UNL     1       0.628  -6.561  18.432  1.00  0.00     0.010 C
HETATM   29  C10 UNL     1      -0.573  -6.215  18.867  1.00  0.00     0.106 C
BRANCH  29  30
HETATM   30  S1  UNL     1      -0.872  -5.585  20.469  1.00  0.00     0.161 S
HETATM   31  C11 UNL     1      -2.438  -4.726  20.481  1.00  0.00     0.166 C
HETATM   32  O2  UNL     1       0.182  -4.609  20.835  1.00  0.00    -0.224 OA
HETATM   33  O3  UNL     1      -0.909  -6.737  21.457  1.00  0.00    -0.224 OA
ENDBRANCH  29  30
ENDBRANCH   8  28
BRANCH  13  34
HETATM   34  N3  UNL     1      -2.376  -9.749  17.228  1.00  0.00     0.093 N
HETATM   35  C14 UNL     1      -1.968  -9.873  18.591  1.00  0.00     0.310 C
HETATM   36  C15 UNL     1      -3.238 -10.795  16.806  1.00  0.00     0.310 C
ENDBRANCH  13  34
BRANCH   1  37
HETATM   37  C2  UNL     1       6.061  -5.651  14.861  1.00  0.00     0.009 C
HETATM   38  C1  UNL     1       6.580  -4.728  15.906  1.00  0.00     0.012 C
HETATM   39  C3  UNL     1       5.357  -4.876  13.731  1.00  0.00     0.012 C
ENDBRANCH   1  37
BRANCH  23  40
HETATM   40  C23 UNL     1       6.279  -9.556  12.730  1.00  0.00     0.009 C
HETATM   41  C24 UNL     1       5.600  -9.723  11.364  1.00  0.00     0.012 C
HETATM   42  C25 UNL     1       7.296 -10.648  12.854  1.00  0.00     0.012 C
ENDBRANCH  23  40
TORSDOF 5
ENDMDL