MODEL 5
REMARK VINA RESULT: -6.968446731      4.890     10.367
REMARK  4 active torsions:
REMARK  status: ('A' for Active; 'I' for Inactive)
REMARK    1  A    between atoms: C9_15  and  C10_16
REMARK    2  A    between atoms: C20_32  and  C21_33
REMARK    3  A    between atoms: C21_33  and  C22_34
REMARK    4  A    between atoms: C26_41  and  C27_42
ROOT
HETATM    1  C1  UNL     1      -4.153  -9.463  22.917  1.00  0.00     0.027 C
HETATM    2  C2  UNL     1      -3.877  -9.151  21.627  1.00  0.00     0.031 C
HETATM    3  C3  UNL     1      -2.721  -8.302  21.401  1.00  0.00     0.293 C
HETATM    4  O1  UNL     1      -1.610  -8.780  21.858  1.00  0.00    -0.259 OA
HETATM    5  O2  UNL     1      -2.736  -7.065  20.753  1.00  0.00    -0.285 OA
HETATM    6  C4  UNL     1      -3.444  -5.921  21.151  1.00  0.00     0.276 C
HETATM    7  O3  UNL     1      -3.832  -5.043  20.151  1.00  0.00    -0.360 OA
HETATM    8  C5  UNL     1      -2.727  -4.212  20.272  1.00  0.00     0.180 C
HETATM    9  C6  UNL     1      -2.430  -4.887  21.595  1.00  0.00     0.074 C
HETATM   10  C7  UNL     1      -1.043  -5.446  21.610  1.00  0.00     0.114 C
HETATM   11  C8  UNL     1      -0.075  -4.340  21.414  1.00  0.00     0.218 C
HETATM   12  O4  UNL     1      -0.404  -3.200  21.819  1.00  0.00    -0.274 OA
HETATM   13  N1  UNL     1       1.202  -4.490  20.794  1.00  0.00    -0.347 N
ATOM     14  H1  UNL     1       1.976  -3.907  21.110  1.00  0.00     0.163 HD
HETATM   15  C9  UNL     1       1.431  -5.447  19.730  1.00  0.00     0.180 C
HETATM   16  C13 UNL     1       0.915  -4.979  18.420  1.00  0.00     0.244 C
HETATM   17  O5  UNL     1       0.935  -3.735  18.235  1.00  0.00    -0.271 OA
HETATM   18  N2  UNL     1       0.416  -5.810  17.388  1.00  0.00    -0.324 N
HETATM   19  C14 UNL     1      -0.551  -6.891  17.588  1.00  0.00     0.181 C
HETATM   20  C15 UNL     1       0.162  -7.975  16.781  1.00  0.00     0.050 C
HETATM   21  C16 UNL     1       0.501  -7.223  15.526  1.00  0.00     0.090 A
HETATM   22  C17 UNL     1       1.824  -6.593  15.431  1.00  0.00     0.157 A
HETATM   23  O6  UNL     1       3.001  -6.685  15.128  1.00  0.00    -0.295 OA
HETATM   24  C18 UNL     1       0.685  -5.841  15.951  1.00  0.00     0.169 A
HETATM   25  C19 UNL     1      -1.873  -6.537  17.013  1.00  0.00     0.241 C
HETATM   26  O7  UNL     1      -1.848  -5.633  16.102  1.00  0.00    -0.271 OA
HETATM   27  N3  UNL     1      -3.116  -7.064  17.344  1.00  0.00    -0.346 N
ATOM     28  H3  UNL     1      -3.885  -6.413  17.502  1.00  0.00     0.163 HD
HETATM   29  C20 UNL     1      -3.396  -8.528  17.483  1.00  0.00     0.177 C
HETATM   30  C25 UNL     1      -4.707  -8.688  18.162  1.00  0.00     0.241 C
HETATM   31  O8  UNL     1      -5.704  -8.756  17.340  1.00  0.00    -0.271 OA
HETATM   32  N4  UNL     1      -5.032  -8.768  19.506  1.00  0.00    -0.350 N
ATOM     33  H4  UNL     1      -5.583  -7.971  19.825  1.00  0.00     0.163 HD
HETATM   34  C26 UNL     1      -4.774  -9.713  20.550  1.00  0.00     0.126 C
ENDROOT
BRANCH  29  35
HETATM   35  C21 UNL     1      -3.511  -9.090  16.077  1.00  0.00     0.038 C
BRANCH  35  36
HETATM   36  C22 UNL     1      -2.855 -10.390  15.838  1.00  0.00    -0.020 C
HETATM   37  C23 UNL     1      -2.067 -10.888  17.034  1.00  0.00     0.009 C
HETATM   38  C24 UNL     1      -1.925 -10.206  14.636  1.00  0.00     0.009 C
ENDBRANCH  35  36
ENDBRANCH  29  35
BRANCH  34  39
HETATM   39  C27 UNL     1      -4.370 -11.084  20.108  1.00  0.00     0.005 C
HETATM   40  C28 UNL     1      -3.948 -11.874  21.361  1.00  0.00     0.012 C
HETATM   41  C29 UNL     1      -5.661 -11.828  19.686  1.00  0.00     0.012 C
ENDBRANCH  34  39
BRANCH  15  42
HETATM   42  C10 UNL     1       2.930  -5.687  19.564  1.00  0.00     0.009 C
HETATM   43  C11 UNL     1       3.244  -6.829  18.644  1.00  0.00     0.012 C
HETATM   44  C12 UNL     1       3.612  -4.411  19.071  1.00  0.00     0.012 C
ENDBRANCH  15  42
TORSDOF 4
ENDMDL