MODEL 1
REMARK VINA RESULT: -7.398892547      0.000      0.000
REMARK  6 active torsions:
REMARK  status: ('A' for Active; 'I' for Inactive)
REMARK    1  A    between atoms: C2_2  and  C3_3
REMARK    2  A    between atoms: C3_3  and  C4_4
REMARK    3  A    between atoms: C6_9  and  C7_10
REMARK    4  A    between atoms: C17_27  and  C18_28
REMARK    5  A    between atoms: C18_28  and  C19_29
REMARK    6  A    between atoms: C26_41  and  C27_42
ROOT
HETATM    1  C4  UNL     1       4.770  -9.342  15.041  1.00  0.00     0.101 C
HETATM    2  N1  UNL     1       4.659  -9.272  13.624  1.00  0.00    -0.354 N
ATOM      3  H1  UNL     1       5.530  -9.078  13.129  1.00  0.00     0.163 HD
HETATM    4  C5  UNL     1       3.525  -9.432  12.806  1.00  0.00     0.241 C
HETATM    5  O1  UNL     1       3.573  -8.770  11.706  1.00  0.00    -0.271 OA
HETATM    6  C6  UNL     1       2.326 -10.260  13.080  1.00  0.00     0.178 C
HETATM    7  N2  UNL     1       1.463  -9.519  13.967  1.00  0.00    -0.341 N
HETATM    8  C9  UNL     1       1.370  -8.059  13.765  1.00  0.00     0.153 C
HETATM    9  C10 UNL     1       0.699 -10.044  15.040  1.00  0.00     0.242 C
HETATM   10  O2  UNL     1       0.766  -9.432  16.177  1.00  0.00    -0.271 OA
HETATM   11  C11 UNL     1      -0.175 -11.212  15.046  1.00  0.00     0.174 C
HETATM   12  C12 UNL     1       0.705 -12.395  15.471  1.00  0.00     0.042 C
HETATM   13  N3  UNL     1      -1.319 -11.095  15.930  1.00  0.00    -0.342 N
HETATM   14  C13 UNL     1      -1.785 -12.374  16.436  1.00  0.00     0.153 C
HETATM   15  C14 UNL     1      -1.988  -9.925  16.325  1.00  0.00     0.237 C
HETATM   16  O3  UNL     1      -2.423  -9.846  17.529  1.00  0.00    -0.272 OA
HETATM   17  C15 UNL     1      -2.272  -8.719  15.511  1.00  0.00     0.225 C
HETATM   18  N4  UNL     1      -2.724  -7.587  16.262  1.00  0.00    -0.351 N
ATOM     19  H4  UNL     1      -3.737  -7.502  16.344  1.00  0.00     0.163 HD
HETATM   20  C16 UNL     1      -1.993  -6.578  16.903  1.00  0.00     0.240 C
HETATM   21  O4  UNL     1      -2.110  -5.360  16.503  1.00  0.00    -0.271 OA
HETATM   22  C17 UNL     1      -1.041  -6.736  18.059  1.00  0.00     0.177 C
HETATM   23  N5  UNL     1       0.020  -5.771  17.833  1.00  0.00    -0.346 N
ATOM     24  H5  UNL     1      -0.254  -4.799  17.979  1.00  0.00     0.163 HD
HETATM   25  C22 UNL     1       1.338  -5.943  17.454  1.00  0.00     0.247 C
HETATM   26  O5  UNL     1       1.775  -5.296  16.464  1.00  0.00    -0.271 OA
HETATM   27  C23 UNL     1       2.363  -6.835  18.091  1.00  0.00     0.219 C
HETATM   28  C24 UNL     1       2.954  -5.966  19.217  1.00  0.00     0.050 C
HETATM   29  O6  UNL     1       3.275  -7.417  17.298  1.00  0.00    -0.306 OA
HETATM   30  C25 UNL     1       4.382  -8.109  17.150  1.00  0.00     0.266 C
HETATM   31  O7  UNL     1       5.056  -8.835  17.957  1.00  0.00    -0.265 OA
HETATM   32  C26 UNL     1       5.064  -8.107  15.799  1.00  0.00     0.112 C
ENDROOT
BRANCH  22  33
HETATM   33  C18 UNL     1      -1.775  -6.480  19.353  1.00  0.00     0.038 C
BRANCH  33  34
HETATM   34  C19 UNL     1      -0.961  -6.491  20.585  1.00  0.00    -0.020 C
HETATM   35  C20 UNL     1      -1.468  -7.339  21.692  1.00  0.00     0.009 C
HETATM   36  C21 UNL     1      -0.661  -5.099  21.113  1.00  0.00     0.009 C
ENDBRANCH  33  34
ENDBRANCH  22  33
BRANCH  32  37
HETATM   37  C27 UNL     1       4.903  -6.787  15.133  1.00  0.00    -0.007 C
HETATM   38  C28 UNL     1       5.715  -6.554  13.925  1.00  0.00     0.010 C
HETATM   39  C29 UNL     1       5.365  -5.724  16.155  1.00  0.00     0.010 C
ENDBRANCH  32  37
BRANCH   1  40
HETATM   40  C3  UNL     1       5.851 -10.403  15.363  1.00  0.00     0.052 C
BRANCH  40  41
HETATM   41  C2  UNL     1       7.184 -10.009  14.883  1.00  0.00    -0.035 C
HETATM   42  C1  UNL     1       8.132  -9.717  15.737  1.00  0.00     0.007 C
ENDBRANCH  40  41
ENDBRANCH   1  40
BRANCH   6  43
HETATM   43  C7  UNL     1       1.656 -10.810  11.865  1.00  0.00     0.030 C
HETATM   44  C8  UNL     1       1.480 -12.278  11.773  1.00  0.00     0.007 C
ENDBRANCH   6  43
TORSDOF 6
ENDMDL