MODEL 1
REMARK VINA RESULT: -7.640591042      0.000      0.000
REMARK  5 active torsions:
REMARK  status: ('A' for Active; 'I' for Inactive)
REMARK    1  A    between atoms: C2_2  and  C3_3
REMARK    2  A    between atoms: C6_9  and  C7_10
REMARK    3  A    between atoms: C19_28  and  C20_29
REMARK    4  A    between atoms: C24_36  and  C25_37
REMARK    5  A    between atoms: C25_37  and  C26_38
ROOT
HETATM    1  C3  UNL     1       6.113  -5.546  16.935  1.00  0.00     0.176 C
HETATM    2  N1  UNL     1       6.919  -6.138  15.897  1.00  0.00    -0.348 N
ATOM      3  H1  UNL     1       7.881  -5.806  15.818  1.00  0.00     0.163 HD
HETATM    4  C4  UNL     1       6.513  -7.130  14.980  1.00  0.00     0.220 C
HETATM    5  O1  UNL     1       6.836  -6.976  13.772  1.00  0.00    -0.274 OA
HETATM    6  C5  UNL     1       5.732  -8.354  15.301  1.00  0.00     0.128 C
HETATM    7  C6  UNL     1       6.538  -9.603  14.965  1.00  0.00     0.098 C
HETATM    8  N2  UNL     1       6.562  -9.912  13.566  1.00  0.00    -0.349 N
HETATM    9  C10 UNL     1       7.861 -10.451  13.060  1.00  0.00     0.153 C
HETATM   10  C11 UNL     1       5.536  -9.723  12.619  1.00  0.00     0.249 C
HETATM   11  O2  UNL     1       5.956  -9.300  11.471  1.00  0.00    -0.270 OA
HETATM   12  C12 UNL     1       4.086  -9.915  12.693  1.00  0.00     0.219 C
HETATM   13  C13 UNL     1       3.703 -10.597  11.357  1.00  0.00     0.050 C
HETATM   14  O3  UNL     1       3.650 -10.750  13.687  1.00  0.00    -0.305 OA
HETATM   15  C14 UNL     1       2.482 -10.886  14.350  1.00  0.00     0.282 C
HETATM   16  O4  UNL     1       2.226 -12.089  14.726  1.00  0.00    -0.263 OA
HETATM   17  C15 UNL     1       1.558  -9.762  14.632  1.00  0.00     0.182 C
HETATM   18  C16 UNL     1       0.764  -9.560  13.335  1.00  0.00     0.043 C
HETATM   19  N3  UNL     1       0.650  -9.996  15.726  1.00  0.00    -0.341 N
HETATM   20  C17 UNL     1       0.090 -11.349  15.926  1.00  0.00     0.153 C
HETATM   21  C18 UNL     1       0.269  -8.988  16.611  1.00  0.00     0.243 C
HETATM   22  O5  UNL     1      -0.682  -9.207  17.415  1.00  0.00    -0.271 OA
HETATM   23  C19 UNL     1       0.865  -7.612  16.749  1.00  0.00     0.180 C
HETATM   24  N4  UNL     1       1.591  -7.565  18.001  1.00  0.00    -0.346 N
ATOM     25  H4  UNL     1       1.161  -8.100  18.755  1.00  0.00     0.163 HD
HETATM   26  C23 UNL     1       2.771  -6.920  18.360  1.00  0.00     0.241 C
HETATM   27  O6  UNL     1       3.774  -7.692  18.653  1.00  0.00    -0.271 OA
HETATM   28  C24 UNL     1       3.096  -5.484  18.472  1.00  0.00     0.177 C
HETATM   29  N5  UNL     1       3.651  -4.884  17.286  1.00  0.00    -0.346 N
ATOM     30  H5  UNL     1       3.191  -4.029  16.975  1.00  0.00     0.163 HD
HETATM   31  C29 UNL     1       4.719  -5.299  16.503  1.00  0.00     0.241 C
HETATM   32  O7  UNL     1       4.499  -5.499  15.253  1.00  0.00    -0.271 OA
ENDROOT
BRANCH  28  33
HETATM   33  C25 UNL     1       3.997  -5.248  19.712  1.00  0.00     0.038 C
BRANCH  33  34
HETATM   34  C26 UNL     1       3.352  -4.084  20.486  1.00  0.00    -0.020 C
HETATM   35  C27 UNL     1       3.964  -2.777  20.025  1.00  0.00     0.009 C
HETATM   36  C28 UNL     1       1.869  -4.013  20.187  1.00  0.00     0.009 C
ENDBRANCH  33  34
ENDBRANCH  28  33
BRANCH  23  37
HETATM   37  C20 UNL     1      -0.394  -6.719  16.794  1.00  0.00     0.009 C
HETATM   38  C21 UNL     1      -1.062  -6.859  15.415  1.00  0.00     0.012 C
HETATM   39  C22 UNL     1      -0.073  -5.263  16.911  1.00  0.00     0.012 C
ENDBRANCH  23  37
BRANCH   1  40
HETATM   40  C2  UNL     1       6.796  -4.231  17.347  1.00  0.00     0.030 C
HETATM   41  C1  UNL     1       7.458  -4.410  18.713  1.00  0.00     0.007 C
ENDBRANCH   1  40
BRANCH   7  42
HETATM   42  C7  UNL     1       6.279 -10.718  15.896  1.00  0.00     0.001 C
HETATM   43  C8  UNL     1       5.092 -10.437  16.819  1.00  0.00     0.011 C
HETATM   44  C9  UNL     1       7.412 -11.111  16.808  1.00  0.00     0.011 C
ENDBRANCH   7  42
TORSDOF 5
ENDMDL