MODEL 5
REMARK VINA RESULT: -7.466806999      2.654      6.813
REMARK  7 active torsions:
REMARK  status: ('A' for Active; 'I' for Inactive)
REMARK    1  A    between atoms: C1_2  and  C2_4
REMARK    2  A    between atoms: N1_6  and  C4_7
REMARK       I    between atoms: N3_17  and  C11_18
REMARK    3  A    between atoms: C11_18  and  C12_20
REMARK       I    between atoms: N4_27  and  C19_28
REMARK    4  A    between atoms: C19_28  and  C20_30
REMARK    5  A    between atoms: C20_30  and  O5_31
REMARK    6  A    between atoms: C20_30  and  N5_33
REMARK    7  A    between atoms: C29_42  and  C30_43
ROOT
HETATM    1  C12 UNL     1       1.885 -10.324  14.412  1.00  0.00     0.184 C
HETATM    2  C13 UNL     1       1.152 -11.385  15.260  1.00  0.00     0.018 C
HETATM    3  C14 UNL     1      -0.051 -11.947  14.594  1.00  0.00     0.007 C
HETATM    4  C15 UNL     1      -1.269 -11.434  15.339  1.00  0.00     0.007 C
HETATM    5  C16 UNL     1      -0.670 -10.106  15.863  1.00  0.00     0.004 C
HETATM    6  C17 UNL     1       0.564 -10.703  16.500  1.00  0.00     0.013 C
HETATM    7  C18 UNL     1      -0.350  -9.326  14.616  1.00  0.00     0.132 C
HETATM    8  N4  UNL     1       1.086  -9.121  14.491  1.00  0.00    -0.331 N
HETATM    9  C19 UNL     1       1.580  -7.780  14.423  1.00  0.00     0.295 C
HETATM   10  O4  UNL     1       0.703  -6.869  14.562  1.00  0.00    -0.264 OA
ENDROOT
BRANCH   1  11
HETATM   11  C11 UNL     1       2.032 -10.780  13.010  1.00  0.00     0.244 C
HETATM   12  N3  UNL     1       3.191 -11.398  12.472  1.00  0.00    -0.333 N
HETATM   13  C2  UNL     1       3.236 -11.818  11.070  1.00  0.00     0.205 C
HETATM   14  C10 UNL     1       4.357 -11.624  13.279  1.00  0.00     0.146 C
HETATM   15  C3  UNL     1       4.461 -12.662  10.871  1.00  0.00     0.153 C
HETATM   16  N1  UNL     1       5.664 -12.048  11.299  1.00  0.00    -0.404 N
HETATM   17  C9  UNL     1       5.665 -11.378  12.507  1.00  0.00     0.137 C
HETATM   18  O3  UNL     1       1.057 -10.609  12.232  1.00  0.00    -0.271 OA
BRANCH  13  19
HETATM   19  C1  UNL     1       3.193 -10.647  10.163  1.00  0.00     0.198 C
HETATM   20  O1  UNL     1       2.586 -10.741   9.071  1.00  0.00    -0.646 OA
HETATM   21  O2  UNL     1       3.790  -9.430  10.445  1.00  0.00    -0.646 OA
ENDBRANCH  13  19
BRANCH  16  22
HETATM   22  C4  UNL     1       6.754 -12.314  10.508  1.00  0.00     0.082 C
HETATM   23  C5  UNL     1       7.508 -11.001  10.247  1.00  0.00     0.052 C
HETATM   24  C6  UNL     1       6.942 -10.240   9.097  1.00  0.00     0.234 C
HETATM   25  N2  UNL     1       7.194 -11.057   7.900  1.00  0.00    -0.075 N
HETATM   26  C7  UNL     1       6.336 -12.206   8.012  1.00  0.00     0.234 C
ATOM     27  H22 UNL     1       7.075 -10.545   7.026  1.00  0.00     0.277 HD
ATOM     28  H21 UNL     1       8.177 -11.296   7.772  1.00  0.00     0.277 HD
HETATM   29  C8  UNL     1       6.604 -13.024   9.229  1.00  0.00     0.052 C
ENDBRANCH  16  22
ENDBRANCH   1  11
BRANCH   9  30
HETATM   30  C20 UNL     1       2.948  -7.430  14.215  1.00  0.00     0.208 C
BRANCH  30  31
HETATM   31  O5  UNL     1       3.473  -7.698  13.038  1.00  0.00    -0.342 OA
ATOM     32  H5  UNL     1       2.993  -7.418  12.268  1.00  0.00     0.219 HD
ENDBRANCH  30  31
BRANCH  30  33
HETATM   33  N5  UNL     1       3.870  -6.826  15.076  1.00  0.00    -0.342 N
HETATM   34  C21 UNL     1       4.297  -5.487  14.617  1.00  0.00     0.126 C
HETATM   35  C22 UNL     1       5.539  -5.593  13.833  1.00  0.00     0.024 C
HETATM   36  C23 UNL     1       6.802  -5.635  14.665  1.00  0.00    -0.013 C
HETATM   37  C24 UNL     1       7.377  -7.025  14.666  1.00  0.00     0.005 C
HETATM   38  C28 UNL     1       6.642  -5.057  16.046  1.00  0.00     0.005 C
HETATM   39  C25 UNL     1       6.687  -7.957  15.612  1.00  0.00     0.007 C
HETATM   40  C26 UNL     1       5.753  -7.343  16.591  1.00  0.00     0.019 C
HETATM   41  C27 UNL     1       6.048  -5.976  17.050  1.00  0.00     0.007 C
HETATM   42  C29 UNL     1       4.264  -7.582  16.210  1.00  0.00     0.191 C
BRANCH  42  43
HETATM   43  C30 UNL     1       3.514  -7.223  17.437  1.00  0.00     0.197 C
HETATM   44  O6  UNL     1       3.746  -7.871  18.494  1.00  0.00    -0.646 OA
HETATM   45  O7  UNL     1       2.570  -6.213  17.477  1.00  0.00    -0.646 OA
ENDBRANCH  42  43
ENDBRANCH  30  33
ENDBRANCH   9  30
TORSDOF 7
ENDMDL