MODEL 3
REMARK VINA RESULT: -7.613972192      2.558      5.963
REMARK  8 active torsions:
REMARK  status: ('A' for Active; 'I' for Inactive)
REMARK    1  A    between atoms: C2_2  and  C3_3
REMARK    2  A    between atoms: C10_17  and  O3_18
REMARK    3  A    between atoms: C11_21  and  O4_22
REMARK    4  A    between atoms: C12_24  and  C13_25
REMARK    5  A    between atoms: C13_25  and  C14_26
REMARK    6  A    between atoms: C18_32  and  C19_33
REMARK    7  A    between atoms: C23_38  and  O7_39
REMARK    8  A    between atoms: C24_41  and  C25_42
ROOT
HETATM    1  C3  UNL     1       1.777 -12.222  12.053  1.00  0.00     0.106 C
HETATM    2  N1  UNL     1       0.447 -12.544  12.256  1.00  0.00    -0.326 N
ATOM      3  H1  UNL     1      -0.068 -12.580  13.136  1.00  0.00     0.165 HD
HETATM    4  C4  UNL     1      -0.041 -12.821  10.911  1.00  0.00     0.317 C
HETATM    5  O1  UNL     1      -1.121 -13.421  10.599  1.00  0.00    -0.247 OA
HETATM    6  N2  UNL     1       0.946 -12.280   9.996  1.00  0.00    -0.327 N
ATOM      7  H2  UNL     1       1.116 -12.518   9.019  1.00  0.00     0.165 HD
HETATM    8  C5  UNL     1       1.614 -11.330  10.819  1.00  0.00     0.213 C
HETATM    9  C6  UNL     1       2.984 -10.986  10.636  1.00  0.00     0.250 C
HETATM   10  O2  UNL     1       3.648 -10.880   9.541  1.00  0.00    -0.271 OA
HETATM   11  N3  UNL     1       3.527 -10.767  11.948  1.00  0.00    -0.315 N
HETATM   12  C7  UNL     1       4.727 -10.026  12.313  1.00  0.00     0.157 C
HETATM   13  C8  UNL     1       5.658 -10.756  13.168  1.00  0.00     0.111 C
HETATM   14  C9  UNL     1       6.612 -11.609  12.275  1.00  0.00     0.081 C
HETATM   15  C10 UNL     1       7.371 -11.622  13.568  1.00  0.00     0.224 C
HETATM   16  N4  UNL     1       6.818 -10.226  13.713  1.00  0.00    -0.330 N
HETATM   17  C11 UNL     1       7.259  -8.988  14.213  1.00  0.00     0.146 C
HETATM   18  C12 UNL     1       6.461  -7.812  14.488  1.00  0.00     0.206 C
HETATM   19  O5  UNL     1       5.247  -8.099  15.115  1.00  0.00    -0.306 OA
HETATM   20  C17 UNL     1       4.639  -8.471  16.198  1.00  0.00     0.283 C
HETATM   21  O6  UNL     1       4.966  -9.357  17.087  1.00  0.00    -0.263 OA
HETATM   22  C18 UNL     1       3.324  -7.839  16.594  1.00  0.00     0.189 C
HETATM   23  N5  UNL     1       2.391  -7.553  15.580  1.00  0.00    -0.351 N
HETATM   24  C22 UNL     1       1.716  -6.230  15.735  1.00  0.00     0.152 C
HETATM   25  C23 UNL     1       1.956  -8.268  14.455  1.00  0.00     0.145 C
HETATM   26  C24 UNL     1       1.391  -9.579  14.170  1.00  0.00    -0.002 C
HETATM   27  C28 UNL     1       2.251 -10.762  14.114  1.00  0.00     0.039 C
HETATM   28  C29 UNL     1       2.657 -11.441  12.888  1.00  0.00     0.046 C
ENDROOT
BRANCH  18  29
HETATM   29  C13 UNL     1       6.338  -6.827  13.387  1.00  0.00     0.044 C
BRANCH  29  30
HETATM   30  C14 UNL     1       6.220  -5.366  13.691  1.00  0.00    -0.020 C
HETATM   31  C15 UNL     1       7.095  -5.077  14.944  1.00  0.00     0.009 C
HETATM   32  C16 UNL     1       4.820  -4.952  14.103  1.00  0.00     0.009 C
ENDBRANCH  29  30
ENDBRANCH  18  29
BRANCH  17  33
HETATM   33  O4  UNL     1       8.535  -8.844  14.484  1.00  0.00    -0.347 OA
ATOM     34  H4  UNL     1       9.133  -8.680  13.764  1.00  0.00     0.219 HD
ENDBRANCH  17  33
BRANCH  15  35
HETATM   35  O3  UNL     1       6.852 -12.497  14.514  1.00  0.00    -0.377 OA
ATOM     36  H3  UNL     1       6.490 -12.064  15.278  1.00  0.00     0.212 HD
ENDBRANCH  15  35
BRANCH  22  37
HETATM   37  C19 UNL     1       3.739  -6.714  17.497  1.00  0.00     0.010 C
HETATM   38  C20 UNL     1       3.379  -7.086  18.961  1.00  0.00     0.012 C
HETATM   39  C21 UNL     1       5.249  -6.528  17.586  1.00  0.00     0.012 C
ENDBRANCH  22  37
BRANCH  25  40
HETATM   40  O7  UNL     1       2.116  -7.512  13.389  1.00  0.00    -0.346 OA
ATOM     41  H7  UNL     1       2.094  -8.067  12.618  1.00  0.00     0.219 HD
ENDBRANCH  25  40
BRANCH  26  42
HETATM   42  C25 UNL     1       0.064  -9.836  14.916  1.00  0.00     0.015 C
HETATM   43  C26 UNL     1      -0.912  -8.714  14.674  1.00  0.00     0.015 C
HETATM   44  C27 UNL     1       0.249 -10.189  16.364  1.00  0.00     0.015 C
ENDBRANCH  26  42
BRANCH   1  45
HETATM   45  C2  UNL     1       2.451 -13.535  11.597  1.00  0.00     0.036 C
HETATM   46  C1  UNL     1       2.867 -14.298  12.836  1.00  0.00     0.008 C
ENDBRANCH   1  45
TORSDOF 8
ENDMDL