MODEL 1
REMARK VINA RESULT: -8.038908151      0.000      0.000
REMARK  5 active torsions:
REMARK  status: ('A' for Active; 'I' for Inactive)
REMARK    1  A    between atoms: C2_2  and  C3_3
REMARK    2  A    between atoms: C3_3  and  C5_5
REMARK    3  A    between atoms: C7_10  and  C8_11
REMARK    4  A    between atoms: C23_36  and  C24_37
REMARK    5  A    between atoms: C24_37  and  C25_38
ROOT
HETATM    1  C5  UNL     1       5.304  -8.965  14.550  1.00  0.00     0.182 C
HETATM    2  C6  UNL     1       4.280  -9.210  13.511  1.00  0.00     0.241 C
HETATM    3  O1  UNL     1       4.455  -8.508  12.434  1.00  0.00    -0.271 OA
HETATM    4  N1  UNL     1       3.184 -10.054  13.508  1.00  0.00    -0.345 N
ATOM      5  H1  UNL     1       2.298  -9.583  13.326  1.00  0.00     0.163 HD
HETATM    6  C7  UNL     1       3.062 -11.467  13.713  1.00  0.00     0.187 C
HETATM    7  C11 UNL     1       1.640 -11.828  14.087  1.00  0.00     0.283 C
HETATM    8  O2  UNL     1       1.420 -13.088  13.971  1.00  0.00    -0.263 OA
HETATM    9  O3  UNL     1       0.693 -10.957  14.495  1.00  0.00    -0.300 OA
HETATM   10  C12 UNL     1       0.486 -10.283  15.689  1.00  0.00     0.308 C
HETATM   11  N2  UNL     1       0.177  -8.871  15.489  1.00  0.00    -0.315 N
HETATM   12  C13 UNL     1      -0.976  -8.945  14.655  1.00  0.00     0.244 C
HETATM   13  O4  UNL     1      -1.039 -10.015  13.971  1.00  0.00    -0.271 OA
HETATM   14  C14 UNL     1      -2.165  -8.127  14.331  1.00  0.00     0.172 C
HETATM   15  C15 UNL     1      -3.368  -9.038  14.204  1.00  0.00     0.042 C
HETATM   16  N3  UNL     1      -2.466  -7.120  15.290  1.00  0.00    -0.348 N
ATOM     17  H3  UNL     1      -3.368  -6.683  15.098  1.00  0.00     0.163 HD
HETATM   18  C16 UNL     1      -1.864  -6.564  16.426  1.00  0.00     0.226 C
HETATM   19  O5  UNL     1      -2.103  -5.306  16.523  1.00  0.00    -0.273 OA
HETATM   20  C17 UNL     1      -1.023  -7.113  17.518  1.00  0.00     0.036 C
HETATM   21  C18 UNL     1      -1.183  -6.079  18.666  1.00  0.00     0.025 C
HETATM   22  C19 UNL     1      -1.550  -8.398  18.104  1.00  0.00     0.025 C
HETATM   23  C20 UNL     1       0.423  -7.100  17.231  1.00  0.00     0.053 C
HETATM   24  C21 UNL     1       0.963  -7.832  16.069  1.00  0.00     0.182 C
HETATM   25  C22 UNL     1       1.567  -6.934  15.041  1.00  0.00     0.241 C
HETATM   26  O6  UNL     1       0.807  -6.485  14.151  1.00  0.00    -0.271 OA
HETATM   27  N4  UNL     1       2.928  -6.545  14.986  1.00  0.00    -0.346 N
ATOM     28  H4  UNL     1       3.294  -6.320  14.060  1.00  0.00     0.163 HD
HETATM   29  C23 UNL     1       3.843  -6.430  16.064  1.00  0.00     0.177 C
HETATM   30  C28 UNL     1       4.469  -7.648  16.573  1.00  0.00     0.243 C
HETATM   31  O7  UNL     1       4.731  -7.603  17.839  1.00  0.00    -0.271 OA
HETATM   32  N5  UNL     1       4.819  -8.836  15.886  1.00  0.00    -0.341 N
HETATM   33  C29 UNL     1       4.651 -10.058  16.704  1.00  0.00     0.153 C
ENDROOT
BRANCH   1  34
HETATM   34  C3  UNL     1       6.414  -9.994  14.382  1.00  0.00     0.013 C
HETATM   35  C4  UNL     1       6.900  -9.803  12.936  1.00  0.00     0.012 C
BRANCH  34  36
HETATM   36  C2  UNL     1       7.590  -9.734  15.260  1.00  0.00     0.002 C
HETATM   37  C1  UNL     1       8.792  -9.227  14.466  1.00  0.00     0.005 C
ENDBRANCH  34  36
ENDBRANCH   1  34
BRANCH   6  38
HETATM   38  C8  UNL     1       3.394 -12.159  12.373  1.00  0.00     0.010 C
HETATM   39  C9  UNL     1       4.811 -12.610  12.306  1.00  0.00     0.012 C
HETATM   40  C10 UNL     1       2.990 -11.340  11.194  1.00  0.00     0.012 C
ENDBRANCH   6  38
BRANCH  29  41
HETATM   41  C24 UNL     1       4.966  -5.436  15.732  1.00  0.00     0.038 C
BRANCH  41  42
HETATM   42  C25 UNL     1       5.370  -5.754  14.285  1.00  0.00    -0.020 C
HETATM   43  C26 UNL     1       6.864  -6.032  14.231  1.00  0.00     0.009 C
HETATM   44  C27 UNL     1       5.076  -4.531  13.451  1.00  0.00     0.009 C
ENDBRANCH  41  42
ENDBRANCH  29  41
TORSDOF 5
ENDMDL