MODEL 1
REMARK VINA RESULT: -6.877272006      0.000      0.000
REMARK  5 active torsions:
REMARK  status: ('A' for Active; 'I' for Inactive)
REMARK    1  A    between atoms: C2_2  and  C3_3
REMARK    2  A    between atoms: C3_3  and  C5_5
REMARK    3  A    between atoms: C7_10  and  C8_11
REMARK    4  A    between atoms: N4_33  and  S2_34
REMARK    5  A    between atoms: C23_38  and  C24_39
REMARK       I    between atoms: C24_39  and  N5_41
ROOT
HETATM    1  C5  UNL     1       1.622 -12.411  13.756  1.00  0.00     0.043 C
HETATM    2  N1  UNL     1       0.493 -11.556  14.075  1.00  0.00    -0.327 N
ATOM      3  H1  UNL     1      -0.369 -11.771  13.575  1.00  0.00     0.168 HD
HETATM    4  C6  UNL     1       0.412 -10.478  14.972  1.00  0.00     0.245 C
HETATM    5  O1  UNL     1      -0.330 -10.577  16.021  1.00  0.00    -0.271 OA
HETATM    6  C7  UNL     1       1.070  -9.150  14.922  1.00  0.00     0.180 C
HETATM    7  N2  UNL     1       1.846  -8.872  16.120  1.00  0.00    -0.347 N
ATOM      8  H2  UNL     1       1.494  -9.179  17.027  1.00  0.00     0.163 HD
HETATM    9  C11 UNL     1       3.086  -8.182  16.050  1.00  0.00     0.223 C
HETATM   10  O2  UNL     1       3.674  -8.142  17.162  1.00  0.00    -0.273 OA
HETATM   11  C12 UNL     1       3.666  -7.568  14.872  1.00  0.00     0.088 C
HETATM   12  C13 UNL     1       3.906  -6.080  15.246  1.00  0.00     0.072 C
HETATM   13  C14 UNL     1       5.211  -5.934  15.996  1.00  0.00     0.027 A
HETATM   14  N3  UNL     1       5.490  -5.386  17.140  1.00  0.00    -0.320 N
ATOM     15  H3  UNL     1       4.751  -4.958  17.698  1.00  0.00     0.169 HD
HETATM   16  C15 UNL     1       6.735  -5.388  17.575  1.00  0.00     0.288 A
HETATM   17  O3  UNL     1       7.217  -4.908  18.660  1.00  0.00    -0.260 OA
HETATM   18  S1  UNL     1       7.574  -6.208  16.304  1.00  0.00    -0.032 SA
HETATM   19  C16 UNL     1       6.222  -6.493  15.286  1.00  0.00     0.011 A
HETATM   20  C17 UNL     1       5.866  -7.114  13.980  1.00  0.00     0.054 C
HETATM   21  C18 UNL     1       4.738  -8.146  14.095  1.00  0.00     0.013 C
HETATM   22  C19 UNL     1       5.170  -9.578  14.160  1.00  0.00    -0.030 C
HETATM   23  C20 UNL     1       5.188 -10.259  15.476  1.00  0.00     0.016 C
HETATM   24  C21 UNL     1       6.700  -9.526  13.867  1.00  0.00     0.016 C
HETATM   25  C22 UNL     1       4.570 -10.415  13.089  1.00  0.00     0.125 C
HETATM   26  N4  UNL     1       4.011 -11.713  13.244  1.00  0.00    -0.149 NA
HETATM   27  C23 UNL     1       2.639 -11.839  12.814  1.00  0.00     0.118 C
ENDROOT
BRANCH  27  28
HETATM   28  C24 UNL     1       2.410 -12.293  11.420  1.00  0.00     0.267 C
HETATM   29  O7  UNL     1       2.051 -13.485  11.289  1.00  0.00    -0.266 OA
HETATM   30  N5  UNL     1       2.545 -11.546  10.234  1.00  0.00    -0.356 N
HETATM   31  C25 UNL     1       2.270 -12.172   8.924  1.00  0.00     0.152 C
HETATM   32  C26 UNL     1       2.936 -10.154  10.144  1.00  0.00     0.152 C
ENDBRANCH  27  28
BRANCH   1  33
HETATM   33  C3  UNL     1       1.977 -13.387  14.794  1.00  0.00     0.033 C
HETATM   34  C4  UNL     1       1.165 -13.526  16.012  1.00  0.00     0.016 C
BRANCH  33  35
HETATM   35  C2  UNL     1       1.852 -14.802  14.144  1.00  0.00     0.006 C
HETATM   36  C1  UNL     1       1.758 -15.854  15.198  1.00  0.00     0.006 C
ENDBRANCH  33  35
ENDBRANCH   1  33
BRANCH  26  37
HETATM   37  S2  UNL     1       5.009 -12.777  12.337  1.00  0.00     0.190 S
HETATM   38  O4  UNL     1       6.376 -12.992  12.989  1.00  0.00    -0.582 OA
HETATM   39  O5  UNL     1       4.575 -14.192  12.230  1.00  0.00    -0.582 OA
HETATM   40  O6  UNL     1       5.481 -12.112  10.843  1.00  0.00    -0.582 OA
ENDBRANCH  26  37
BRANCH   6  41
HETATM   41  C8  UNL     1      -0.028  -8.065  14.885  1.00  0.00     0.009 C
HETATM   42  C9  UNL     1      -0.046  -7.359  16.245  1.00  0.00     0.012 C
HETATM   43  C10 UNL     1       0.157  -7.082  13.787  1.00  0.00     0.012 C
ENDBRANCH   6  41
TORSDOF 5
ENDMDL