MODEL 3
REMARK VINA RESULT: -5.885751442      2.193      7.274
REMARK  9 active torsions:
REMARK  status: ('A' for Active; 'I' for Inactive)
REMARK    1  A    between atoms: C2_2  and  C3_3
REMARK    2  A    between atoms: C3_3  and  C5_5
REMARK    3  A    between atoms: C7_10  and  C8_11
REMARK    4  A    between atoms: C12_16  and  O2_17
REMARK    5  A    between atoms: C16_24  and  C17_25
REMARK    6  A    between atoms: C17_25  and  O5_26
REMARK    7  A    between atoms: C22_36  and  O7_37
REMARK    8  A    between atoms: C23_39  and  C24_40
REMARK    9  A    between atoms: C28_45  and  O8_46
ROOT
HETATM    1  C5  UNL     1       5.267 -10.899  12.696  1.00  0.00     0.163 C
HETATM    2  N1  UNL     1       3.988 -11.613  12.848  1.00  0.00    -0.347 N
ATOM      3  H1  UNL     1       3.423 -11.241  13.612  1.00  0.00     0.163 HD
HETATM    4  C6  UNL     1       3.383 -12.650  12.211  1.00  0.00     0.241 C
HETATM    5  O1  UNL     1       2.316 -12.440  11.510  1.00  0.00    -0.271 OA
HETATM    6  C7  UNL     1       3.732 -14.103  12.156  1.00  0.00     0.183 C
HETATM    7  N2  UNL     1       2.814 -14.875  13.005  1.00  0.00    -0.332 N
HETATM    8  C11 UNL     1       3.336 -16.122  13.552  1.00  0.00     0.154 C
HETATM    9  C12 UNL     1       1.477 -14.519  13.323  1.00  0.00     0.261 C
HETATM   10  O3  UNL     1       1.013 -13.355  13.883  1.00  0.00    -0.304 OA
HETATM   11  C13 UNL     1       1.219 -12.794  15.118  1.00  0.00     0.200 C
HETATM   12  C14 UNL     1       0.883 -13.681  16.310  1.00  0.00     0.048 C
HETATM   13  C15 UNL     1       0.574 -11.489  15.333  1.00  0.00     0.180 C
HETATM   14  O4  UNL     1       0.596 -11.108  16.497  1.00  0.00    -0.293 OA
HETATM   15  C16 UNL     1      -0.061 -10.635  14.358  1.00  0.00     0.180 C
HETATM   16  N3  UNL     1       0.793  -9.855  13.495  1.00  0.00    -0.342 N
ATOM     17  H3  UNL     1       0.828 -10.152  12.520  1.00  0.00     0.163 HD
HETATM   18  C18 UNL     1       1.592  -8.730  13.829  1.00  0.00     0.264 C
HETATM   19  O6  UNL     1       2.247  -8.254  12.861  1.00  0.00    -0.266 OA
HETATM   20  C19 UNL     1       1.762  -8.055  15.099  1.00  0.00     0.077 C
HETATM   21  C20 UNL     1       1.632  -6.522  14.967  1.00  0.00     0.074 C
HETATM   22  N4  UNL     1       2.829  -8.431  16.002  1.00  0.00    -0.330 N
HETATM   23  C21 UNL     1       2.405  -8.088  17.425  1.00  0.00     0.158 C
HETATM   24  C22 UNL     1       4.077  -9.022  15.823  1.00  0.00     0.166 C
HETATM   25  C23 UNL     1       5.384  -8.726  15.256  1.00  0.00     0.068 C
HETATM   26  N5  UNL     1       6.190  -9.880  14.921  1.00  0.00    -0.334 N
HETATM   27  C27 UNL     1       7.445 -10.095  15.702  1.00  0.00     0.158 C
HETATM   28  C28 UNL     1       5.990 -10.907  13.974  1.00  0.00     0.141 C
ENDROOT
BRANCH   1  29
HETATM   29  C3  UNL     1       5.937 -11.326  11.453  1.00  0.00     0.012 C
HETATM   30  C4  UNL     1       5.403 -10.302  10.379  1.00  0.00     0.012 C
BRANCH  29  31
HETATM   31  C2  UNL     1       7.398 -11.232  11.318  1.00  0.00     0.002 C
HETATM   32  C1  UNL     1       8.071 -12.281  10.478  1.00  0.00     0.005 C
ENDBRANCH  29  31
ENDBRANCH   1  29
BRANCH  28  33
HETATM   33  O8  UNL     1       6.499 -12.084  14.204  1.00  0.00    -0.348 OA
ATOM     34  H8  UNL     1       7.440 -12.023  14.323  1.00  0.00     0.219 HD
ENDBRANCH  28  33
BRANCH   6  35
HETATM   35  C8  UNL     1       3.782 -14.579  10.737  1.00  0.00     0.009 C
HETATM   36  C9  UNL     1       2.902 -15.724  10.389  1.00  0.00     0.012 C
HETATM   37  C10 UNL     1       5.202 -14.765  10.220  1.00  0.00     0.012 C
ENDBRANCH   6  35
BRANCH  25  38
HETATM   38  C24 UNL     1       5.575  -7.670  14.238  1.00  0.00     0.032 C
HETATM   39  C25 UNL     1       7.102  -7.426  14.160  1.00  0.00     0.016 C
HETATM   40  C26 UNL     1       5.154  -6.278  14.790  1.00  0.00     0.016 C
ENDBRANCH  25  38
BRANCH  24  41
HETATM   41  O7  UNL     1       4.069 -10.233  16.335  1.00  0.00    -0.344 OA
ATOM     42  H7  UNL     1       4.955 -10.486  16.566  1.00  0.00     0.219 HD
ENDBRANCH  24  41
BRANCH   9  43
HETATM   43  O2  UNL     1       0.620 -15.454  13.026  1.00  0.00    -0.327 OA
ATOM     44  H2  UNL     1      -0.253 -15.271  13.352  1.00  0.00     0.221 HD
ENDBRANCH   9  43
BRANCH  15  45
HETATM   45  C17 UNL     1      -1.120 -11.312  13.510  1.00  0.00     0.197 C
BRANCH  45  46
HETATM   46  O5  UNL     1      -0.521 -11.604  12.283  1.00  0.00    -0.398 OA
ATOM     47  H5  UNL     1      -0.903 -12.420  11.982  1.00  0.00     0.209 HD
ENDBRANCH  45  46
ENDBRANCH  15  45
TORSDOF 9
ENDMDL