MODEL 2
REMARK VINA RESULT: -7.004042729      1.397      1.560
REMARK  10 active torsions:
REMARK  status: ('A' for Active; 'I' for Inactive)
REMARK    1  A    between atoms: C2_2  and  C3_3
REMARK    2  A    between atoms: C3_3  and  C4_4
REMARK    3  A    between atoms: C5_5  and  O1_6
REMARK    4  A    between atoms: C7_15  and  C8_16
REMARK    5  A    between atoms: C11_19  and  O4_20
REMARK    6  A    between atoms: C12_24  and  C13_25
REMARK    7  A    between atoms: C13_25  and  C15_27
REMARK    8  A    between atoms: C17_31  and  C18_32
REMARK    9  A    between atoms: C21_35  and  O5_36
REMARK   10  A    between atoms: C25_42  and  O6_43
ROOT
HETATM    1  C4  UNL     1       6.035 -12.040  10.697  1.00  0.00     0.065 C
HETATM    2  C5  UNL     1       7.006 -11.049  11.100  1.00  0.00     0.174 C
HETATM    3  N1  UNL     1       7.422 -10.491  12.307  1.00  0.00    -0.245 N
ATOM      4  H1  UNL     1       8.416 -10.589  12.513  1.00  0.00     0.182 HD
HETATM    5  S1  UNL     1       6.499  -9.659  13.506  1.00  0.00     0.327 S
HETATM    6  O2  UNL     1       5.726  -8.486  12.911  1.00  0.00    -0.182 OA
HETATM    7  O3  UNL     1       5.513 -10.574  14.137  1.00  0.00    -0.182 OA
HETATM    8  N2  UNL     1       7.438  -9.007  14.723  1.00  0.00    -0.262 N
HETATM    9  C6  UNL     1       8.725  -9.612  14.915  1.00  0.00     0.171 C
HETATM   10  C7  UNL     1       6.887  -8.291  15.793  1.00  0.00     0.077 C
HETATM   11  C11 UNL     1       5.567  -8.675  16.325  1.00  0.00     0.165 C
HETATM   12  N3  UNL     1       4.299  -8.117  16.419  1.00  0.00    -0.325 N
ATOM     13  H3  UNL     1       4.224  -7.623  17.308  1.00  0.00     0.169 HD
HETATM   14  C12 UNL     1       3.070  -7.987  15.724  1.00  0.00     0.087 C
HETATM   15  N4  UNL     1       2.718  -8.937  14.700  1.00  0.00    -0.345 N
ATOM     16  H4  UNL     1       3.059  -8.853  13.742  1.00  0.00     0.167 HD
HETATM   17  C17 UNL     1       1.856 -10.012  15.113  1.00  0.00     0.065 C
HETATM   18  C21 UNL     1       2.168 -11.363  14.681  1.00  0.00     0.166 C
HETATM   19  N5  UNL     1       2.135 -12.140  13.513  1.00  0.00    -0.331 N
HETATM   20  C22 UNL     1       1.425 -13.460  13.534  1.00  0.00     0.158 C
HETATM   21  C23 UNL     1       2.733 -11.924  12.198  1.00  0.00     0.060 C
HETATM   22  C24 UNL     1       2.805 -10.539  11.704  1.00  0.00     0.073 C
HETATM   23  C25 UNL     1       3.853 -12.830  11.905  1.00  0.00     0.165 C
HETATM   24  N6  UNL     1       5.215 -12.749  11.619  1.00  0.00    -0.330 N
HETATM   25  C26 UNL     1       6.025 -13.691  12.480  1.00  0.00     0.158 C
ENDROOT
BRANCH  14  26
HETATM   26  C13 UNL     1       2.640  -6.591  15.342  1.00  0.00     0.049 C
HETATM   27  C14 UNL     1       3.646  -5.625  14.918  1.00  0.00     0.018 C
BRANCH  26  28
HETATM   28  C15 UNL     1       1.804  -5.959  16.466  1.00  0.00     0.007 C
HETATM   29  C16 UNL     1       0.335  -6.071  16.242  1.00  0.00     0.006 C
ENDBRANCH  26  28
ENDBRANCH  14  26
BRANCH  11  30
HETATM   30  O4  UNL     1       5.715  -9.890  16.843  1.00  0.00    -0.345 OA
ATOM     31  H4  UNL     1       5.071  -9.962  17.537  1.00  0.00     0.219 HD
ENDBRANCH  11  30
BRANCH  17  32
HETATM   32  C18 UNL     1       0.398  -9.663  15.181  1.00  0.00     0.032 C
HETATM   33  C19 UNL     1      -0.141  -9.965  16.583  1.00  0.00     0.016 C
HETATM   34  C20 UNL     1      -0.523 -10.272  14.216  1.00  0.00     0.016 C
ENDBRANCH  17  32
BRANCH  10  35
HETATM   35  C8  UNL     1       7.130  -6.807  15.615  1.00  0.00     0.033 C
HETATM   36  C9  UNL     1       6.767  -6.118  16.912  1.00  0.00     0.016 C
HETATM   37  C10 UNL     1       8.617  -6.599  15.459  1.00  0.00     0.016 C
ENDBRANCH  10  35
BRANCH  18  38
HETATM   38  O5  UNL     1       2.626 -12.114  15.679  1.00  0.00    -0.344 OA
ATOM     39  H5  UNL     1       3.386 -12.624  15.424  1.00  0.00     0.219 HD
ENDBRANCH  18  38
BRANCH  23  40
HETATM   40  O6  UNL     1       3.420 -14.082  11.927  1.00  0.00    -0.344 OA
ATOM     41  H6  UNL     1       2.674 -14.166  11.347  1.00  0.00     0.219 HD
ENDBRANCH  23  40
BRANCH   2  42
HETATM   42  O1  UNL     1       7.661 -10.557  10.060  1.00  0.00    -0.344 OA
ATOM     43  H1  UNL     1       8.355  -9.967  10.331  1.00  0.00     0.219 HD
ENDBRANCH   2  42
BRANCH   1  44
HETATM   44  C3  UNL     1       5.396 -11.637   9.376  1.00  0.00     0.061 C
BRANCH  44  45
HETATM   45  C2  UNL     1       5.200 -12.711   8.386  1.00  0.00     0.002 C
HETATM   46  C1  UNL     1       3.738 -13.134   8.250  1.00  0.00     0.005 C
ENDBRANCH  44  45
ENDBRANCH   1  44
TORSDOF 10
ENDMDL