MODEL 2
REMARK VINA RESULT: -5.778633718      2.679      3.721
REMARK  8 active torsions:
REMARK  status: ('A' for Active; 'I' for Inactive)
REMARK    1  A    between atoms: S1_2  and  C2_3
REMARK    2  A    between atoms: N2_7  and  C4_9
REMARK    3  A    between atoms: C4_9  and  C5_10
REMARK    4  A    between atoms: C5_10  and  S2_11
REMARK    5  A    between atoms: S2_11  and  C6_12
REMARK    6  A    between atoms: N3_18  and  C10_19
REMARK    7  A    between atoms: C10_19  and  N4_20
REMARK    8  A    between atoms: C10_19  and  C11_24
ROOT
HETATM    1  C2  UNL     1       6.673  -7.172  15.107  1.00  0.00     0.160 A
HETATM    2  N1  UNL     1       6.180  -6.327  16.025  1.00  0.00    -0.318 N
ATOM      3  H1  UNL     1       6.778  -5.943  16.757  1.00  0.00     0.169 HD
HETATM    4  C3  UNL     1       4.881  -6.001  15.956  1.00  0.00     0.174 A
HETATM    5  N2  UNL     1       4.307  -5.197  16.794  1.00  0.00    -0.371 N
ATOM      6  H2  UNL     1       3.315  -4.980  16.699  1.00  0.00     0.161 HD
HETATM    7  C9  UNL     1       4.102  -6.553  14.933  1.00  0.00     0.308 A
HETATM    8  O1  UNL     1       2.886  -6.272  14.837  1.00  0.00    -0.262 OA
HETATM    9  N3  UNL     1       4.608  -7.402  14.014  1.00  0.00    -0.216 N
HETATM   10  N5  UNL     1       5.891  -7.689  14.128  1.00  0.00    -0.273 N
ATOM     11  H5  UNL     1       6.312  -8.328  13.452  1.00  0.00     0.189 HD
ENDROOT
BRANCH   5  12
HETATM   12  C4  UNL     1       5.073  -4.613  17.856  1.00  0.00     0.131 C
BRANCH  12  13
HETATM   13  C5  UNL     1       4.260  -4.659  19.126  1.00  0.00     0.095 C
BRANCH  13  14
HETATM   14  S2  UNL     1       2.489  -4.682  18.850  1.00  0.00    -0.142 SA
BRANCH  14  15
HETATM   15  C6  UNL     1       1.707  -3.218  19.535  1.00  0.00     0.077 C
HETATM   16  C7  UNL     1       0.385  -3.574  20.216  1.00  0.00     0.044 C
HETATM   17  C8  UNL     1       2.627  -2.618  20.571  1.00  0.00     0.044 C
HETATM   18 CL1  UNL     1       1.360  -2.066  18.213  1.00  0.00    -0.108 Cl
ENDBRANCH  14  15
ENDBRANCH  13  14
ENDBRANCH  12  13
ENDBRANCH   5  12
BRANCH   1  19
HETATM   19  S1  UNL     1       8.422  -7.620  15.194  1.00  0.00    -0.097 SA
HETATM   20  C1  UNL     1       9.448  -6.160  15.394  1.00  0.00     0.099 C
ENDBRANCH   1  19
BRANCH   9  21
HETATM   21  C10 UNL     1       3.777  -7.962  12.971  1.00  0.00     0.361 C
BRANCH  21  22
HETATM   22  N4  UNL     1       4.385  -7.791  11.673  1.00  0.00    -0.052 N
ATOM     23  H43 UNL     1       3.689  -7.805  10.927  1.00  0.00     0.277 HD
ATOM     24  H42 UNL     1       4.733  -6.840  11.544  1.00  0.00     0.277 HD
ATOM     25  H41 UNL     1       5.117  -8.484  11.515  1.00  0.00     0.277 HD
ENDBRANCH  21  22
BRANCH  21  26
HETATM   26  C11 UNL     1       3.399  -9.398  13.262  1.00  0.00     0.235 C
HETATM   27 CL2  UNL     1       3.093  -9.679  14.984  1.00  0.00    -0.079 Cl
HETATM   28 CL3  UNL     1       4.633 -10.491  12.602  1.00  0.00    -0.079 Cl
HETATM   29 CL4  UNL     1       1.869  -9.784  12.407  1.00  0.00    -0.079 Cl
ENDBRANCH  21  26
ENDBRANCH   9  21
TORSDOF 8
ENDMDL