MODEL 1
REMARK VINA RESULT: -8.189806083      0.000      0.000
REMARK  8 active torsions:
REMARK  status: ('A' for Active; 'I' for Inactive)
REMARK    1  A    between atoms: O1_1  and  C1_3
REMARK    2  A    between atoms: C1_3  and  C2_4
REMARK    3  A    between atoms: C1_3  and  C12_26
REMARK    4  A    between atoms: C1_3  and  C18_33
REMARK    5  A    between atoms: C2_4  and  N1_5
REMARK    6  A    between atoms: C4_7  and  C5_8
REMARK    7  A    between atoms: C7_10  and  C8_11
REMARK    8  A    between atoms: C8_11  and  N2_12
ROOT
HETATM    1  N1  UNL     1       7.016  -3.972  18.218  1.00  0.00    -0.283 N
HETATM    2  C3  UNL     1       5.748  -4.294  18.593  1.00  0.00     0.145 A
HETATM    3  C4  UNL     1       5.112  -3.180  19.090  1.00  0.00     0.094 A
HETATM    4  N6  UNL     1       6.021  -2.195  19.007  1.00  0.00    -0.283 N
ATOM      5  H6  UNL     1       5.877  -1.228  19.297  1.00  0.00     0.188 HD
HETATM    6  N7  UNL     1       7.143  -2.690  18.485  1.00  0.00    -0.240 N
ATOM      7  H7  UNL     1       7.989  -2.145  18.315  1.00  0.00     0.208 HD
ENDROOT
BRANCH   1   8
HETATM    8  C2  UNL     1       7.923  -4.890  17.637  1.00  0.00     0.202 C
BRANCH   8   9
HETATM    9  C1  UNL     1       8.207  -4.842  16.186  1.00  0.00     0.201 C
BRANCH   9  10
HETATM   10  O1  UNL     1       8.268  -3.503  15.760  1.00  0.00    -0.375 OA
ATOM     11  H1  UNL     1       8.999  -3.067  16.181  1.00  0.00     0.211 HD
ENDBRANCH   9  10
BRANCH   9  12
HETATM   12  C12 UNL     1       6.974  -5.368  15.511  1.00  0.00    -0.013 A
HETATM   13  C13 UNL     1       6.624  -6.660  15.882  1.00  0.00     0.012 A
HETATM   14  C14 UNL     1       5.542  -7.288  15.319  1.00  0.00     0.024 A
HETATM   15  C15 UNL     1       4.773  -6.641  14.366  1.00  0.00     0.034 A
HETATM   16 CL1  UNL     1       3.383  -7.450  13.628  1.00  0.00    -0.084 Cl
HETATM   17  C16 UNL     1       5.140  -5.372  14.024  1.00  0.00     0.024 A
HETATM   18  C17 UNL     1       6.236  -4.713  14.582  1.00  0.00     0.012 A
ENDBRANCH   9  12
BRANCH   9  19
HETATM   19  C18 UNL     1       9.470  -5.480  15.742  1.00  0.00     0.424 C
HETATM   20  F1  UNL     1      10.445  -4.646  15.294  1.00  0.00    -0.167 F
HETATM   21  F2  UNL     1       9.241  -6.436  14.784  1.00  0.00    -0.167 F
HETATM   22  F3  UNL     1       9.927  -6.223  16.856  1.00  0.00    -0.167 F
ENDBRANCH   9  19
ENDBRANCH   8   9
ENDBRANCH   1   8
BRANCH   3  23
HETATM   23  C5  UNL     1       3.727  -3.120  19.542  1.00  0.00     0.079 A
HETATM   24  C6  UNL     1       2.718  -4.026  19.285  1.00  0.00     0.061 A
HETATM   25  C7  UNL     1       1.561  -3.527  19.883  1.00  0.00     0.047 A
HETATM   26  N4  UNL     1       1.879  -2.370  20.469  1.00  0.00    -0.303 N
HETATM   27  N5  UNL     1       3.149  -2.144  20.265  1.00  0.00    -0.298 N
ATOM     28  H4  UNL     1       1.240  -1.767  20.987  1.00  0.00     0.186 HD
ATOM     29  H5  UNL     1       3.645  -1.324  20.615  1.00  0.00     0.187 HD
BRANCH  25  30
HETATM   30  C8  UNL     1       0.216  -4.140  19.878  1.00  0.00     0.206 C
BRANCH  30  31
HETATM   31  N2  UNL     1      -0.052  -4.736  18.591  1.00  0.00    -0.298 N
HETATM   32  C9  UNL     1       0.170  -4.326  17.337  1.00  0.00     0.112 A
HETATM   33  C10 UNL     1      -0.307  -5.266  16.443  1.00  0.00     0.037 A
HETATM   34  C11 UNL     1      -0.832  -6.273  17.201  1.00  0.00     0.108 A
HETATM   35  N3  UNL     1      -0.665  -5.927  18.469  1.00  0.00    -0.310 N
ATOM     36  H3  UNL     1      -0.967  -6.496  19.260  1.00  0.00     0.186 HD
ENDBRANCH  30  31
ENDBRANCH  25  30
ENDBRANCH   3  23
TORSDOF 8
ENDMDL