MODEL 2
REMARK VINA RESULT: -8.381653040      4.527      6.427
REMARK  8 active torsions:
REMARK  status: ('A' for Active; 'I' for Inactive)
REMARK    1  A    between atoms: O1_1  and  C1_3
REMARK    2  A    between atoms: C1_3  and  C2_4
REMARK    3  A    between atoms: C1_3  and  C5_12
REMARK    4  A    between atoms: C1_3  and  C11_19
REMARK    5  A    between atoms: C2_4  and  N1_5
REMARK    6  A    between atoms: C13_21  and  C14_22
REMARK    7  A    between atoms: C17_25  and  O2_26
REMARK    8  A    between atoms: O2_26  and  C18_27
ROOT
HETATM    1  C1  UNL     1       4.996  -6.052  15.378  1.00  0.00     0.122 C
ENDROOT
BRANCH   1   2
HETATM    2  O1  UNL     1       4.230  -5.295  14.404  1.00  0.00    -0.381 OA
ATOM      3  H1  UNL     1       4.939  -4.980  13.857  1.00  0.00     0.211 HD
ENDBRANCH   1   2
BRANCH   1   4
HETATM    4  C2  UNL     1       3.852  -6.782  16.090  1.00  0.00     0.194 C
BRANCH   4   5
HETATM    5  N1  UNL     1       2.537  -6.559  15.606  1.00  0.00    -0.284 N
HETATM    6  C3  UNL     1       1.512  -5.871  16.208  1.00  0.00     0.201 A
HETATM    7  N2  UNL     1       0.435  -5.877  15.444  1.00  0.00    -0.346 N
HETATM    8  C4  UNL     1       0.728  -6.559  14.345  1.00  0.00     0.198 A
ATOM      9  H2  UNL     1      -0.459  -5.437  15.660  1.00  0.00     0.167 HD
HETATM   10  N3  UNL     1       1.992  -6.969  14.445  1.00  0.00    -0.293 N
ATOM     11  H3  UNL     1       2.481  -7.518  13.738  1.00  0.00     0.188 HD
ENDBRANCH   4   5
ENDBRANCH   1   4
BRANCH   1  12
HETATM   12  C5  UNL     1       5.653  -5.105  16.248  1.00  0.00    -0.021 A
HETATM   13  C6  UNL     1       6.764  -4.345  15.828  1.00  0.00     0.012 A
HETATM   14  C7  UNL     1       7.395  -3.444  16.640  1.00  0.00     0.024 A
HETATM   15  C8  UNL     1       6.972  -3.234  17.916  1.00  0.00     0.034 A
HETATM   16 CL1  UNL     1       7.750  -2.089  18.974  1.00  0.00    -0.084 Cl
HETATM   17  C9  UNL     1       5.878  -3.967  18.358  1.00  0.00     0.024 A
HETATM   18  C10 UNL     1       5.228  -4.890  17.537  1.00  0.00     0.012 A
ENDBRANCH   1  12
BRANCH   1  19
HETATM   19  C11 UNL     1       5.793  -7.007  14.637  1.00  0.00     0.145 C
HETATM   20  C12 UNL     1       6.539  -8.100  15.301  1.00  0.00     0.085 C
HETATM   21  C13 UNL     1       6.972  -8.888  14.081  1.00  0.00     0.034 C
HETATM   22  N4  UNL     1       6.159  -8.611  13.083  1.00  0.00    -0.307 N
HETATM   23  N5  UNL     1       5.180  -7.686  13.495  1.00  0.00    -0.132 NA
ATOM     24  H4  UNL     1       6.230  -9.008  12.147  1.00  0.00     0.182 HD
BRANCH  21  25
HETATM   25  C14 UNL     1       8.097  -9.807  13.946  1.00  0.00    -0.012 A
HETATM   26  C15 UNL     1       8.852 -10.173  15.043  1.00  0.00     0.016 A
HETATM   27  C16 UNL     1       9.929 -11.045  14.903  1.00  0.00     0.038 A
HETATM   28  C17 UNL     1      10.290 -11.576  13.684  1.00  0.00     0.078 A
HETATM   29  C19 UNL     1       9.521 -11.200  12.578  1.00  0.00     0.038 A
HETATM   30  C20 UNL     1       8.464 -10.341  12.732  1.00  0.00     0.016 A
BRANCH  28  31
HETATM   31  O2  UNL     1      11.360 -12.448  13.510  1.00  0.00    -0.255 OA
BRANCH  31  32
HETATM   32  C18 UNL     1      12.714 -11.984  13.588  1.00  0.00     0.530 C
HETATM   33  F1  UNL     1      12.772 -10.697  13.116  1.00  0.00    -0.144 F
HETATM   34  F2  UNL     1      13.152 -11.995  14.906  1.00  0.00    -0.144 F
HETATM   35  F3  UNL     1      13.532 -12.829  12.839  1.00  0.00    -0.144 F
ENDBRANCH  31  32
ENDBRANCH  28  31
ENDBRANCH  21  25
ENDBRANCH   1  19
TORSDOF 8
ENDMDL