MODEL 2
REMARK VINA RESULT: -6.685039765      2.420      4.932
REMARK  9 active torsions:
REMARK  status: ('A' for Active; 'I' for Inactive)
REMARK    1  A    between atoms: N1_1  and  N2_4
REMARK    2  A    between atoms: C1_6  and  C2_7
REMARK    3  A    between atoms: C1_6  and  O2_10
REMARK    4  A    between atoms: C2_7  and  O1_8
REMARK    5  A    between atoms: O2_10  and  C3_11
REMARK    6  A    between atoms: C3_11  and  C4_12
REMARK    7  A    between atoms: C3_11  and  C7_20
REMARK    8  A    between atoms: C3_11  and  C13_27
REMARK    9  A    between atoms: C4_12  and  N3_13
ROOT
HETATM    1  C3  UNL     1       4.575  -7.388  14.736  1.00  0.00     0.161 C
ENDROOT
BRANCH   1   2
HETATM    2  O2  UNL     1       3.961  -8.599  15.110  1.00  0.00    -0.309 OA
BRANCH   2   3
HETATM    3  C1  UNL     1       2.832  -9.199  15.053  1.00  0.00     0.158 C
HETATM    4  N2  UNL     1       2.957 -10.217  14.355  1.00  0.00    -0.288 N
ATOM      5  H2  UNL     1       3.902 -10.348  13.993  1.00  0.00     0.188 HD
BRANCH   4   6
HETATM    6  N1  UNL     1       2.091 -11.193  13.976  1.00  0.00    -0.343 N
ATOM      7  H12 UNL     1       2.226 -11.472  13.005  1.00  0.00     0.176 HD
ATOM      8  H11 UNL     1       1.347 -11.690  14.465  1.00  0.00     0.176 HD
ENDBRANCH   4   6
BRANCH   3   9
HETATM    9  C2  UNL     1       1.524  -8.879  15.643  1.00  0.00     0.249 C
BRANCH   9  10
HETATM   10  O1  UNL     1       0.588  -8.448  14.700  1.00  0.00    -0.393 OA
ATOM     11  H1  UNL     1      -0.297  -8.411  15.043  1.00  0.00     0.210 HD
ENDBRANCH   9  10
ENDBRANCH   3   9
ENDBRANCH   2   3
ENDBRANCH   1   2
BRANCH   1  12
HETATM   12  C4  UNL     1       4.194  -7.190  13.357  1.00  0.00     0.139 C
BRANCH  12  13
HETATM   13  N3  UNL     1       4.515  -7.932  12.227  1.00  0.00    -0.262 N
HETATM   14  C5  UNL     1       3.643  -8.534  11.354  1.00  0.00     0.206 A
HETATM   15  N4  UNL     1       4.276  -9.112  10.355  1.00  0.00    -0.346 N
HETATM   16  C6  UNL     1       5.583  -8.893  10.568  1.00  0.00     0.198 A
ATOM     17  H4  UNL     1       3.859  -9.624   9.577  1.00  0.00     0.167 HD
HETATM   18  N5  UNL     1       5.682  -8.194  11.679  1.00  0.00    -0.289 N
ATOM     19  H5  UNL     1       6.571  -7.888  12.074  1.00  0.00     0.188 HD
ENDBRANCH  12  13
ENDBRANCH   1  12
BRANCH   1  20
HETATM   20  C7  UNL     1       3.968  -6.586  15.813  1.00  0.00    -0.013 A
HETATM   21  C8  UNL     1       4.347  -6.814  17.139  1.00  0.00     0.012 A
HETATM   22  C9  UNL     1       3.876  -6.112  18.218  1.00  0.00     0.024 A
HETATM   23  C10 UNL     1       2.962  -5.105  18.002  1.00  0.00     0.034 A
HETATM   24 CL1  UNL     1       2.333  -4.177  19.361  1.00  0.00    -0.084 Cl
HETATM   25  C11 UNL     1       2.568  -4.855  16.707  1.00  0.00     0.024 A
HETATM   26  C12 UNL     1       3.056  -5.577  15.630  1.00  0.00     0.012 A
ENDBRANCH   1  20
BRANCH   1  27
HETATM   27  C13 UNL     1       6.027  -7.343  15.060  1.00  0.00     0.033 A
HETATM   28  C14 UNL     1       6.719  -8.337  15.712  1.00  0.00     0.061 A
HETATM   29 CL2  UNL     1       5.933  -9.870  16.115  1.00  0.00    -0.082 Cl
HETATM   30  C15 UNL     1       8.085  -8.233  16.053  1.00  0.00     0.112 A
HETATM   31  N6  UNL     1       8.766  -7.126  15.737  1.00  0.00    -0.372 N
HETATM   32  C16 UNL     1       8.129  -6.144  15.103  1.00  0.00     0.112 A
ATOM     33  H6  UNL     1       9.753  -7.037  15.977  1.00  0.00     0.164 HD
HETATM   34  C17 UNL     1       6.789  -6.217  14.757  1.00  0.00     0.061 A
HETATM   35 CL3  UNL     1       6.038  -4.898  13.945  1.00  0.00    -0.082 Cl
ENDBRANCH   1  27
TORSDOF 9
ENDMDL