MODEL 4
REMARK VINA RESULT: -6.935169317      3.739      5.504
REMARK  11 active torsions:
REMARK  status: ('A' for Active; 'I' for Inactive)
REMARK    1  A    between atoms: O1_1  and  C1_3
REMARK    2  A    between atoms: C1_3  and  N4_19
REMARK    3  A    between atoms: N1_4  and  C2_6
REMARK    4  A    between atoms: C5_9  and  O2_10
REMARK    5  A    between atoms: O2_10  and  C6_11
REMARK    6  A    between atoms: C6_11  and  C7_12
REMARK       I    between atoms: N4_19  and  C8_21
REMARK    7  A    between atoms: C8_21  and  O4_23
REMARK    8  A    between atoms: O4_23  and  C9_24
REMARK    9  A    between atoms: C9_24  and  C10_25
REMARK   10  A    between atoms: C13_29  and  S2_30
REMARK   11  A    between atoms: S2_30  and  C14_31
ROOT
HETATM    1  C1  UNL     1       1.645  -7.244  15.835  1.00  0.00     0.227 C
HETATM    2  N1  UNL     1       1.651  -6.488  16.969  1.00  0.00    -0.307 N
ATOM      3  H1  UNL     1       0.780  -6.560  17.496  1.00  0.00     0.171 HD
ENDROOT
BRANCH   1   4
HETATM    4  O1  UNL     1       1.109  -8.439  16.047  1.00  0.00    -0.332 OA
ATOM      5  H1  UNL     1       0.504  -8.427  16.780  1.00  0.00     0.221 HD
ENDBRANCH   1   4
BRANCH   1   6
HETATM    6  N4  UNL     1       2.079  -6.979  14.557  1.00  0.00    -0.268 N
HETATM    7  C8  UNL     1       3.471  -7.298  14.200  1.00  0.00     0.368 C
HETATM    8  O3  UNL     1       3.874  -7.141  13.071  1.00  0.00    -0.238 OA
ATOM      9  H4  UNL     1       1.448  -6.568  13.869  1.00  0.00     0.174 HD
BRANCH   7  10
HETATM   10  O4  UNL     1       4.231  -7.779  15.228  1.00  0.00    -0.299 OA
BRANCH  10  11
HETATM   11  C9  UNL     1       5.450  -8.465  15.198  1.00  0.00     0.228 C
BRANCH  11  12
HETATM   12  C10 UNL     1       6.644  -7.568  15.155  1.00  0.00     0.024 A
HETATM   13  S1  UNL     1       6.701  -5.845  15.166  1.00  0.00    -0.103 SA
HETATM   14  C11 UNL     1       8.371  -5.613  15.422  1.00  0.00     0.051 A
HETATM   15  C12 UNL     1       8.850  -6.910  15.489  1.00  0.00     0.027 A
HETATM   16  C13 UNL     1       7.963  -7.919  15.350  1.00  0.00     0.021 A
BRANCH  16  17
HETATM   17  S2  UNL     1       8.465  -9.653  15.314  1.00  0.00    -0.060 SA
BRANCH  17  18
HETATM   18  C14 UNL     1       8.298 -10.517  16.863  1.00  0.00     0.420 C
HETATM   19  F3  UNL     1       6.993 -10.388  17.342  1.00  0.00    -0.202 F
HETATM   20  F4  UNL     1       9.235 -10.101  17.779  1.00  0.00    -0.202 F
ENDBRANCH  17  18
ENDBRANCH  16  17
ENDBRANCH  11  12
ENDBRANCH  10  11
ENDBRANCH   7  10
ENDBRANCH   1   6
BRANCH   2  21
HETATM   21  C2  UNL     1       2.492  -5.718  17.517  1.00  0.00     0.122 A
HETATM   22  C3  UNL     1       2.038  -4.644  18.250  1.00  0.00     0.054 A
HETATM   23  C4  UNL     1       2.944  -3.860  18.936  1.00  0.00     0.061 A
HETATM   24  C5  UNL     1       4.294  -4.148  18.897  1.00  0.00     0.157 A
HETATM   25  N2  UNL     1       4.700  -5.217  18.160  1.00  0.00    -0.278 N
HETATM   26  N3  UNL     1       3.792  -5.971  17.490  1.00  0.00    -0.283 N
ATOM     27  H2  UNL     1       5.691  -5.453  18.111  1.00  0.00     0.189 HD
ATOM     28  H3  UNL     1       4.123  -6.765  16.942  1.00  0.00     0.188 HD
BRANCH  24  29
HETATM   29  O2  UNL     1       5.182  -3.371  19.604  1.00  0.00    -0.329 OA
BRANCH  29  30
HETATM   30  C6  UNL     1       5.829  -2.227  19.206  1.00  0.00     0.248 C
BRANCH  30  31
HETATM   31  C7  UNL     1       7.167  -2.630  18.561  1.00  0.00     0.377 C
HETATM   32  F1  UNL     1       7.999  -1.505  18.654  1.00  0.00    -0.212 F
HETATM   33  F2  UNL     1       6.987  -2.903  17.240  1.00  0.00    -0.212 F
ENDBRANCH  30  31
ENDBRANCH  29  30
ENDBRANCH  24  29
ENDBRANCH   2  21
TORSDOF 11
ENDMDL