MODEL 3
REMARK VINA RESULT: -7.706707323      3.328      5.571
REMARK  8 active torsions:
REMARK  status: ('A' for Active; 'I' for Inactive)
REMARK    1  A    between atoms: O1_1  and  C1_3
REMARK    2  A    between atoms: C1_3  and  C2_5
REMARK    3  A    between atoms: C2_5  and  S1_6
REMARK    4  A    between atoms: C2_5  and  C5_16
REMARK    5  A    between atoms: S1_6  and  C3_7
REMARK    6  A    between atoms: C3_7  and  C4_8
REMARK    7  A    between atoms: N6_20  and  C7_21
REMARK    8  A    between atoms: C12_29  and  C13_30
ROOT
HETATM    1  C5  UNL     1       5.938  -5.547  15.519  1.00  0.00     0.007 A
HETATM    2  C6  UNL     1       5.241  -4.732  14.626  1.00  0.00     0.118 A
HETATM    3  N5  UNL     1       4.722  -5.482  13.625  1.00  0.00    -0.303 N
ATOM      4  H5  UNL     1       4.169  -5.126  12.845  1.00  0.00     0.186 HD
HETATM    5  N6  UNL     1       5.056  -6.788  13.825  1.00  0.00    -0.239 N
HETATM    6  C12 UNL     1       5.769  -6.842  14.928  1.00  0.00     0.077 A
ENDROOT
BRANCH   1   7
HETATM    7  C2  UNL     1       6.401  -5.127  16.788  1.00  0.00     0.144 C
BRANCH   7   8
HETATM    8  C1  UNL     1       7.145  -3.885  17.051  1.00  0.00     0.322 C
HETATM    9  F1  UNL     1       7.607  -3.620  18.306  1.00  0.00    -0.218 F
BRANCH   8  10
HETATM   10  O1  UNL     1       8.227  -3.831  16.179  1.00  0.00    -0.366 OA
ATOM     11  H1  UNL     1       8.105  -4.507  15.522  1.00  0.00     0.213 HD
ENDBRANCH   8  10
ENDBRANCH   7   8
BRANCH   7  12
HETATM   12  S1  UNL     1       4.797  -4.738  17.821  1.00  0.00    -0.146 SA
BRANCH  12  13
HETATM   13  C3  UNL     1       3.893  -6.251  18.090  1.00  0.00     0.153 C
BRANCH  13  14
HETATM   14  C4  UNL     1       2.789  -6.376  17.060  1.00  0.00     0.119 A
HETATM   15  N1  UNL     1       2.280  -5.373  16.355  1.00  0.00    -0.270 N
HETATM   16  N2  UNL     1       1.321  -5.858  15.569  1.00  0.00    -0.005 NA
ATOM     17  H1  UNL     1       2.575  -4.397  16.405  1.00  0.00     0.185 HD
HETATM   18  N3  UNL     1       1.204  -7.159  15.763  1.00  0.00    -0.225 N
HETATM   19  N4  UNL     1       2.092  -7.460  16.661  1.00  0.00    -0.274 N
ATOM     20  H3  UNL     1       0.553  -7.796  15.304  1.00  0.00     0.205 HD
ATOM     21  H4  UNL     1       2.244  -8.402  17.022  1.00  0.00     0.189 HD
ENDBRANCH  13  14
ENDBRANCH  12  13
ENDBRANCH   7  12
ENDBRANCH   1   7
BRANCH   6  22
HETATM   22  C13 UNL     1       6.531  -7.994  15.434  1.00  0.00    -0.006 A
HETATM   23  C14 UNL     1       7.879  -8.071  15.281  1.00  0.00     0.017 A
HETATM   24  C15 UNL     1       8.594  -9.086  15.876  1.00  0.00     0.043 A
HETATM   25  C16 UNL     1       8.025 -10.072  16.653  1.00  0.00     0.116 A
HETATM   26  F3  UNL     1       8.748 -11.071  17.236  1.00  0.00    -0.206 F
HETATM   27  C17 UNL     1       6.665  -9.967  16.790  1.00  0.00     0.043 A
HETATM   28  C18 UNL     1       5.903  -8.945  16.191  1.00  0.00     0.017 A
ENDBRANCH   6  22
BRANCH   5  29
HETATM   29  C7  UNL     1       4.692  -7.741  12.877  1.00  0.00     0.127 A
HETATM   30  C8  UNL     1       3.452  -8.364  13.078  1.00  0.00     0.053 A
HETATM   31  C9  UNL     1       2.977  -9.364  12.275  1.00  0.00     0.047 A
HETATM   32  C10 UNL     1       3.772  -9.766  11.218  1.00  0.00     0.131 A
HETATM   33  F2  UNL     1       3.429 -10.774  10.353  1.00  0.00    -0.205 F
HETATM   34  C11 UNL     1       5.010  -9.143  11.021  1.00  0.00     0.132 A
HETATM   35  N7  UNL     1       5.403  -8.161  11.862  1.00  0.00    -0.348 N
ATOM     36  H7  UNL     1       6.308  -7.721  11.695  1.00  0.00     0.167 HD
ENDBRANCH   5  29
TORSDOF 8
ENDMDL