MODEL 2
REMARK VINA RESULT: -6.838328241      1.435      1.755
REMARK  7 active torsions:
REMARK  status: ('A' for Active; 'I' for Inactive)
REMARK    1  A    between atoms: O1_1  and  C1_3
REMARK    2  A    between atoms: C2_4  and  C3_5
REMARK    3  A    between atoms: C3_5  and  N1_6
REMARK    4  A    between atoms: N1_6  and  C4_9
REMARK    5  A    between atoms: C4_9  and  C5_10
REMARK    6  A    between atoms: C11_20  and  C12_21
REMARK    7  A    between atoms: C13_24  and  C14_25
ROOT
HETATM    1  C1  UNL     1       1.568  -7.172  16.220  1.00  0.00     0.093 A
HETATM    2  C2  UNL     1       2.044  -5.896  16.408  1.00  0.00     0.005 A
HETATM    3  C6  UNL     1       3.179  -5.483  15.787  1.00  0.00     0.051 A
HETATM    4  C7  UNL     1       3.866  -6.368  14.950  1.00  0.00     0.105 A
HETATM    5  C8  UNL     1       3.407  -7.649  14.746  1.00  0.00     0.122 A
HETATM    6  C9  UNL     1       2.250  -8.038  15.393  1.00  0.00     0.080 A
HETATM    7 BR1  UNL     1       1.636  -9.832  15.090  1.00  0.00    -0.045 Br
HETATM    8  O2  UNL     1       4.108  -8.512  13.908  1.00  0.00    -0.344 OA
HETATM    9  C10 UNL     1       4.964  -7.933  12.942  1.00  0.00     0.217 C
HETATM   10  C11 UNL     1       5.793  -6.832  13.568  1.00  0.00     0.230 C
HETATM   11  O4  UNL     1       5.028  -5.944  14.313  1.00  0.00    -0.333 OA
ENDROOT
BRANCH  10  12
HETATM   12  C12 UNL     1       6.873  -7.471  14.376  1.00  0.00     0.180 A
HETATM   13  N2  UNL     1       7.267  -8.736  14.302  1.00  0.00    -0.324 N
HETATM   14  C13 UNL     1       8.265  -8.983  15.171  1.00  0.00     0.117 A
ATOM     15  H2  UNL     1       6.868  -9.430  13.669  1.00  0.00     0.169 HD
HETATM   16  N3  UNL     1       8.468  -7.799  15.792  1.00  0.00    -0.246 N
HETATM   17  O3  UNL     1       7.629  -6.920  15.302  1.00  0.00    -0.220 OA
ATOM     18  H3  UNL     1       9.158  -7.620  16.520  1.00  0.00     0.196 HD
BRANCH  14  19
HETATM   19  C14 UNL     1       8.983 -10.265  15.401  1.00  0.00     0.193 C
HETATM   20 CL1  UNL     1       8.919 -10.633  17.147  1.00  0.00    -0.122 Cl
ENDBRANCH  14  19
ENDBRANCH  10  12
BRANCH   2  21
HETATM   21  C3  UNL     1       1.262  -5.011  17.312  1.00  0.00     0.274 C
BRANCH  21  22
HETATM   22  N1  UNL     1       1.539  -5.278  18.699  1.00  0.00    -0.066 N
ATOM     23  H12 UNL     1       0.735  -5.659  19.197  1.00  0.00     0.277 HD
ATOM     24  H11 UNL     1       2.167  -6.072  18.832  1.00  0.00     0.277 HD
BRANCH  22  25
HETATM   25  C4  UNL     1       2.043  -4.053  19.291  1.00  0.00     0.303 C
BRANCH  25  26
HETATM   26  C5  UNL     1       3.570  -4.050  19.301  1.00  0.00     0.378 C
HETATM   27  F1  UNL     1       4.054  -5.305  19.085  1.00  0.00    -0.213 F
HETATM   28  F2  UNL     1       4.069  -3.492  20.456  1.00  0.00    -0.213 F
ENDBRANCH  25  26
ENDBRANCH  22  25
ENDBRANCH  21  22
ENDBRANCH   2  21
BRANCH   1  29
HETATM   29  O1  UNL     1       0.413  -7.634  16.834  1.00  0.00    -0.359 OA
ATOM     30  H1  UNL     1       0.376  -7.843  17.760  1.00  0.00     0.217 HD
ENDBRANCH   1  29
TORSDOF 7
ENDMDL