MODEL 1
REMARK VINA RESULT: -8.453065936      0.000      0.000
REMARK  7 active torsions:
REMARK  status: ('A' for Active; 'I' for Inactive)
REMARK    1  A    between atoms: C3_7  and  C4_8
REMARK    2  A    between atoms: C4_8  and  O1_9
REMARK    3  A    between atoms: O1_9  and  C5_10
REMARK    4  A    between atoms: C8_15  and  C9_16
REMARK    5  A    between atoms: N4_17  and  N5_19
REMARK    6  A    between atoms: N5_19  and  C10_21
REMARK    7  A    between atoms: C16_31  and  C17_32
ROOT
HETATM    1  C5  UNL     1       6.782  -4.855  16.279  1.00  0.00     0.154 A
HETATM    2  N3  UNL     1       7.244  -3.818  17.001  1.00  0.00    -0.340 N
ATOM      3  H3  UNL     1       8.127  -3.394  16.715  1.00  0.00     0.168 HD
HETATM    4  C6  UNL     1       6.619  -3.305  18.070  1.00  0.00     0.019 A
HETATM    5  C7  UNL     1       7.153  -2.156  18.850  1.00  0.00     0.069 C
HETATM    6  C8  UNL     1       5.416  -3.899  18.437  1.00  0.00     0.004 A
HETATM    7  C15 UNL     1       4.910  -4.980  17.704  1.00  0.00     0.032 A
HETATM    8  C16 UNL     1       5.594  -5.467  16.616  1.00  0.00     0.058 A
ENDROOT
BRANCH   6   9
HETATM    9  C9  UNL     1       4.706  -3.376  19.584  1.00  0.00     0.120 C
HETATM   10  N4  UNL     1       3.527  -2.913  19.435  1.00  0.00    -0.309 N
ATOM     11  H4  UNL     1       3.125  -2.931  18.498  1.00  0.00     0.186 HD
BRANCH  10  12
HETATM   12  N5  UNL     1       2.753  -2.387  20.462  1.00  0.00    -0.286 N
ATOM     13  H5  UNL     1       3.117  -1.636  21.049  1.00  0.00     0.188 HD
BRANCH  12  14
HETATM   14  C10 UNL     1       1.571  -2.858  20.666  1.00  0.00     0.120 A
HETATM   15  C11 UNL     1       1.040  -3.828  19.821  1.00  0.00     0.051 A
HETATM   16  C12 UNL     1      -0.221  -4.326  20.045  1.00  0.00     0.031 A
HETATM   17  C13 UNL     1      -0.923  -3.832  21.122  1.00  0.00     0.072 A
HETATM   18 CL1  UNL     1      -2.546  -4.415  21.483  1.00  0.00    -0.081 Cl
HETATM   19  C14 UNL     1      -0.372  -2.867  21.948  1.00  0.00     0.127 A
HETATM   20 CL2  UNL     1      -1.289  -2.250  23.323  1.00  0.00    -0.063 Cl
HETATM   21  N6  UNL     1       0.845  -2.402  21.713  1.00  0.00    -0.331 N
ATOM     22  H6  UNL     1       1.241  -1.692  22.329  1.00  0.00     0.168 HD
ENDBRANCH  12  14
ENDBRANCH  10  12
ENDBRANCH   6   9
BRANCH   8  23
HETATM   23  C17 UNL     1       5.066  -6.628  15.812  1.00  0.00     0.390 C
HETATM   24  F1  UNL     1       5.417  -7.790  16.445  1.00  0.00    -0.209 F
HETATM   25  F2  UNL     1       3.682  -6.582  15.752  1.00  0.00    -0.209 F
ENDBRANCH   8  23
BRANCH   1  26
HETATM   26  O1  UNL     1       7.453  -5.370  15.170  1.00  0.00    -0.328 OA
BRANCH  26  27
HETATM   27  C4  UNL     1       8.656  -6.063  15.216  1.00  0.00     0.255 C
BRANCH  27  28
HETATM   28  C3  UNL     1       8.486  -7.546  15.287  1.00  0.00     0.122 A
HETATM   29  N2  UNL     1       7.974  -8.378  14.353  1.00  0.00    -0.286 N
HETATM   30  N1  UNL     1       7.997  -9.634  14.809  1.00  0.00    -0.288 N
ATOM     31  H2  UNL     1       7.623  -8.091  13.440  1.00  0.00     0.188 HD
HETATM   32  C2  UNL     1       8.531  -9.612  16.054  1.00  0.00     0.093 A
ATOM     33  H1  UNL     1       7.671 -10.462  14.310  1.00  0.00     0.188 HD
HETATM   34  C1  UNL     1       8.755 -10.786  16.957  1.00  0.00     0.090 C
HETATM   35  N7  UNL     1       8.821  -8.336  16.325  1.00  0.00    -0.332 N
ATOM     36  H7  UNL     1       9.237  -8.006  17.195  1.00  0.00     0.168 HD
ENDBRANCH  27  28
ENDBRANCH  26  27
ENDBRANCH   1  26
TORSDOF 7
ENDMDL