MODEL 3
REMARK VINA RESULT: -6.811684251      2.457      3.237
REMARK  8 active torsions:
REMARK  status: ('A' for Active; 'I' for Inactive)
REMARK    1  A    between atoms: O1_2  and  N1_3
REMARK    2  A    between atoms: C2_5  and  C3_6
REMARK    3  A    between atoms: C2_5  and  C13_22
REMARK       I    between atoms: C3_6  and  N2_8
REMARK    4  A    between atoms: N2_8  and  C4_10
REMARK    5  A    between atoms: C7_13  and  N3_14
REMARK    6  A    between atoms: C13_22  and  C14_24
REMARK    7  A    between atoms: C14_24  and  O4_25
REMARK    8  A    between atoms: C14_24  and  C15_27
ROOT
HETATM    1  C3  UNL     1       5.460  -4.977  16.864  1.00  0.00     0.278 C
HETATM    2  O2  UNL     1       4.439  -5.023  16.064  1.00  0.00    -0.265 OA
HETATM    3  N2  UNL     1       5.191  -4.683  18.209  1.00  0.00    -0.322 N
ATOM      4  H2  UNL     1       5.974  -4.650  18.863  1.00  0.00     0.169 HD
ENDROOT
BRANCH   1   5
HETATM    5  C2  UNL     1       6.731  -5.238  16.235  1.00  0.00     0.171 C
HETATM    6  N1  UNL     1       7.743  -4.472  16.542  1.00  0.00    -0.258 N
ATOM      7  H1  UNL     1       8.645  -4.650  16.101  1.00  0.00     0.194 HD
BRANCH   6   8
HETATM    8  O1  UNL     1       7.639  -3.470  17.409  1.00  0.00    -0.285 OA
HETATM    9  C1  UNL     1       7.723  -2.093  17.140  1.00  0.00     0.237 C
ENDBRANCH   6   8
BRANCH   5  10
HETATM   10  C13 UNL     1       6.923  -6.315  15.278  1.00  0.00     0.216 C
HETATM   11  O3  UNL     1       6.520  -6.187  14.109  1.00  0.00    -0.287 OA
BRANCH  10  12
HETATM   12  C14 UNL     1       7.590  -7.606  15.586  1.00  0.00     0.248 C
BRANCH  12  13
HETATM   13  O4  UNL     1       8.519  -7.912  14.538  1.00  0.00    -0.383 OA
ATOM     14  H4  UNL     1       9.099  -8.604  14.833  1.00  0.00     0.210 HD
ENDBRANCH  12  13
BRANCH  12  15
HETATM   15  C15 UNL     1       6.647  -8.791  15.595  1.00  0.00     0.221 C
HETATM   16 CL1  UNL     1       6.493  -9.506  13.973  1.00  0.00    -0.080 Cl
HETATM   17 CL2  UNL     1       7.379 -10.069  16.641  1.00  0.00    -0.080 Cl
HETATM   18 CL3  UNL     1       5.081  -8.423  16.293  1.00  0.00    -0.080 Cl
ENDBRANCH  12  15
ENDBRANCH  10  12
ENDBRANCH   5  10
ENDBRANCH   1   5
BRANCH   3  19
HETATM   19  C4  UNL     1       3.884  -4.430  18.707  1.00  0.00     0.035 A
HETATM   20  C5  UNL     1       2.789  -5.199  18.441  1.00  0.00     0.032 A
HETATM   21  C6  UNL     1       1.577  -4.862  19.024  1.00  0.00     0.034 A
HETATM   22  C7  UNL     1       1.473  -3.773  19.857  1.00  0.00     0.056 A
HETATM   23  C11 UNL     1       2.575  -2.987  20.133  1.00  0.00     0.034 A
HETATM   24  C12 UNL     1       3.766  -3.321  19.558  1.00  0.00     0.032 A
BRANCH  22  25
HETATM   25  N3  UNL     1       0.224  -3.433  20.453  1.00  0.00    -0.268 N
HETATM   26  C8  UNL     1      -0.875  -4.194  20.346  1.00  0.00     0.118 A
HETATM   27  C9  UNL     1      -1.911  -3.568  21.044  1.00  0.00     0.038 A
HETATM   28  C10 UNL     1      -1.362  -2.412  21.557  1.00  0.00     0.109 A
HETATM   29  N4  UNL     1      -0.062  -2.365  21.177  1.00  0.00    -0.305 N
ATOM     30  H4  UNL     1       0.594  -1.619  21.412  1.00  0.00     0.186 HD
ENDBRANCH  22  25
ENDBRANCH   3  19
TORSDOF 8
ENDMDL