MODEL 4
REMARK VINA RESULT: -8.164961711      3.207      5.856
REMARK  7 active torsions:
REMARK  status: ('A' for Active; 'I' for Inactive)
REMARK    1  A    between atoms: N1_1  and  C1_4
REMARK    2  A    between atoms: N3_9  and  C4_10
REMARK    3  A    between atoms: C4_10  and  C5_11
REMARK    4  A    between atoms: N4_19  and  C12_20
REMARK    5  A    between atoms: C12_20  and  C13_21
REMARK    6  A    between atoms: C16_24  and  O2_25
REMARK    7  A    between atoms: O2_25  and  C17_26
ROOT
HETATM    1  C1  UNL     1       5.742  -6.321  13.840  1.00  0.00     0.131 A
HETATM    2  C2  UNL     1       5.308  -7.581  13.506  1.00  0.00     0.119 A
HETATM    3 CL1  UNL     1       3.846  -7.730  12.520  1.00  0.00    -0.077 Cl
HETATM    4  C3  UNL     1       5.999  -8.697  13.933  1.00  0.00     0.152 A
HETATM    5  N2  UNL     1       5.462  -9.960  13.590  1.00  0.00    -0.080 NA
HETATM    6  N3  UNL     1       7.110  -8.609  14.681  1.00  0.00    -0.260 N
HETATM    7  C11 UNL     1       7.510  -7.337  14.995  1.00  0.00     0.336 A
HETATM    8  O1  UNL     1       8.547  -7.301  15.717  1.00  0.00    -0.246 OA
HETATM    9  N4  UNL     1       6.862  -6.222  14.594  1.00  0.00    -0.279 N
ENDROOT
BRANCH   9  10
HETATM   10  C12 UNL     1       7.269  -4.935  15.031  1.00  0.00     0.175 C
BRANCH  10  11
HETATM   11  C13 UNL     1       6.784  -4.396  16.303  1.00  0.00    -0.018 A
HETATM   12  C14 UNL     1       5.717  -5.069  16.938  1.00  0.00     0.013 A
HETATM   13  C15 UNL     1       5.192  -4.697  18.129  1.00  0.00     0.037 A
HETATM   14  C16 UNL     1       5.681  -3.601  18.822  1.00  0.00     0.076 A
HETATM   15  C18 UNL     1       6.718  -2.930  18.226  1.00  0.00     0.061 A
HETATM   16  C19 UNL     1       7.263  -3.323  16.983  1.00  0.00     0.044 A
HETATM   17 CL2  UNL     1       8.588  -2.336  16.406  1.00  0.00    -0.084 Cl
BRANCH  14  18
HETATM   18  O2  UNL     1       5.113  -3.270  20.019  1.00  0.00    -0.290 OA
BRANCH  18  19
HETATM   19  C17 UNL     1       3.877  -2.704  20.283  1.00  0.00     0.505 C
HETATM   20  F1  UNL     1       3.641  -1.617  19.429  1.00  0.00    -0.184 F
HETATM   21  F2  UNL     1       2.825  -3.591  20.132  1.00  0.00    -0.184 F
ENDBRANCH  18  19
ENDBRANCH  14  18
ENDBRANCH  10  11
ENDBRANCH   9  10
BRANCH   1  22
HETATM   22  N1  UNL     1       5.062  -5.295  13.420  1.00  0.00    -0.384 N
ATOM     23  H12 UNL     1       4.107  -5.091  13.714  1.00  0.00     0.157 HD
ATOM     24  H11 UNL     1       5.501  -4.654  12.759  1.00  0.00     0.157 HD
ENDBRANCH   1  22
BRANCH   6  25
HETATM   25  C4  UNL     1       7.862  -9.770  15.114  1.00  0.00     0.114 C
BRANCH  25  26
HETATM   26  C5  UNL     1       8.841 -10.322  14.197  1.00  0.00    -0.020 A
HETATM   27  C6  UNL     1      10.009 -10.928  14.659  1.00  0.00     0.013 A
HETATM   28  C7  UNL     1      10.970 -11.463  13.809  1.00  0.00     0.001 A
HETATM   29  C8  UNL     1      10.767 -11.397  12.458  1.00  0.00     0.000 A
HETATM   30  C9  UNL     1       9.632 -10.810  11.959  1.00  0.00     0.001 A
HETATM   31  C10 UNL     1       8.683 -10.280  12.841  1.00  0.00     0.013 A
ENDBRANCH  25  26
ENDBRANCH   6  25
TORSDOF 7
ENDMDL