MODEL 3
REMARK VINA RESULT: -6.341840310      3.189      4.341
REMARK  6 active torsions:
REMARK  status: ('A' for Active; 'I' for Inactive)
REMARK    1  A    between atoms: C2_2  and  C3_3
REMARK    2  A    between atoms: C3_3  and  O1_4
REMARK       I    between atoms: N1_8  and  C6_9
REMARK    3  A    between atoms: C6_9  and  O3_11
REMARK    4  A    between atoms: O3_11  and  C7_12
REMARK    5  A    between atoms: C12_17  and  C14_19
REMARK    6  A    between atoms: C14_19  and  O5_21
ROOT
HETATM    1  C3  UNL     1       0.827  -6.683  14.747  1.00  0.00     0.077 C
HETATM    2  C4  UNL     1       2.110  -6.241  15.334  1.00  0.00     0.059 C
HETATM    3  C5  UNL     1       2.039  -5.469  16.588  1.00  0.00     0.131 C
HETATM    4  N1  UNL     1       0.767  -5.356  17.205  1.00  0.00    -0.327 N
HETATM    5  C6  UNL     1       0.701  -4.963  18.569  1.00  0.00     0.363 C
HETATM    6  O2  UNL     1      -0.411  -4.846  19.175  1.00  0.00    -0.238 OA
HETATM    7  C11 UNL     1      -0.451  -5.623  16.509  1.00  0.00     0.150 C
HETATM    8  C12 UNL     1      -0.257  -6.959  15.781  1.00  0.00     0.091 C
HETATM    9  C13 UNL     1       0.275  -8.004  16.713  1.00  0.00     0.031 C
ENDROOT
BRANCH   5  10
HETATM   10  O3  UNL     1       1.829  -4.683  19.326  1.00  0.00    -0.294 OA
BRANCH  10  11
HETATM   11  C7  UNL     1       2.319  -3.376  19.534  1.00  0.00     0.061 C
HETATM   12  C8  UNL     1       1.727  -2.371  18.584  1.00  0.00     0.046 C
HETATM   13  C9  UNL     1       1.888  -2.971  20.943  1.00  0.00     0.046 C
HETATM   14  C10 UNL     1       3.839  -3.342  19.519  1.00  0.00     0.046 C
ENDBRANCH  10  11
ENDBRANCH   5  10
BRANCH   8  15
HETATM   15  C14 UNL     1      -1.489  -7.396  15.138  1.00  0.00     0.271 C
HETATM   16  O4  UNL     1      -2.152  -6.581  14.450  1.00  0.00    -0.264 OA
BRANCH  15  17
HETATM   17  O5  UNL     1      -1.977  -8.687  15.249  1.00  0.00    -0.326 OA
HETATM   18  C15 UNL     1      -2.615  -9.358  14.156  1.00  0.00     0.213 C
ENDBRANCH  15  17
ENDBRANCH   8  15
BRANCH   1  19
HETATM   19  C2  UNL     1       1.058  -7.961  13.968  1.00  0.00     0.035 C
HETATM   20  C1  UNL     1       2.473  -8.094  13.492  1.00  0.00     0.008 C
ENDBRANCH   1  19
BRANCH   1  21
HETATM   21  O1  UNL     1       0.363  -5.725  13.822  1.00  0.00    -0.388 OA
ATOM     22  H1  UNL     1       0.515  -4.873  14.214  1.00  0.00     0.210 HD
ENDBRANCH   1  21
TORSDOF 6
ENDMDL