MODEL 1
REMARK VINA RESULT: -7.130032028      0.000      0.000
REMARK  5 active torsions:
REMARK  status: ('A' for Active; 'I' for Inactive)
REMARK    1  A    between atoms: C2_2  and  C3_3
REMARK    2  A    between atoms: C2_2  and  C4_6
REMARK    3  A    between atoms: C3_3  and  O1_4
REMARK    4  A    between atoms: C4_6  and  O3_8
REMARK    5  A    between atoms: O3_8  and  C5_9
ROOT
HETATM    1  C5  UNL     1       2.859  -4.974  17.849  1.00  0.00     0.159 C
HETATM    2  C6  UNL     1       4.146  -5.468  18.479  1.00  0.00     0.103 C
HETATM    3  C7  UNL     1       4.132  -6.606  17.507  1.00  0.00    -0.065 C
HETATM    4  C8  UNL     1       4.747  -7.771  17.528  1.00  0.00     0.016 C
HETATM    5  C9  UNL     1       3.207  -5.815  16.674  1.00  0.00     0.008 C
HETATM    6  C10 UNL     1       1.983  -6.635  16.245  1.00  0.00     0.023 C
HETATM    7  C11 UNL     1       3.797  -5.126  15.519  1.00  0.00     0.021 C
HETATM    8  C12 UNL     1       5.244  -4.804  15.582  1.00  0.00     0.039 C
HETATM    9  C13 UNL     1       5.710  -4.326  16.895  1.00  0.00    -0.036 A
HETATM   10  C14 UNL     1       5.287  -4.574  18.120  1.00  0.00     0.070 A
HETATM   11  O4  UNL     1       6.020  -3.907  19.072  1.00  0.00    -0.282 OA
HETATM   12  C15 UNL     1       7.014  -3.151  18.464  1.00  0.00     0.271 A
HETATM   13  O5  UNL     1       7.878  -2.411  18.978  1.00  0.00    -0.264 OA
HETATM   14  C16 UNL     1       6.870  -3.380  17.017  1.00  0.00     0.113 A
HETATM   15  C17 UNL     1       8.090  -4.010  16.401  1.00  0.00     0.025 C
ENDROOT
BRANCH   1  16
HETATM   16  O3  UNL     1       2.773  -3.600  17.659  1.00  0.00    -0.310 OA
BRANCH  16  17
HETATM   17  C4  UNL     1       2.048  -2.828  18.573  1.00  0.00     0.291 C
HETATM   18  O2  UNL     1       1.205  -1.997  18.090  1.00  0.00    -0.260 OA
BRANCH  17  19
HETATM   19  C2  UNL     1       2.228  -2.947  20.002  1.00  0.00     0.031 C
HETATM   20  C1  UNL     1       1.304  -3.520  20.729  1.00  0.00     0.027 C
BRANCH  19  21
HETATM   21  C3  UNL     1       3.447  -2.427  20.636  1.00  0.00     0.208 C
BRANCH  21  22
HETATM   22  O1  UNL     1       4.066  -1.569  19.729  1.00  0.00    -0.396 OA
ATOM     23  H1  UNL     1       4.949  -1.408  20.038  1.00  0.00     0.209 HD
ENDBRANCH  21  22
ENDBRANCH  19  21
ENDBRANCH  17  19
ENDBRANCH  16  17
ENDBRANCH   1  16
TORSDOF 5
ENDMDL