MODEL 3
REMARK VINA RESULT: -6.292783297      3.290      5.510
REMARK  5 active torsions:
REMARK  status: ('A' for Active; 'I' for Inactive)
REMARK    1  A    between atoms: S1_2  and  S2_3
REMARK    2  A    between atoms: S2_3  and  C2_4
REMARK    3  A    between atoms: C2_4  and  C3_6
REMARK    4  A    between atoms: C5_8  and  C6_9
REMARK    5  A    between atoms: C13_17  and  N2_18
ROOT
HETATM    1  C3  UNL     1       4.402  -6.659  15.356  1.00  0.00     0.164 C
HETATM    2  C4  UNL     1       4.813  -5.352  16.000  1.00  0.00     0.089 C
HETATM    3  C5  UNL     1       6.148  -5.988  15.674  1.00  0.00     0.099 C
HETATM    4  C12 UNL     1       6.223  -5.939  14.159  1.00  0.00     0.076 C
HETATM    5  C13 UNL     1       4.773  -6.396  13.887  1.00  0.00     0.229 C
HETATM    6  O2  UNL     1       5.537  -7.212  15.936  1.00  0.00    -0.356 OA
ENDROOT
BRANCH   3   7
HETATM    7  C6  UNL     1       7.322  -5.597  16.431  1.00  0.00     0.257 C
HETATM    8  C7  UNL     1       8.558  -6.393  16.219  1.00  0.00     0.045 C
HETATM    9  C8  UNL     1       9.649  -5.342  16.125  1.00  0.00     0.012 C
HETATM   10  C9  UNL     1      10.751  -5.803  15.193  1.00  0.00     0.012 C
HETATM   11  C10 UNL     1       8.932  -4.136  15.614  1.00  0.00     0.277 C
HETATM   12  N1  UNL     1       7.629  -4.201  16.196  1.00  0.00     0.092 N
HETATM   13  C11 UNL     1       7.453  -3.373  17.350  1.00  0.00     0.310 C
ENDBRANCH   3   7
BRANCH   1  14
HETATM   14  C2  UNL     1       3.117  -7.209  15.637  1.00  0.00     0.233 C
HETATM   15  O1  UNL     1       2.975  -8.299  16.157  1.00  0.00    -0.281 OA
BRANCH  14  16
HETATM   16  S2  UNL     1       1.656  -6.268  15.215  1.00  0.00    -0.017 SA
BRANCH  16  17
HETATM   17  S1  UNL     1       0.885  -5.212  16.877  1.00  0.00    -0.094 SA
HETATM   18  C1  UNL     1       1.830  -5.575  18.390  1.00  0.00     0.103 C
ENDBRANCH  16  17
ENDBRANCH  14  16
ENDBRANCH   1  14
BRANCH   5  19
HETATM   19  N2  UNL     1       4.728  -7.582  13.099  1.00  0.00    -0.072 N
ATOM     20  H23 UNL     1       3.778  -7.947  13.037  1.00  0.00     0.274 HD
ATOM     21  H22 UNL     1       4.887  -7.375  12.113  1.00  0.00     0.274 HD
ATOM     22  H21 UNL     1       5.376  -8.294  13.435  1.00  0.00     0.274 HD
ENDBRANCH   5  19
TORSDOF 5
ENDMDL