MODEL 5
REMARK VINA RESULT: -5.489220975      2.898      4.295
REMARK  4 active torsions:
REMARK  status: ('A' for Active; 'I' for Inactive)
REMARK    1  A    between atoms: C2_2  and  O1_3
REMARK    2  A    between atoms: O1_3  and  C3_4
REMARK    3  A    between atoms: C3_4  and  C4_6
REMARK       I    between atoms: N1_12  and  C8_13
REMARK       I    between atoms: C8_13  and  N2_15
REMARK    4  A    between atoms: N2_15  and  C9_17
ROOT
HETATM    1  C4  UNL     1       2.921  -7.590  16.369  1.00  0.00     0.198 C
HETATM    2  C5  UNL     1       2.142  -8.728  15.743  1.00  0.00     0.111 C
HETATM    3  S1  UNL     1       0.401  -8.717  16.162  1.00  0.00    -0.149 SA
HETATM    4  C6  UNL     1      -0.172  -6.998  16.162  1.00  0.00     0.138 C
HETATM    5  S2  UNL     1      -1.649  -6.764  15.166  1.00  0.00    -0.079 SA
HETATM    6  C7  UNL     1       0.986  -6.151  15.645  1.00  0.00     0.155 C
HETATM    7  N1  UNL     1       2.096  -6.403  16.515  1.00  0.00    -0.318 N
HETATM    8  C8  UNL     1       2.420  -5.495  17.551  1.00  0.00     0.319 C
HETATM    9  O3  UNL     1       3.408  -5.726  18.307  1.00  0.00    -0.247 OA
HETATM   10  N2  UNL     1       1.702  -4.301  17.822  1.00  0.00    -0.335 N
ATOM     11  H2  UNL     1       0.898  -4.078  17.236  1.00  0.00     0.165 HD
ENDROOT
BRANCH   1  12
HETATM   12  C3  UNL     1       4.089  -7.328  15.490  1.00  0.00     0.282 C
HETATM   13  O2  UNL     1       3.880  -7.256  14.252  1.00  0.00    -0.263 OA
BRANCH  12  14
HETATM   14  O1  UNL     1       5.366  -7.163  15.950  1.00  0.00    -0.320 OA
BRANCH  14  15
HETATM   15  C2  UNL     1       6.247  -6.144  15.568  1.00  0.00     0.174 C
HETATM   16  C1  UNL     1       5.734  -4.770  15.910  1.00  0.00     0.034 C
ENDBRANCH  14  15
ENDBRANCH  12  14
ENDBRANCH   1  12
BRANCH  10  17
HETATM   17  C9  UNL     1       2.046  -3.389  18.878  1.00  0.00     0.023 C
HETATM   18  C10 UNL     1       1.377  -3.806  20.181  1.00  0.00     0.037 C
HETATM   19  C11 UNL     1       1.534  -2.000  18.570  1.00  0.00     0.037 C
HETATM   20  C12 UNL     1       3.528  -3.348  19.149  1.00  0.00     0.037 C
ENDBRANCH  10  17
TORSDOF 4
ENDMDL