MODEL 1
REMARK VINA RESULT: -7.590163628      0.000      0.000
REMARK  4 active torsions:
REMARK  status: ('A' for Active; 'I' for Inactive)
REMARK    1  A    between atoms: C6_8  and  O3_9
REMARK    2  A    between atoms: O3_9  and  C7_10
REMARK    3  A    between atoms: C13_17  and  C15_19
REMARK    4  A    between atoms: C17_21  and  O5_22
ROOT
HETATM    1  C1  UNL     1       2.123  -8.195  16.075  1.00  0.00     0.028 C
HETATM    2  C2  UNL     1       3.047  -7.272  15.978  1.00  0.00     0.045 C
HETATM    3  C3  UNL     1       3.516  -6.690  14.736  1.00  0.00     0.292 C
HETATM    4  O1  UNL     1       3.249  -7.076  13.581  1.00  0.00    -0.259 OA
HETATM    5  O2  UNL     1       4.327  -5.613  15.059  1.00  0.00    -0.300 OA
HETATM    6  C4  UNL     1       4.852  -5.756  16.367  1.00  0.00     0.129 C
HETATM    7  C5  UNL     1       6.138  -6.580  16.207  1.00  0.00     0.053 C
HETATM    8  C6  UNL     1       5.143  -4.457  16.985  1.00  0.00     0.170 C
HETATM    9  C9  UNL     1       4.823  -4.299  18.423  1.00  0.00     0.041 C
HETATM   10  C10 UNL     1       3.581  -4.948  18.907  1.00  0.00     0.003 C
HETATM   11  C11 UNL     1       2.925  -5.899  17.984  1.00  0.00     0.034 C
HETATM   12  C12 UNL     1       2.047  -4.816  17.498  1.00  0.00     0.018 C
HETATM   13  C13 UNL     1       2.319  -4.117  18.814  1.00  0.00    -0.040 C
HETATM   14  C14 UNL     1       2.571  -2.649  18.732  1.00  0.00     0.015 C
HETATM   15  C17 UNL     1       3.825  -6.603  17.045  1.00  0.00     0.128 C
ENDROOT
BRANCH   8  16
HETATM   16  O3  UNL     1       6.552  -4.203  16.835  1.00  0.00    -0.313 OA
BRANCH  16  17
HETATM   17  C7  UNL     1       7.302  -3.521  17.747  1.00  0.00     0.255 C
HETATM   18  C8  UNL     1       7.430  -2.022  17.654  1.00  0.00     0.126 C
HETATM   19  O4  UNL     1       7.878  -4.174  18.656  1.00  0.00    -0.266 OA
ENDBRANCH  16  17
ENDBRANCH   8  16
BRANCH  15  20
HETATM   20  O5  UNL     1       4.494  -7.588  17.780  1.00  0.00    -0.381 OA
ATOM     21  H5  UNL     1       5.322  -7.226  18.074  1.00  0.00     0.211 HD
ENDBRANCH  15  20
BRANCH  13  22
HETATM   22  C15 UNL     1       1.311  -4.560  19.840  1.00  0.00     0.005 C
HETATM   23  C16 UNL     1       0.767  -3.397  20.642  1.00  0.00     0.006 C
ENDBRANCH  13  22
TORSDOF 4
ENDMDL