MODEL 4
REMARK VINA RESULT: -6.140064568      3.484      6.942
REMARK  6 active torsions:
REMARK  status: ('A' for Active; 'I' for Inactive)
REMARK    1  A    between atoms: O1_2  and  C2_3
REMARK    2  A    between atoms: C2_3  and  C3_5
REMARK    3  A    between atoms: C3_5  and  S1_6
REMARK    4  A    between atoms: S1_6  and  C4_7
REMARK    5  A    between atoms: N2_13  and  C7_15
REMARK    6  A    between atoms: C7_15  and  C8_19
ROOT
HETATM    1  C4  UNL     1       5.344  -5.210  17.065  1.00  0.00     0.117 A
HETATM    2  N1  UNL     1       6.050  -4.631  17.926  1.00  0.00    -0.310 N
ATOM      3  H1  UNL     1       7.055  -4.800  17.959  1.00  0.00     0.170 HD
HETATM    4  C5  UNL     1       5.468  -3.768  18.828  1.00  0.00     0.280 A
HETATM    5  O3  UNL     1       6.127  -3.144  19.732  1.00  0.00    -0.265 OA
HETATM    6  C6  UNL     1       4.030  -3.592  18.703  1.00  0.00     0.147 A
HETATM    7  N2  UNL     1       3.220  -2.874  19.374  1.00  0.00    -0.333 N
ATOM      8  H2  UNL     1       3.539  -2.291  20.149  1.00  0.00     0.168 HD
HETATM    9  S2  UNL     1       3.658  -4.685  17.299  1.00  0.00    -0.042 SA
ENDROOT
BRANCH   7  10
HETATM   10  C7  UNL     1       1.825  -2.921  18.989  1.00  0.00     0.099 C
HETATM   11  N3  UNL     1       1.323  -1.957  18.328  1.00  0.00    -0.385 N
ATOM     12  H32 UNL     1       1.857  -1.133  18.047  1.00  0.00     0.157 HD
ATOM     13  H31 UNL     1       0.340  -1.991  18.056  1.00  0.00     0.157 HD
BRANCH  10  14
HETATM   14  C8  UNL     1       1.070  -4.088  19.386  1.00  0.00     0.050 C
HETATM   15  C9  UNL     1       0.331  -4.093  20.473  1.00  0.00    -0.084 C
HETATM   16  C10 UNL     1       0.171  -2.966  21.406  1.00  0.00     0.043 C
HETATM   17  C11 UNL     1      -0.400  -5.398  20.745  1.00  0.00     0.043 C
ENDBRANCH  10  14
ENDBRANCH   7  10
BRANCH   1  18
HETATM   18  S1  UNL     1       5.887  -6.351  15.821  1.00  0.00    -0.095 SA
BRANCH  18  19
HETATM   19  C3  UNL     1       7.015  -5.494  14.657  1.00  0.00     0.192 C
BRANCH  19  20
HETATM   20  C2  UNL     1       8.306  -5.232  15.320  1.00  0.00     0.268 C
HETATM   21  O2  UNL     1       8.497  -4.131  15.895  1.00  0.00    -0.264 OA
BRANCH  20  22
HETATM   22  O1  UNL     1       9.324  -6.157  15.338  1.00  0.00    -0.326 OA
HETATM   23  C1  UNL     1      10.657  -5.716  15.348  1.00  0.00     0.213 C
ENDBRANCH  20  22
ENDBRANCH  19  20
ENDBRANCH  18  19
ENDBRANCH   1  18
TORSDOF 6
ENDMDL