MODEL 5
REMARK VINA RESULT: -6.355753029      1.499      1.707
REMARK  4 active torsions:
REMARK  status: ('A' for Active; 'I' for Inactive)
REMARK    1  A    between atoms: O1_2  and  C2_3
REMARK    2  A    between atoms: C10_12  and  O3_13
REMARK    3  A    between atoms: O3_13  and  C11_14
REMARK    4  A    between atoms: C17_21  and  O5_22
ROOT
HETATM    1  C2  UNL     1       5.700  -5.890  16.466  1.00  0.00     0.059 C
HETATM    2  C3  UNL     1       5.455  -6.319  15.234  1.00  0.00     0.084 C
HETATM    3  C4  UNL     1       4.062  -6.884  15.220  1.00  0.00     0.164 C
HETATM    4  O2  UNL     1       3.675  -7.854  14.553  1.00  0.00    -0.292 OA
HETATM    5  C5  UNL     1       3.467  -5.953  16.168  1.00  0.00     0.066 C
HETATM    6  C6  UNL     1       3.608  -4.592  15.521  1.00  0.00     0.028 C
HETATM    7  C7  UNL     1       4.523  -6.183  17.241  1.00  0.00     0.025 C
HETATM    8  C8  UNL     1       4.683  -7.663  17.577  1.00  0.00     0.024 C
HETATM    9  C9  UNL     1       4.056  -5.475  18.387  1.00  0.00     0.051 C
HETATM   10  C10 UNL     1       2.807  -4.628  18.281  1.00  0.00     0.144 C
HETATM   11  C13 UNL     1       1.710  -4.927  17.422  1.00  0.00     0.021 A
HETATM   12  C14 UNL     1       0.762  -3.811  17.403  1.00  0.00     0.021 C
HETATM   13  C15 UNL     1       0.977  -5.797  16.494  1.00  0.00     0.032 A
HETATM   14  C16 UNL     1      -0.331  -6.375  17.052  1.00  0.00     0.014 C
HETATM   15  C17 UNL     1       2.199  -6.159  16.861  1.00  0.00     0.088 A
ENDROOT
BRANCH  10  16
HETATM   16  O3  UNL     1       2.362  -4.292  19.586  1.00  0.00    -0.315 OA
BRANCH  16  17
HETATM   17  C11 UNL     1       2.566  -3.129  20.253  1.00  0.00     0.255 C
HETATM   18  C12 UNL     1       3.618  -2.185  19.827  1.00  0.00     0.126 C
HETATM   19  O4  UNL     1       1.803  -2.951  21.221  1.00  0.00    -0.266 OA
ENDBRANCH  16  17
ENDBRANCH  10  16
BRANCH  15  20
HETATM   20  O5  UNL     1       2.203  -7.311  17.705  1.00  0.00    -0.387 OA
ATOM     21  H5  UNL     1       1.373  -7.453  18.145  1.00  0.00     0.210 HD
ENDBRANCH  15  20
BRANCH   1  22
HETATM   22  O1  UNL     1       6.857  -5.287  16.937  1.00  0.00    -0.359 OA
HETATM   23  C1  UNL     1       7.122  -3.909  16.781  1.00  0.00     0.209 C
ENDBRANCH   1  22
TORSDOF 4
ENDMDL