MODEL 3
REMARK VINA RESULT: -5.666909613      2.090      4.451
REMARK  5 active torsions:
REMARK  status: ('A' for Active; 'I' for Inactive)
REMARK    1  A    between atoms: C2_2  and  O2_4
REMARK    2  A    between atoms: O2_4  and  C3_5
REMARK    3  A    between atoms: C11_13  and  O3_14
REMARK    4  A    between atoms: C12_16  and  O4_17
REMARK    5  A    between atoms: O4_17  and  C13_18
ROOT
HETATM    1  C3  UNL     1       2.820  -5.015  17.348  1.00  0.00     0.143 C
HETATM    2  C4  UNL     1       4.102  -4.233  17.446  1.00  0.00     0.034 C
HETATM    3  C5  UNL     1       4.445  -3.662  18.750  1.00  0.00     0.007 C
HETATM    4  C6  UNL     1       3.467  -3.724  19.849  1.00  0.00    -0.014 C
HETATM    5  C7  UNL     1       3.171  -2.306  20.370  1.00  0.00     0.010 C
HETATM    6  C8  UNL     1       2.174  -4.429  19.568  1.00  0.00     0.003 C
HETATM    7  C9  UNL     1       1.060  -4.017  20.461  1.00  0.00     0.008 C
HETATM    8  C10 UNL     1      -0.038  -5.068  20.402  1.00  0.00     0.035 C
HETATM    9  C11 UNL     1       0.064  -5.915  19.176  1.00  0.00     0.148 C
HETATM   10  C12 UNL     1       0.386  -4.966  18.014  1.00  0.00     0.171 C
HETATM   11  C15 UNL     1       1.727  -4.332  18.125  1.00  0.00     0.016 C
HETATM   12  C16 UNL     1       1.591  -2.890  17.681  1.00  0.00     0.021 C
ENDROOT
BRANCH   1  13
HETATM   13  O2  UNL     1       3.081  -6.269  17.962  1.00  0.00    -0.315 OA
BRANCH  13  14
HETATM   14  C2  UNL     1       3.539  -7.381  17.277  1.00  0.00     0.255 C
HETATM   15  C1  UNL     1       2.697  -7.946  16.212  1.00  0.00     0.126 C
HETATM   16  O1  UNL     1       4.632  -7.883  17.557  1.00  0.00    -0.266 OA
ENDBRANCH  13  14
ENDBRANCH   1  13
BRANCH  10  17
HETATM   17  O4  UNL     1       0.146  -5.557  16.768  1.00  0.00    -0.313 OA
BRANCH  17  18
HETATM   18  C13 UNL     1      -1.094  -5.601  16.186  1.00  0.00     0.255 C
HETATM   19  C14 UNL     1      -1.494  -6.709  15.247  1.00  0.00     0.126 C
HETATM   20  O5  UNL     1      -1.909  -4.678  16.458  1.00  0.00    -0.266 OA
ENDBRANCH  17  18
ENDBRANCH  10  17
BRANCH   9  21
HETATM   21  O3  UNL     1      -1.217  -6.440  18.884  1.00  0.00    -0.393 OA
ATOM     22  H3  UNL     1      -1.161  -7.389  18.884  1.00  0.00     0.210 HD
ENDBRANCH   9  21
TORSDOF 5
ENDMDL