MODEL 2
REMARK VINA RESULT: -6.773612961      1.719      2.259
REMARK  4 active torsions:
REMARK  status: ('A' for Active; 'I' for Inactive)
REMARK    1  A    between atoms: C2_2  and  C3_3
REMARK    2  A    between atoms: C14_16  and  O3_17
REMARK    3  A    between atoms: C15_19  and  O4_20
REMARK    4  A    between atoms: O4_20  and  C16_21
ROOT
HETATM    1  C3  UNL     1       6.173  -5.862  16.427  1.00  0.00     0.052 C
HETATM    2  C4  UNL     1       5.489  -7.152  16.094  1.00  0.00     0.189 C
HETATM    3  C5  UNL     1       4.773  -7.517  17.379  1.00  0.00     0.005 C
HETATM    4  C6  UNL     1       3.996  -6.478  17.756  1.00  0.00    -0.013 C
HETATM    5  C7  UNL     1       3.916  -5.213  16.973  1.00  0.00     0.033 C
HETATM    6  C8  UNL     1       2.908  -4.432  17.782  1.00  0.00     0.019 C
HETATM    7  C9  UNL     1       1.663  -5.330  17.766  1.00  0.00     0.009 C
HETATM    8  C10 UNL     1       1.441  -6.266  16.659  1.00  0.00     0.021 C
HETATM    9  C11 UNL     1       0.878  -7.607  17.165  1.00  0.00     0.013 C
HETATM   10  C12 UNL     1       2.432  -6.454  15.577  1.00  0.00     0.122 C
HETATM   11  C13 UNL     1       1.791  -6.437  14.176  1.00  0.00     0.052 C
HETATM   12  O1  UNL     1       3.294  -7.504  15.577  1.00  0.00    -0.226 OA
HETATM   13  O2  UNL     1       4.524  -7.170  15.154  1.00  0.00    -0.230 OA
HETATM   14  C14 UNL     1       3.264  -5.204  15.634  1.00  0.00     0.170 C
HETATM   15  C15 UNL     1       5.283  -4.707  16.816  1.00  0.00     0.153 C
ENDROOT
BRANCH  15  16
HETATM   16  O4  UNL     1       5.790  -3.901  17.829  1.00  0.00    -0.315 OA
BRANCH  16  17
HETATM   17  C16 UNL     1       7.053  -3.446  18.012  1.00  0.00     0.255 C
HETATM   18  C17 UNL     1       7.500  -2.241  17.267  1.00  0.00     0.126 C
HETATM   19  O5  UNL     1       7.761  -4.079  18.802  1.00  0.00    -0.266 OA
ENDBRANCH  16  17
ENDBRANCH  15  16
BRANCH   1  20
HETATM   20  C2  UNL     1       7.250  -5.469  15.446  1.00  0.00     0.006 C
HETATM   21  C1  UNL     1       8.564  -6.164  15.831  1.00  0.00     0.006 C
ENDBRANCH   1  20
BRANCH  14  22
HETATM   22  O3  UNL     1       4.051  -4.944  14.540  1.00  0.00    -0.391 OA
ATOM     23  H3  UNL     1       3.677  -5.091  13.680  1.00  0.00     0.210 HD
ENDBRANCH  14  22
TORSDOF 4
ENDMDL