MODEL 2
REMARK VINA RESULT: -7.656119722      2.077      4.434
REMARK  4 active torsions:
REMARK  status: ('A' for Active; 'I' for Inactive)
REMARK    1  A    between atoms: O1_2  and  C2_3
REMARK    2  A    between atoms: C2_3  and  C3_5
REMARK    3  A    between atoms: C13_17  and  C14_18
REMARK    4  A    between atoms: C14_18  and  O5_21
ROOT
HETATM    1  C3  UNL     1       0.537  -5.052  16.844  1.00  0.00     0.086 C
HETATM    2  C4  UNL     1       0.475  -6.371  16.070  1.00  0.00     0.022 C
HETATM    3  C5  UNL     1       1.265  -6.324  14.770  1.00  0.00     0.088 C
HETATM    4  C6  UNL     1       2.509  -7.110  14.751  1.00  0.00     0.195 C
HETATM    5  O3  UNL     1       2.313  -8.391  14.812  1.00  0.00    -0.289 OA
HETATM    6  C7  UNL     1       3.893  -6.717  14.675  1.00  0.00     0.202 C
HETATM    7  O4  UNL     1       4.627  -7.186  13.720  1.00  0.00    -0.288 OA
HETATM    8  C8  UNL     1       4.688  -5.809  15.553  1.00  0.00     0.021 C
HETATM    9  C9  UNL     1       5.786  -6.666  16.200  1.00  0.00     0.023 C
HETATM   10  C10 UNL     1       5.336  -4.693  14.776  1.00  0.00     0.023 C
HETATM   11  C11 UNL     1       3.721  -5.286  16.513  1.00  0.00     0.017 C
HETATM   12  C12 UNL     1       3.945  -4.472  17.682  1.00  0.00     0.009 C
HETATM   13  C13 UNL     1       2.514  -3.957  18.023  1.00  0.00     0.020 C
HETATM   14  C17 UNL     1       1.475  -5.030  18.011  1.00  0.00     0.022 C
ENDROOT
BRANCH  13  15
HETATM   15  C14 UNL     1       2.581  -3.101  19.245  1.00  0.00     0.054 C
HETATM   16  C15 UNL     1       1.676  -3.588  20.341  1.00  0.00     0.045 C
HETATM   17  C16 UNL     1       3.968  -2.967  19.812  1.00  0.00     0.045 C
BRANCH  15  18
HETATM   18  O5  UNL     1       2.132  -1.822  18.882  1.00  0.00    -0.390 OA
ATOM     19  H5  UNL     1       2.652  -1.542  18.138  1.00  0.00     0.210 HD
ENDBRANCH  15  18
ENDBRANCH  13  15
BRANCH   1  20
HETATM   20  C2  UNL     1      -0.880  -4.840  17.286  1.00  0.00     0.262 C
HETATM   21  O2  UNL     1      -1.836  -4.722  16.493  1.00  0.00    -0.265 OA
BRANCH  20  22
HETATM   22  O1  UNL     1      -1.189  -4.765  18.640  1.00  0.00    -0.326 OA
HETATM   23  C1  UNL     1      -1.974  -5.737  19.298  1.00  0.00     0.213 C
ENDBRANCH  20  22
ENDBRANCH   1  20
TORSDOF 4
ENDMDL