MODEL 3
REMARK VINA RESULT: -8.146973637      3.111      7.234
REMARK  6 active torsions:
REMARK  status: ('A' for Active; 'I' for Inactive)
REMARK       I    between atoms: C1_2  and  N2_4
REMARK    1  A    between atoms: N2_4  and  C2_6
REMARK    2  A    between atoms: C5_9  and  C6_10
REMARK    3  A    between atoms: C6_10  and  C7_11
REMARK    4  A    between atoms: C7_11  and  S1_12
REMARK    5  A    between atoms: S1_12  and  N3_15
REMARK    6  A    between atoms: C10_18  and  N4_19
ROOT
HETATM    1  S1  UNL     1       2.401  -4.556  18.676  1.00  0.00     0.211 S
HETATM    2  O2  UNL     1       1.689  -3.944  17.505  1.00  0.00    -0.211 OA
HETATM    3  O3  UNL     1       3.124  -3.491  19.438  1.00  0.00    -0.211 OA
ENDROOT
BRANCH   1   4
HETATM    4  C7  UNL     1       1.196  -5.325  19.735  1.00  0.00     0.158 C
BRANCH   4   5
HETATM    5  C6  UNL     1      -0.129  -5.257  19.028  1.00  0.00     0.021 C
BRANCH   5   6
HETATM    6  C5  UNL     1      -0.729  -6.621  18.891  1.00  0.00    -0.013 C
HETATM    7  C4  UNL     1      -2.192  -6.618  18.635  1.00  0.00     0.007 C
HETATM    8  C3  UNL     1      -2.448  -5.859  17.348  1.00  0.00     0.026 C
HETATM    9  C2  UNL     1      -1.724  -6.483  16.180  1.00  0.00     0.085 C
HETATM   10  C19 UNL     1      -0.271  -6.715  16.441  1.00  0.00     0.026 C
HETATM   11  C18 UNL     1       0.036  -7.321  17.778  1.00  0.00     0.007 C
BRANCH   9  12
HETATM   12  N2  UNL     1      -2.412  -7.708  15.780  1.00  0.00    -0.341 N
HETATM   13  C1  UNL     1      -2.591  -8.072  14.442  1.00  0.00     0.329 C
HETATM   14  N1  UNL     1      -3.262  -9.264  14.102  1.00  0.00    -0.040 NA
HETATM   15  O1  UNL     1      -2.154  -7.334  13.533  1.00  0.00    -0.251 OA
ATOM     16  H2  UNL     1      -2.777  -8.323  16.508  1.00  0.00     0.164 HD
ENDBRANCH   9  12
ENDBRANCH   5   6
ENDBRANCH   4   5
ENDBRANCH   1   4
BRANCH   1  17
HETATM   17  N3  UNL     1       3.511  -5.728  18.055  1.00  0.00    -0.210 NA
HETATM   18  C8  UNL     1       3.311  -5.781  16.629  1.00  0.00     0.109 C
HETATM   19  C9  UNL     1       4.515  -6.409  15.918  1.00  0.00     0.040 C
HETATM   20  C10 UNL     1       5.743  -5.556  16.122  1.00  0.00     0.081 C
HETATM   21  C16 UNL     1       5.755  -4.884  17.462  1.00  0.00     0.040 C
HETATM   22  C17 UNL     1       4.845  -5.499  18.469  1.00  0.00     0.109 C
BRANCH  20  23
HETATM   23  N4  UNL     1       6.964  -6.243  15.858  1.00  0.00    -0.408 N
HETATM   24  C11 UNL     1       7.290  -6.412  14.480  1.00  0.00     0.117 C
HETATM   25  C12 UNL     1       8.703  -7.010  14.425  1.00  0.00     0.019 C
HETATM   26  C13 UNL     1       9.671  -5.955  14.860  1.00  0.00     0.003 C
HETATM   27  C14 UNL     1       9.129  -5.076  15.965  1.00  0.00     0.019 C
HETATM   28  C15 UNL     1       8.053  -5.836  16.693  1.00  0.00     0.117 C
ENDBRANCH  20  23
ENDBRANCH   1  17
TORSDOF 6
ENDMDL