MODEL 5
REMARK VINA RESULT: -7.299244367      1.614      3.061
REMARK  8 active torsions:
REMARK  status: ('A' for Active; 'I' for Inactive)
REMARK    1  A    between atoms: C2_2  and  N1_3
REMARK    2  A    between atoms: N1_3  and  C3_4
REMARK    3  A    between atoms: N1_3  and  C18_25
REMARK    4  A    between atoms: C3_4  and  C4_5
REMARK    5  A    between atoms: C7_8  and  N2_9
REMARK    6  A    between atoms: N2_9  and  C8_11
REMARK    7  A    between atoms: C8_11  and  N3_13
REMARK    8  A    between atoms: N3_13  and  C9_15
ROOT
HETATM    1  C18 UNL     1       7.493  -4.750  17.880  1.00  0.00     0.225 C
HETATM    2  C19 UNL     1       8.122  -3.475  17.378  1.00  0.00     0.055 C
HETATM    3  C20 UNL     1       8.391  -4.257  16.081  1.00  0.00     0.097 C
HETATM    4  C21 UNL     1       9.611  -3.878  15.418  1.00  0.00     0.064 C
HETATM    5  N5  UNL     1      10.569  -3.586  14.877  1.00  0.00    -0.197 NA
HETATM    6  C22 UNL     1       8.556  -5.462  17.022  1.00  0.00     0.055 C
ENDROOT
BRANCH   1   7
HETATM    7  N1  UNL     1       6.159  -4.947  17.417  1.00  0.00     0.093 N
BRANCH   7   8
HETATM    8  C2  UNL     1       5.278  -5.243  18.498  1.00  0.00     0.268 C
HETATM    9  C1  UNL     1       4.589  -4.033  19.081  1.00  0.00     0.037 C
ENDBRANCH   7   8
BRANCH   7  10
HETATM   10  C3  UNL     1       6.152  -5.974  16.389  1.00  0.00     0.277 C
BRANCH  10  11
HETATM   11  C4  UNL     1       5.209  -5.652  15.265  1.00  0.00     0.014 C
HETATM   12  C5  UNL     1       3.812  -6.011  15.694  1.00  0.00     0.008 C
HETATM   13  C6  UNL     1       3.390  -7.395  15.335  1.00  0.00     0.025 C
HETATM   14  C7  UNL     1       3.539  -7.769  13.899  1.00  0.00     0.083 C
HETATM   15  C16 UNL     1       4.399  -6.757  13.183  1.00  0.00     0.025 C
HETATM   16  C17 UNL     1       5.599  -6.472  14.036  1.00  0.00     0.008 C
BRANCH  14  17
HETATM   17  N2  UNL     1       2.266  -7.914  13.202  1.00  0.00    -0.363 N
ATOM     18  H2  UNL     1       2.042  -7.252  12.459  1.00  0.00     0.162 HD
BRANCH  17  19
HETATM   19  C8  UNL     1       1.321  -8.932  13.507  1.00  0.00     0.168 C
HETATM   20  S1  UNL     1       1.293 -10.348  12.653  1.00  0.00    -0.041 SA
BRANCH  19  21
HETATM   21  N3  UNL     1       0.381  -8.745  14.546  1.00  0.00    -0.361 N
ATOM     22  H3  UNL     1       0.122  -9.561  15.100  1.00  0.00     0.162 HD
BRANCH  21  23
HETATM   23  C9  UNL     1      -0.234  -7.495  14.880  1.00  0.00     0.116 C
HETATM   24  C10 UNL     1      -1.748  -7.523  14.829  1.00  0.00     0.297 C
HETATM   25  N4  UNL     1      -2.310  -7.389  16.184  1.00  0.00     0.090 N
HETATM   26  C11 UNL     1      -2.050  -6.022  16.663  1.00  0.00     0.273 C
HETATM   27  C15 UNL     1      -1.594  -8.350  17.018  1.00  0.00     0.273 C
HETATM   28  C12 UNL     1      -0.609  -5.613  16.366  1.00  0.00     0.037 C
HETATM   29  C13 UNL     1       0.186  -6.914  16.189  1.00  0.00     0.013 C
HETATM   30  C14 UNL     1      -0.217  -7.788  17.359  1.00  0.00     0.037 C
ENDBRANCH  21  23
ENDBRANCH  19  21
ENDBRANCH  17  19
ENDBRANCH  14  17
ENDBRANCH  10  11
ENDBRANCH   7  10
ENDBRANCH   1   7
TORSDOF 8
ENDMDL