MODEL 1
REMARK VINA RESULT: -8.851420870      0.000      0.000
REMARK  8 active torsions:
REMARK  status: ('A' for Active; 'I' for Inactive)
REMARK    1  A    between atoms: N1_2  and  C3_4
REMARK    2  A    between atoms: C10_11  and  C11_12
REMARK    3  A    between atoms: C11_12  and  C12_13
REMARK    4  A    between atoms: C12_13  and  C13_14
REMARK    5  A    between atoms: C12_13  and  C14_17
REMARK    6  A    between atoms: C13_14  and  O1_15
REMARK    7  A    between atoms: C14_17  and  C15_18
REMARK       I    between atoms: C15_18  and  N2_20
REMARK    8  A    between atoms: C18_23  and  C19_24
ROOT
HETATM    1  C12 UNL     1       3.433  -4.802  18.288  1.00  0.00     0.018 C
ENDROOT
BRANCH   1   2
HETATM    2  C11 UNL     1       3.683  -6.107  17.650  1.00  0.00     0.012 C
BRANCH   2   3
HETATM    3  C10 UNL     1       3.543  -6.116  16.148  1.00  0.00    -0.010 C
HETATM    4  C9  UNL     1       4.854  -6.083  15.439  1.00  0.00     0.005 C
HETATM    5  C8  UNL     1       4.710  -6.204  13.962  1.00  0.00     0.001 C
HETATM    6  C7  UNL     1       3.385  -6.747  13.500  1.00  0.00     0.005 C
HETATM    7  C6  UNL     1       3.002  -7.861  14.416  1.00  0.00    -0.010 C
HETATM    8  C5  UNL     1       1.880  -8.689  13.884  1.00  0.00     0.007 C
HETATM    9  C22 UNL     1       2.664  -7.296  15.766  1.00  0.00    -0.004 C
HETATM   10  C4  UNL     1       0.710  -7.797  13.636  1.00  0.00     0.025 C
HETATM   11  C3  UNL     1       0.400  -6.835  14.738  1.00  0.00     0.078 C
HETATM   12  C23 UNL     1       1.217  -7.008  15.980  1.00  0.00     0.030 C
BRANCH  11  13
HETATM   13  N1  UNL     1      -1.002  -6.977  15.055  1.00  0.00    -0.417 N
HETATM   14  C1  UNL     1      -1.529  -8.291  14.929  1.00  0.00     0.143 C
HETATM   15  C2  UNL     1      -1.458  -6.212  16.167  1.00  0.00     0.143 C
ENDBRANCH  11  13
ENDBRANCH   2   3
ENDBRANCH   1   2
BRANCH   1  16
HETATM   16  C13 UNL     1       2.171  -4.830  19.172  1.00  0.00     0.169 C
BRANCH  16  17
HETATM   17  O1  UNL     1       1.965  -3.588  19.756  1.00  0.00    -0.400 OA
ATOM     18  H1  UNL     1       1.696  -3.690  20.661  1.00  0.00     0.209 HD
ENDBRANCH  16  17
ENDBRANCH   1  16
BRANCH   1  19
HETATM   19  C14 UNL     1       4.555  -4.411  19.198  1.00  0.00     0.109 C
BRANCH  19  20
HETATM   20  C15 UNL     1       5.458  -3.368  18.715  1.00  0.00     0.220 C
HETATM   21  O2  UNL     1       5.185  -2.152  18.830  1.00  0.00    -0.273 OA
HETATM   22  N2  UNL     1       6.711  -3.687  18.082  1.00  0.00    -0.352 N
HETATM   23  C16 UNL     1       7.567  -2.622  17.622  1.00  0.00     0.126 C
HETATM   24  C21 UNL     1       7.161  -5.046  17.882  1.00  0.00     0.126 C
HETATM   25  C17 UNL     1       8.888  -3.186  17.137  1.00  0.00     0.033 C
HETATM   26  C18 UNL     1       8.550  -4.125  15.987  1.00  0.00     0.078 C
HETATM   27  C20 UNL     1       7.803  -5.293  16.559  1.00  0.00     0.033 C
BRANCH  26  28
HETATM   28  C19 UNL     1       9.776  -4.562  15.285  1.00  0.00     0.235 C
HETATM   29  N3  UNL     1      10.694  -3.561  14.869  1.00  0.00    -0.062 NA
HETATM   30  O3  UNL     1      10.066  -5.758  15.030  1.00  0.00    -0.277 OA
ENDBRANCH  26  28
ENDBRANCH  19  20
ENDBRANCH   1  19
TORSDOF 8
ENDMDL