MODEL 5
REMARK VINA RESULT: -7.748301503      1.220      1.582
REMARK  6 active torsions:
REMARK  status: ('A' for Active; 'I' for Inactive)
REMARK    1  A    between atoms: C2_2  and  C3_3
REMARK    2  A    between atoms: C2_2  and  C11_20
REMARK    3  A    between atoms: C3_3  and  C4_4
REMARK    4  A    between atoms: C4_4  and  N1_5
REMARK       I    between atoms: N1_5  and  C5_7
REMARK    5  A    between atoms: C5_7  and  C6_9
REMARK       I    between atoms: C6_9  and  N2_11
REMARK    6  A    between atoms: N2_11  and  C7_13
ROOT
HETATM    1  N1  UNL     1       2.939  -7.768  15.524  1.00  0.00    -0.353 N
ATOM      2  H1  UNL     1       3.448  -8.124  16.334  1.00  0.00     0.162 HD
HETATM    3  C5  UNL     1       1.898  -6.855  15.753  1.00  0.00     0.309 C
HETATM    4  O1  UNL     1       1.223  -6.363  14.824  1.00  0.00    -0.262 OA
ENDROOT
BRANCH   1   5
HETATM    5  C4  UNL     1       3.343  -8.242  14.197  1.00  0.00     0.127 C
BRANCH   5   6
HETATM    6  C3  UNL     1       4.524  -7.511  13.685  1.00  0.00     0.053 C
BRANCH   6   7
HETATM    7  C2  UNL     1       5.828  -7.784  14.368  1.00  0.00    -0.079 C
HETATM    8  C1  UNL     1       5.943  -8.978  14.916  1.00  0.00     0.015 C
BRANCH   7   9
HETATM    9  C11 UNL     1       6.927  -6.751  14.469  1.00  0.00    -0.017 C
HETATM   10  C12 UNL     1       6.380  -5.584  13.611  1.00  0.00     0.020 C
HETATM   11  C13 UNL     1       8.201  -7.187  13.876  1.00  0.00     0.014 C
HETATM   12  C14 UNL     1       9.478  -6.770  14.544  1.00  0.00     0.002 C
HETATM   13  C15 UNL     1       9.394  -6.387  15.966  1.00  0.00     0.009 C
HETATM   14  C16 UNL     1       8.210  -5.504  16.279  1.00  0.00    -0.043 C
HETATM   15  C17 UNL     1       8.396  -4.120  15.813  1.00  0.00     0.015 C
HETATM   16  C18 UNL     1       8.172  -5.441  17.821  1.00  0.00     0.015 C
HETATM   17  C19 UNL     1       6.982  -6.243  15.881  1.00  0.00     0.001 C
HETATM   18  C20 UNL     1       5.714  -5.522  16.275  1.00  0.00     0.012 C
ENDBRANCH   7   9
ENDBRANCH   6   7
ENDBRANCH   5   6
ENDBRANCH   1   5
BRANCH   3  19
HETATM   19  C6  UNL     1       1.569  -6.447  17.128  1.00  0.00     0.309 C
HETATM   20  O2  UNL     1       2.454  -5.887  17.825  1.00  0.00    -0.262 OA
HETATM   21  N2  UNL     1       0.303  -6.660  17.690  1.00  0.00    -0.347 N
ATOM     22  H2  UNL     1      -0.402  -7.116  17.111  1.00  0.00     0.163 HD
BRANCH  21  23
HETATM   23  C7  UNL     1      -0.069  -6.286  19.015  1.00  0.00     0.099 C
HETATM   24  C8  UNL     1      -0.099  -4.799  19.222  1.00  0.00     0.041 C
HETATM   25  C9  UNL     1      -0.430  -4.613  20.687  1.00  0.00     0.142 C
HETATM   26  S1  UNL     1      -1.718  -5.846  20.901  1.00  0.00     0.146 S
HETATM   27  O3  UNL     1      -3.033  -5.166  20.927  1.00  0.00    -0.228 OA
HETATM   28  O4  UNL     1      -1.455  -6.704  22.099  1.00  0.00    -0.228 OA
HETATM   29  C10 UNL     1      -1.472  -6.782  19.383  1.00  0.00     0.165 C
ENDBRANCH  21  23
ENDBRANCH   3  19
TORSDOF 6
ENDMDL