MODEL 5
REMARK VINA RESULT: -6.415178874      0.827      1.799
REMARK  6 active torsions:
REMARK  status: ('A' for Active; 'I' for Inactive)
REMARK    1  A    between atoms: O1_2  and  C2_3
REMARK       I    between atoms: N1_6  and  C5_7
REMARK    2  A    between atoms: C5_7  and  C6_9
REMARK    3  A    between atoms: C6_9  and  N2_10
REMARK    4  A    between atoms: C6_9  and  C18_24
REMARK       I    between atoms: N2_10  and  C7_12
REMARK    5  A    between atoms: C7_12  and  C8_14
REMARK    6  A    between atoms: C21_27  and  C22_28
ROOT
HETATM    1  C6  UNL     1      -0.133  -6.633  16.831  1.00  0.00     0.180 C
ENDROOT
BRANCH   1   2
HETATM    2  C5  UNL     1      -0.811  -7.821  17.401  1.00  0.00     0.243 C
HETATM    3  N1  UNL     1      -1.989  -8.416  16.918  1.00  0.00    -0.333 N
HETATM    4  C4  UNL     1      -2.644  -9.554  17.527  1.00  0.00     0.129 C
HETATM    5  C21 UNL     1      -2.718  -8.030  15.740  1.00  0.00     0.217 C
HETATM    6  C3  UNL     1      -3.664 -10.081  16.577  1.00  0.00     0.054 C
HETATM    7  C2  UNL     1      -3.977  -8.885  15.706  1.00  0.00     0.155 C
HETATM    8  O2  UNL     1      -0.265  -8.355  18.434  1.00  0.00    -0.271 OA
BRANCH   7   9
HETATM    9  O1  UNL     1      -4.241  -9.371  14.429  1.00  0.00    -0.388 OA
HETATM   10  C1  UNL     1      -5.014 -10.506  14.485  1.00  0.00     0.202 C
ENDBRANCH   7   9
BRANCH   5  11
HETATM   11  C22 UNL     1      -1.981  -8.376  14.492  1.00  0.00     0.199 C
HETATM   12  O4  UNL     1      -2.088  -7.655  13.470  1.00  0.00    -0.646 OA
HETATM   13  O5  UNL     1      -1.186  -9.495  14.489  1.00  0.00    -0.646 OA
ENDBRANCH   5  11
ENDBRANCH   1   2
BRANCH   1  14
HETATM   14  N2  UNL     1       1.270  -6.956  16.512  1.00  0.00    -0.347 N
HETATM   15  C7  UNL     1       1.778  -6.867  15.193  1.00  0.00     0.227 C
HETATM   16  O3  UNL     1       0.971  -6.496  14.292  1.00  0.00    -0.273 OA
ATOM     17  H2  UNL     1       1.893  -7.253  17.264  1.00  0.00     0.163 HD
BRANCH  15  18
HETATM   18  C8  UNL     1       3.150  -7.170  14.805  1.00  0.00     0.042 C
HETATM   19  C9  UNL     1       3.840  -5.842  14.503  1.00  0.00     0.024 C
HETATM   20  C10 UNL     1       5.286  -6.045  14.159  1.00  0.00    -0.013 C
HETATM   21  C11 UNL     1       5.992  -6.638  15.355  1.00  0.00     0.009 C
HETATM   22  C15 UNL     1       5.374  -6.952  12.972  1.00  0.00     0.009 C
HETATM   23  C12 UNL     1       5.337  -7.962  15.671  1.00  0.00    -0.013 C
HETATM   24  C13 UNL     1       5.481  -8.897  14.497  1.00  0.00     0.009 C
HETATM   25  C17 UNL     1       3.884  -7.771  15.979  1.00  0.00     0.024 C
HETATM   26  C14 UNL     1       4.734  -8.290  13.332  1.00  0.00    -0.013 C
HETATM   27  C16 UNL     1       3.261  -8.118  13.641  1.00  0.00     0.024 C
ENDBRANCH  15  18
ENDBRANCH   1  14
BRANCH   1  28
HETATM   28  C18 UNL     1      -0.087  -5.525  17.860  1.00  0.00     0.009 C
HETATM   29  C19 UNL     1      -1.110  -5.597  18.929  1.00  0.00     0.012 C
HETATM   30  C20 UNL     1       1.289  -5.333  18.460  1.00  0.00     0.012 C
ENDBRANCH   1  28
TORSDOF 6
ENDMDL