MODEL 4
REMARK VINA RESULT: -7.794130187      3.322      8.501
REMARK  6 active torsions:
REMARK  status: ('A' for Active; 'I' for Inactive)
REMARK       I    between atoms: N1_3  and  C3_4
REMARK    1  A    between atoms: C3_4  and  C4_6
REMARK    2  A    between atoms: C4_6  and  C5_7
REMARK    3  A    between atoms: C4_6  and  N2_11
REMARK    4  A    between atoms: C5_7  and  C6_8
REMARK       I    between atoms: N2_11  and  C9_12
REMARK    5  A    between atoms: C9_12  and  C10_14
REMARK    6  A    between atoms: C10_14  and  N3_16
ROOT
HETATM    1  C1  UNL     1       3.691  -7.823  12.238  1.00  0.00     0.039 C
HETATM    2  C2  UNL     1       3.251  -7.619  13.489  1.00  0.00     0.014 C
HETATM    3  N1  UNL     1       2.016  -8.289  14.052  1.00  0.00    -0.319 N
HETATM    4  C3  UNL     1       1.398  -9.216  13.260  1.00  0.00     0.260 C
HETATM    5  O1  UNL     1       1.793  -9.731  12.239  1.00  0.00    -0.269 OA
HETATM    6  C13 UNL     1       1.799  -7.675  15.325  1.00  0.00     0.133 C
HETATM    7  C14 UNL     1       2.664  -6.354  15.286  1.00  0.00     0.036 C
HETATM    8  C15 UNL     1       3.879  -6.884  14.565  1.00  0.00     0.003 C
HETATM    9  C16 UNL     1       4.688  -5.719  13.976  1.00  0.00     0.017 C
HETATM   10  C17 UNL     1       6.102  -5.947  13.664  1.00  0.00     0.013 C
HETATM   11  C18 UNL     1       6.758  -6.535  14.915  1.00  0.00    -0.017 C
HETATM   12  C19 UNL     1       8.216  -6.818  14.625  1.00  0.00     0.038 C
HETATM   13  C20 UNL     1       8.802  -5.462  14.930  1.00  0.00     0.168 C
HETATM   14  O3  UNL     1       7.916  -4.715  15.554  1.00  0.00    -0.390 OA
HETATM   15  C21 UNL     1       6.839  -5.494  16.014  1.00  0.00     0.177 C
HETATM   16  C22 UNL     1       6.140  -7.795  15.285  1.00  0.00     0.013 C
HETATM   17  C23 UNL     1       4.654  -7.797  15.462  1.00  0.00     0.017 C
ENDROOT
BRANCH   4  18
HETATM   18  C4  UNL     1      -0.108  -9.777  13.629  1.00  0.00     0.259 C
BRANCH  18  19
HETATM   19  C5  UNL     1      -0.128 -11.078  12.784  1.00  0.00     0.053 C
BRANCH  19  20
HETATM   20  C6  UNL     1      -0.154 -12.355  13.417  1.00  0.00    -0.019 C
HETATM   21  C7  UNL     1      -0.464 -12.668  14.834  1.00  0.00     0.009 C
HETATM   22  C8  UNL     1       1.056 -13.177  12.904  1.00  0.00     0.009 C
ENDBRANCH  19  20
ENDBRANCH  18  19
BRANCH  18  23
HETATM   23  N2  UNL     1      -1.001  -8.953  13.712  1.00  0.00    -0.398 NA
HETATM   24  C9  UNL     1      -2.125  -7.923  13.804  1.00  0.00     0.318 C
HETATM   25  O2  UNL     1      -2.883  -7.578  13.081  1.00  0.00    -0.255 OA
BRANCH  24  26
HETATM   26  C10 UNL     1      -1.912  -7.581  15.289  1.00  0.00     0.287 C
HETATM   27  C11 UNL     1      -2.504  -8.591  16.273  1.00  0.00     0.051 C
BRANCH  26  28
HETATM   28  N3  UNL     1      -2.239  -6.252  15.687  1.00  0.00    -0.065 N
HETATM   29  C12 UNL     1      -1.182  -5.879  16.642  1.00  0.00     0.267 C
ATOM     30  H32 UNL     1      -2.345  -5.599  14.911  1.00  0.00     0.277 HD
ATOM     31  H31 UNL     1      -3.185  -6.148  16.054  1.00  0.00     0.277 HD
ENDBRANCH  26  28
ENDBRANCH  24  26
ENDBRANCH  18  23
ENDBRANCH   4  18
TORSDOF 6
ENDMDL