MODEL 2
REMARK VINA RESULT: -7.325198921      1.335      1.680
REMARK  7 active torsions:
REMARK  status: ('A' for Active; 'I' for Inactive)
REMARK    1  A    between atoms: C2_2  and  C4_4
REMARK    2  A    between atoms: C4_4  and  C5_5
REMARK    3  A    between atoms: C5_5  and  C6_6
REMARK       I    between atoms: C6_6  and  N1_8
REMARK    4  A    between atoms: C8_10  and  O2_11
REMARK    5  A    between atoms: C9_13  and  N2_14
REMARK    6  A    between atoms: N2_14  and  S1_16
REMARK    7  A    between atoms: S1_16  and  C10_19
ROOT
HETATM    1  C6  UNL     1       5.860  -5.674  14.771  1.00  0.00     0.228 C
HETATM    2  O1  UNL     1       5.473  -4.597  14.166  1.00  0.00    -0.273 OA
HETATM    3  N1  UNL     1       5.015  -6.775  14.574  1.00  0.00    -0.347 N
HETATM    4  C7  UNL     1       5.130  -8.096  15.083  1.00  0.00     0.159 C
HETATM    5  C8  UNL     1       4.212  -8.980  14.250  1.00  0.00     0.161 C
HETATM    6  C9  UNL     1       3.098  -8.033  13.860  1.00  0.00     0.141 C
HETATM    7  C14 UNL     1       3.798  -6.698  13.741  1.00  0.00     0.154 C
ENDROOT
BRANCH   1   8
HETATM    8  C5  UNL     1       7.096  -5.538  15.542  1.00  0.00     0.041 C
HETATM    9  C15 UNL     1       7.729  -4.190  15.196  1.00  0.00     0.020 C
HETATM   10  C16 UNL     1       8.819  -3.747  16.085  1.00  0.00     0.005 C
HETATM   11  C17 UNL     1       8.501  -3.839  17.555  1.00  0.00    -0.019 C
HETATM   12  C18 UNL     1       7.564  -2.697  17.909  1.00  0.00     0.010 C
HETATM   13  C19 UNL     1       7.843  -5.115  17.934  1.00  0.00     0.005 C
HETATM   14  C20 UNL     1       6.669  -5.361  17.018  1.00  0.00     0.020 C
BRANCH   8  15
HETATM   15  C4  UNL     1       8.041  -6.664  15.545  1.00  0.00     0.023 C
BRANCH  15  16
HETATM   16  C2  UNL     1       8.885  -6.972  14.384  1.00  0.00    -0.021 C
HETATM   17  C1  UNL     1      10.380  -6.876  14.597  1.00  0.00     0.009 C
HETATM   18  C3  UNL     1       8.515  -8.177  13.566  1.00  0.00     0.009 C
ENDBRANCH  15  16
ENDBRANCH   8  15
ENDBRANCH   1   8
BRANCH   5  19
HETATM   19  O2  UNL     1       4.817  -9.432  13.082  1.00  0.00    -0.392 OA
ATOM     20  H2  UNL     1       4.262 -10.024  12.587  1.00  0.00     0.210 HD
ENDBRANCH   5  19
BRANCH   6  21
HETATM   21  N2  UNL     1       2.106  -8.073  14.851  1.00  0.00    -0.310 N
ATOM     22  H2  UNL     1       2.311  -8.522  15.743  1.00  0.00     0.172 HD
BRANCH  21  23
HETATM   23  S1  UNL     1       0.598  -7.404  14.605  1.00  0.00     0.231 S
HETATM   24  O3  UNL     1       0.408  -7.084  13.111  1.00  0.00    -0.206 OA
HETATM   25  O4  UNL     1       0.567  -6.035  15.305  1.00  0.00    -0.206 OA
BRANCH  23  26
HETATM   26  C10 UNL     1      -0.813  -8.260  15.141  1.00  0.00     0.129 C
HETATM   27  C11 UNL     1      -2.107  -7.581  15.356  1.00  0.00     0.022 C
HETATM   28  C12 UNL     1      -2.685  -8.427  14.213  1.00  0.00     0.003 C
HETATM   29  C13 UNL     1      -1.413  -9.251  14.179  1.00  0.00     0.022 C
ENDBRANCH  23  26
ENDBRANCH  21  23
ENDBRANCH   6  21
TORSDOF 7
ENDMDL