MODEL 5
REMARK VINA RESULT: -8.213929354      1.548      2.077
REMARK  7 active torsions:
REMARK  status: ('A' for Active; 'I' for Inactive)
REMARK    1  A    between atoms: C2_2  and  C3_3
REMARK    2  A    between atoms: C2_2  and  C22_28
REMARK    3  A    between atoms: C3_3  and  C4_4
REMARK    4  A    between atoms: C4_4  and  C5_5
REMARK       I    between atoms: C5_5  and  N1_7
REMARK    5  A    between atoms: N1_7  and  C6_9
REMARK    6  A    between atoms: C10_13  and  C11_14
REMARK       I    between atoms: C11_14  and  N2_16
REMARK    7  A    between atoms: C16_21  and  C17_22
ROOT
HETATM    1  C6  UNL     1       3.929  -7.758  13.521  1.00  0.00     0.093 C
HETATM    2  C7  UNL     1       4.846  -6.720  12.932  1.00  0.00     0.010 C
HETATM    3  C8  UNL     1       4.696  -5.490  13.843  1.00  0.00     0.013 C
HETATM    4  C9  UNL     1       5.227  -6.044  15.133  1.00  0.00     0.010 C
HETATM    5  C10 UNL     1       4.276  -6.912  15.875  1.00  0.00     0.089 C
HETATM    6  C14 UNL     1       4.224  -8.098  14.946  1.00  0.00     0.023 C
HETATM    7  C15 UNL     1       5.730  -8.439  15.003  1.00  0.00     0.020 C
HETATM    8  C16 UNL     1       6.299  -7.051  14.699  1.00  0.00    -0.009 C
HETATM    9  C21 UNL     1       6.319  -7.007  13.179  1.00  0.00     0.019 C
ENDROOT
BRANCH   1  10
HETATM   10  N1  UNL     1       3.832  -8.937  12.731  1.00  0.00    -0.356 N
HETATM   11  C5  UNL     1       2.546  -9.421  12.240  1.00  0.00     0.217 C
HETATM   12  O1  UNL     1       1.552  -8.724  12.567  1.00  0.00    -0.274 OA
ATOM     13  H1  UNL     1       4.680  -9.456  12.503  1.00  0.00     0.162 HD
BRANCH  11  14
HETATM   14  C4  UNL     1       2.534 -10.644  11.434  1.00  0.00     0.103 C
BRANCH  14  15
HETATM   15  C3  UNL     1       1.287 -11.179  10.891  1.00  0.00     0.024 C
BRANCH  15  16
HETATM   16  C2  UNL     1       0.411 -12.037  11.711  1.00  0.00     0.083 C
HETATM   17  C1  UNL     1       1.202 -13.028  12.558  1.00  0.00     0.021 C
BRANCH  16  18
HETATM   18  C22 UNL     1      -0.682 -11.465  12.475  1.00  0.00     0.176 C
HETATM   19  O4  UNL     1      -0.518 -11.120  13.685  1.00  0.00    -0.648 OA
HETATM   20  O5  UNL     1      -1.932 -11.286  11.893  1.00  0.00    -0.648 OA
ENDBRANCH  16  18
ENDBRANCH  15  16
ENDBRANCH  14  15
ENDBRANCH  11  14
ENDBRANCH   1  10
BRANCH   5  21
HETATM   21  C11 UNL     1       3.030  -6.352  16.314  1.00  0.00     0.224 C
HETATM   22  O2  UNL     1       1.979  -6.543  15.677  1.00  0.00    -0.273 OA
HETATM   23  N2  UNL     1       2.960  -5.573  17.479  1.00  0.00    -0.360 N
HETATM   24  C12 UNL     1       4.064  -5.228  18.348  1.00  0.00     0.152 C
HETATM   25  C13 UNL     1       1.658  -5.036  17.894  1.00  0.00     0.152 C
ENDBRANCH   5  21
BRANCH   8  26
HETATM   26  C17 UNL     1       7.613  -6.819  15.329  1.00  0.00     0.130 C
HETATM   27  C18 UNL     1       7.693  -5.489  15.993  1.00  0.00     0.035 C
HETATM   28  C19 UNL     1       9.013  -4.897  15.485  1.00  0.00     0.029 C
HETATM   29  C20 UNL     1       9.684  -6.149  14.917  1.00  0.00     0.168 C
HETATM   30  O3  UNL     1       8.576  -6.773  14.320  1.00  0.00    -0.385 OA
ENDBRANCH   8  26
TORSDOF 7
ENDMDL