MODEL 1
REMARK VINA RESULT: -8.828347785      0.000      0.000
REMARK  6 active torsions:
REMARK  status: ('A' for Active; 'I' for Inactive)
REMARK    1  A    between atoms: C1_2  and  C2_3
REMARK       I    between atoms: C1_2  and  N4_24
REMARK    2  A    between atoms: C2_3  and  N1_4
REMARK    3  A    between atoms: C4_6  and  C5_7
REMARK       I    between atoms: C5_7  and  N2_9
REMARK    4  A    between atoms: N2_9  and  C6_11
REMARK    5  A    between atoms: C12_17  and  N3_18
REMARK    6  A    between atoms: N4_24  and  C18_26
ROOT
HETATM    1  N1  UNL     1       6.167  -7.933  13.630  1.00  0.00    -0.383 N
HETATM    2  C3  UNL     1       5.263  -8.451  12.677  1.00  0.00     0.136 C
HETATM    3  C4  UNL     1       4.000  -7.636  12.516  1.00  0.00     0.098 C
HETATM    4  C11 UNL     1       3.573  -7.038  13.869  1.00  0.00     0.053 C
HETATM    5  C12 UNL     1       4.118  -7.933  14.936  1.00  0.00     0.241 C
HETATM    6  C17 UNL     1       5.645  -7.704  14.930  1.00  0.00     0.158 C
ENDROOT
BRANCH   1   7
HETATM    7  C2  UNL     1       7.543  -8.050  13.432  1.00  0.00     0.160 C
BRANCH   7   8
HETATM    8  C1  UNL     1       8.378  -7.203  14.309  1.00  0.00     0.256 C
HETATM    9  O1  UNL     1       9.641  -7.341  14.195  1.00  0.00    -0.267 OA
HETATM   10  N4  UNL     1       7.896  -6.273  15.240  1.00  0.00    -0.352 N
ATOM     11  H4  UNL     1       6.887  -6.158  15.339  1.00  0.00     0.163 HD
BRANCH  10  12
HETATM   12  C18 UNL     1       8.769  -5.473  16.063  1.00  0.00     0.084 C
HETATM   13  C19 UNL     1       8.980  -4.113  15.504  1.00  0.00     0.025 C
HETATM   14  C20 UNL     1       9.041  -3.126  16.675  1.00  0.00     0.002 C
HETATM   15  C21 UNL     1       7.622  -3.091  17.252  1.00  0.00     0.000 C
HETATM   16  C22 UNL     1       7.301  -4.446  17.845  1.00  0.00     0.002 C
HETATM   17  C23 UNL     1       8.322  -5.483  17.509  1.00  0.00     0.025 C
ENDBRANCH  10  12
ENDBRANCH   7   8
ENDBRANCH   1   7
BRANCH   3  18
HETATM   18  C5  UNL     1       2.923  -8.582  12.129  1.00  0.00     0.223 C
HETATM   19  O2  UNL     1       1.726  -8.432  12.488  1.00  0.00    -0.273 OA
HETATM   20  N2  UNL     1       3.210  -9.720  11.314  1.00  0.00    -0.356 N
ATOM     21  H2  UNL     1       4.172  -9.873  11.011  1.00  0.00     0.162 HD
BRANCH  20  22
HETATM   22  C6  UNL     1       2.200 -10.661  10.903  1.00  0.00     0.084 C
HETATM   23  C7  UNL     1       2.201 -10.997   9.453  1.00  0.00     0.025 C
HETATM   24  C8  UNL     1       2.885 -12.344   9.316  1.00  0.00     0.002 C
HETATM   25  C9  UNL     1       3.121 -12.881  10.694  1.00  0.00     0.002 C
HETATM   26  C10 UNL     1       2.371 -11.989  11.627  1.00  0.00     0.025 C
ENDBRANCH  20  22
ENDBRANCH   3  18
BRANCH   5  27
HETATM   27  N3  UNL     1       3.670  -7.689  16.262  1.00  0.00     0.094 N
HETATM   28  C13 UNL     1       4.459  -6.763  17.006  1.00  0.00     0.273 C
HETATM   29  C14 UNL     1       3.693  -5.447  17.045  1.00  0.00     0.032 C
HETATM   30  C15 UNL     1       2.260  -5.964  17.124  1.00  0.00     0.032 C
HETATM   31  C16 UNL     1       2.324  -7.130  16.167  1.00  0.00     0.273 C
ENDBRANCH   5  27
TORSDOF 6
ENDMDL