MODEL 5
REMARK VINA RESULT: -5.840653810      2.547      5.543
REMARK  3 active torsions:
REMARK  status: ('A' for Active; 'I' for Inactive)
REMARK    1  A    between atoms: C2_2  and  C3_4
REMARK    2  A    between atoms: C3_4  and  N1_5
REMARK       I    between atoms: N1_5  and  C4_7
REMARK    3  A    between atoms: C4_7  and  C5_9
ROOT
HETATM    1  N1  UNL     1       5.200 140.231 350.801  1.00  0.00    -0.356 N
ATOM      2  H1  UNL     1       5.023 140.061 349.811  1.00  0.00     0.162 HD
HETATM    3  C4  UNL     1       5.143 141.559 351.277  1.00  0.00     0.222 C
HETATM    4  O1  UNL     1       5.355 141.785 352.484  1.00  0.00    -0.273 OA
ENDROOT
BRANCH   3   5
HETATM    5  C5  UNL     1       4.835 142.680 350.369  1.00  0.00     0.078 C
HETATM    6  C6  UNL     1       3.362 142.838 350.164  1.00  0.00     0.014 C
HETATM    7  C7  UNL     1       2.899 144.263 350.134  1.00  0.00     0.001 C
HETATM    8  C8  UNL     1       3.340 145.069 351.308  1.00  0.00     0.000 C
HETATM    9  C9  UNL     1       4.718 144.745 351.790  1.00  0.00     0.001 C
HETATM   10  C10 UNL     1       5.522 143.952 350.794  1.00  0.00     0.014 C
ENDBRANCH   3   5
BRANCH   1  11
HETATM   11  C3  UNL     1       5.500 139.098 351.658  1.00  0.00     0.168 C
BRANCH  11  12
HETATM   12  C2  UNL     1       4.698 137.904 351.279  1.00  0.00    -0.003 C
HETATM   13  C1  UNL     1       3.697 137.999 350.426  1.00  0.00     0.028 C
HETATM   14 BR1  UNL     1       5.107 136.201 352.026  1.00  0.00    -0.055 Br
ENDBRANCH  11  12
ENDBRANCH   1  11
TORSDOF 3
ENDMDL