MODEL 2
REMARK VINA RESULT: -7.036602144      2.931      4.568
REMARK  2 active torsions:
REMARK  status: ('A' for Active; 'I' for Inactive)
REMARK    1  A    between atoms: C10_11  and  C11_12
REMARK    2  A    between atoms: C11_12  and  C13_14
ROOT
HETATM    1  C1  UNL     1       3.488 138.147 350.483  1.00  0.00     0.014 C
HETATM    2  C2  UNL     1       3.559 139.592 350.851  1.00  0.00     0.026 C
HETATM    3  C3  UNL     1       3.329 140.472 349.643  1.00  0.00    -0.006 C
HETATM    4  C4  UNL     1       4.559 140.396 348.730  1.00  0.00     0.010 C
HETATM    5  C5  UNL     1       5.569 141.084 349.626  1.00  0.00    -0.001 C
HETATM    6  C6  UNL     1       6.006 139.952 350.578  1.00  0.00     0.049 C
HETATM    7  C7  UNL     1       4.845 139.915 351.521  1.00  0.00     0.111 C
HETATM    8  F1  UNL     1       5.047 139.129 352.618  1.00  0.00    -0.242 F
HETATM    9  C8  UNL     1       4.765 141.399 351.899  1.00  0.00     0.031 C
HETATM   10  C9  UNL     1       5.792 141.706 352.893  1.00  0.00     0.014 C
HETATM   11  C10 UNL     1       4.848 142.025 350.531  1.00  0.00    -0.019 C
HETATM   12  C14 UNL     1       3.390 141.931 350.047  1.00  0.00     0.016 C
ENDROOT
BRANCH  11  13
HETATM   13  C11 UNL     1       5.272 143.432 350.524  1.00  0.00     0.080 C
HETATM   14  C12 UNL     1       5.996 143.849 349.247  1.00  0.00     0.020 C
BRANCH  13  15
HETATM   15  C13 UNL     1       4.204 144.418 350.687  1.00  0.00     0.235 C
HETATM   16  N1  UNL     1       4.037 145.056 351.957  1.00  0.00    -0.062 NA
HETATM   17  O1  UNL     1       3.427 144.748 349.797  1.00  0.00    -0.276 OA
ENDBRANCH  13  15
ENDBRANCH  11  13
TORSDOF 2
ENDMDL