MODEL 1
REMARK VINA RESULT: -6.851428861      0.000      0.000
REMARK  4 active torsions:
REMARK  status: ('A' for Active; 'I' for Inactive)
REMARK    1  A    between atoms: C4_4  and  C5_5
REMARK    2  A    between atoms: C5_5  and  N1_6
REMARK    3  A    between atoms: C5_5  and  C11_13
REMARK    4  A    between atoms: N1_6  and  C6_8
ROOT
HETATM    1  C1  UNL     1       4.858 135.484 352.481  1.00  0.00     0.017 C
HETATM    2  C2  UNL     1       5.020 136.514 351.867  1.00  0.00    -0.090 C
HETATM    3  C3  UNL     1       5.218 137.707 351.132  1.00  0.00     0.062 C
HETATM    4  C4  UNL     1       4.625 138.816 351.483  1.00  0.00     0.012 C
ENDROOT
BRANCH   4   5
HETATM    5  C5  UNL     1       4.766 140.104 350.786  1.00  0.00     0.140 C
BRANCH   5   6
HETATM    6  N1  UNL     1       3.896 141.137 351.269  1.00  0.00    -0.405 N
ATOM      7  H1  UNL     1       2.998 140.913 351.700  1.00  0.00     0.154 HD
BRANCH   6   8
HETATM    8  C6  UNL     1       4.325 142.471 351.127  1.00  0.00     0.077 C
HETATM    9  C7  UNL     1       4.525 143.277 352.362  1.00  0.00     0.024 C
HETATM   10  C8  UNL     1       4.534 144.690 351.738  1.00  0.00     0.002 C
HETATM   11  C9  UNL     1       3.256 144.639 350.937  1.00  0.00     0.002 C
HETATM   12  C10 UNL     1       3.227 143.231 350.381  1.00  0.00     0.024 C
ENDBRANCH   6   8
ENDBRANCH   5   6
BRANCH   5  13
HETATM   13  C11 UNL     1       4.580 139.999 349.318  1.00  0.00     0.005 C
HETATM   14  C12 UNL     1       5.467 140.385 348.427  1.00  0.00     0.029 C
HETATM   15 BR1  UNL     1       2.946 139.258 348.688  1.00  0.00    -0.054 Br
ENDBRANCH   5  13
ENDBRANCH   4   5
TORSDOF 4
ENDMDL