MODEL 2
REMARK VINA RESULT: -7.472454479      1.168      2.150
REMARK  3 active torsions:
REMARK  status: ('A' for Active; 'I' for Inactive)
REMARK       I    between atoms: C1_2  and  N1_3
REMARK    1  A    between atoms: C1_2  and  C6_9
REMARK    2  A    between atoms: N1_3  and  C2_5
REMARK    3  A    between atoms: C2_5  and  C3_6
ROOT
HETATM    1  C6  UNL     1       4.399 138.736 351.277  1.00  0.00     0.044 C
HETATM    2  C7  UNL     1       3.750 138.258 350.003  1.00  0.00     0.024 C
HETATM    3  C8  UNL     1       3.491 139.445 349.088  1.00  0.00    -0.010 C
HETATM    4  C9  UNL     1       4.813 140.054 348.697  1.00  0.00     0.009 C
HETATM    5  C10 UNL     1       5.534 140.463 349.955  1.00  0.00    -0.010 C
HETATM    6  C11 UNL     1       4.702 141.503 350.692  1.00  0.00     0.048 C
HETATM    7  C12 UNL     1       3.358 140.942 351.046  1.00  0.00     0.105 C
HETATM    8  F1  UNL     1       2.637 141.895 351.709  1.00  0.00    -0.243 F
HETATM    9  C13 UNL     1       2.612 140.404 349.856  1.00  0.00     0.048 C
HETATM   10  C14 UNL     1       3.594 139.770 351.998  1.00  0.00     0.062 C
HETATM   11  C15 UNL     1       5.749 139.315 350.901  1.00  0.00     0.024 C
ENDROOT
BRANCH   1  12
HETATM   12  C1  UNL     1       4.564 137.551 352.168  1.00  0.00     0.226 C
HETATM   13  O1  UNL     1       4.224 137.596 353.381  1.00  0.00    -0.273 OA
HETATM   14  N1  UNL     1       5.108 136.369 351.636  1.00  0.00    -0.360 N
ATOM     15  H1  UNL     1       5.377 136.358 350.652  1.00  0.00     0.162 HD
BRANCH  14  16
HETATM   16  C2  UNL     1       5.303 135.177 352.412  1.00  0.00     0.127 C
BRANCH  16  17
HETATM   17  C3  UNL     1       6.435 134.306 351.942  1.00  0.00     0.003 A
HETATM   18  C4  UNL     1       6.049 132.833 351.855  1.00  0.00     0.007 A
HETATM   19  C5  UNL     1       7.037 133.295 352.848  1.00  0.00     0.007 A
ENDBRANCH  16  17
ENDBRANCH  14  16
ENDBRANCH   1  12
TORSDOF 3
ENDMDL