MODEL 3
REMARK VINA RESULT: -5.715854216      2.484      5.957
REMARK  3 active torsions:
REMARK  status: ('A' for Active; 'I' for Inactive)
REMARK    1  A    between atoms: N1_2  and  C2_5
REMARK    2  A    between atoms: C4_8  and  C5_9
REMARK    3  A    between atoms: C6_10  and  C7_11
ROOT
HETATM    1  C2  UNL     1       5.103 143.049 351.312  1.00  0.00     0.209 A
HETATM    2  C3  UNL     1       4.752 142.684 349.915  1.00  0.00     0.099 A
HETATM    3 BR1  UNL     1       6.081 141.721 348.889  1.00  0.00    -0.088 Br
HETATM    4  C4  UNL     1       4.072 142.007 351.058  1.00  0.00     0.056 A
ENDROOT
BRANCH   4   5
HETATM    5  C5  UNL     1       4.339 140.572 351.232  1.00  0.00    -0.022 C
HETATM    6  C6  UNL     1       5.139 140.042 352.140  1.00  0.00    -0.026 C
BRANCH   6   7
HETATM    7  C7  UNL     1       5.371 138.591 352.269  1.00  0.00     0.008 C
HETATM    8  C8  UNL     1       4.324 137.886 353.094  1.00  0.00     0.008 C
HETATM    9  C9  UNL     1       4.685 136.432 352.843  1.00  0.00     0.001 C
HETATM   10  C10 UNL     1       5.301 136.402 351.459  1.00  0.00     0.001 C
HETATM   11  C11 UNL     1       5.301 137.845 350.968  1.00  0.00     0.008 C
ENDBRANCH   6   7
ENDBRANCH   4   5
BRANCH   1  12
HETATM   12  N1  UNL     1       4.768 144.379 351.760  1.00  0.00    -0.073 N
HETATM   13  C1  UNL     1       3.681 144.890 350.933  1.00  0.00     0.267 C
ATOM     14  H12 UNL     1       5.576 145.002 351.773  1.00  0.00     0.277 HD
ATOM     15  H11 UNL     1       4.549 144.412 352.756  1.00  0.00     0.277 HD
ENDBRANCH   1  12
TORSDOF 3
ENDMDL