MODEL 1
REMARK VINA RESULT: -6.384314418      0.000      0.000
REMARK  4 active torsions:
REMARK  status: ('A' for Active; 'I' for Inactive)
REMARK    1  A    between atoms: C2_2  and  N1_3
REMARK    2  A    between atoms: N1_3  and  C3_4
REMARK       I    between atoms: N1_3  and  C5_6
REMARK       I    between atoms: C5_6  and  N2_8
REMARK    3  A    between atoms: N2_8  and  C6_10
REMARK    4  A    between atoms: C6_10  and  C7_11
ROOT
HETATM    1  N1  UNL     1       4.491 138.062 351.621  1.00  0.00    -0.335 N
HETATM    2  C5  UNL     1       3.869 139.038 350.791  1.00  0.00     0.318 C
HETATM    3  O1  UNL     1       3.255 138.653 349.752  1.00  0.00    -0.247 OA
HETATM    4  N2  UNL     1       3.916 140.425 351.092  1.00  0.00    -0.343 N
ATOM      5  H2  UNL     1       4.407 140.747 351.926  1.00  0.00     0.164 HD
ENDROOT
BRANCH   4   6
HETATM    6  C6  UNL     1       3.272 141.381 350.225  1.00  0.00     0.129 C
BRANCH   6   7
HETATM    7  C7  UNL     1       3.296 142.769 350.766  1.00  0.00     0.008 C
HETATM    8  C8  UNL     1       2.873 143.820 349.794  1.00  0.00     0.011 C
HETATM    9  C9  UNL     1       3.715 145.072 349.964  1.00  0.00    -0.014 C
HETATM   10  C10 UNL     1       5.121 144.817 349.417  1.00  0.00     0.005 C
HETATM   11  C14 UNL     1       3.914 145.397 351.448  1.00  0.00     0.005 C
HETATM   12  C11 UNL     1       5.527 143.447 349.955  1.00  0.00     0.005 C
HETATM   13  C12 UNL     1       4.727 143.080 351.189  1.00  0.00    -0.009 C
HETATM   14  C13 UNL     1       4.634 144.269 352.134  1.00  0.00     0.005 C
ENDBRANCH   6   7
ENDBRANCH   4   6
BRANCH   1  15
HETATM   15  C2  UNL     1       5.209 138.427 352.825  1.00  0.00     0.123 C
HETATM   16  C1  UNL     1       6.219 139.520 352.479  1.00  0.00     0.026 C
ENDBRANCH   1  15
BRANCH   1  17
HETATM   17  C3  UNL     1       4.418 136.658 351.269  1.00  0.00     0.123 C
HETATM   18  C4  UNL     1       4.826 135.820 352.470  1.00  0.00     0.026 C
ENDBRANCH   1  17
TORSDOF 4
ENDMDL