MODEL 3
REMARK VINA RESULT: -8.025024226      0.171      1.712
REMARK  3 active torsions:
REMARK  status: ('A' for Active; 'I' for Inactive)
REMARK       I    between atoms: C1_2  and  N1_3
REMARK    1  A    between atoms: C1_2  and  C13_16
REMARK    2  A    between atoms: N1_3  and  C2_5
REMARK    3  A    between atoms: C2_5  and  C3_6
ROOT
HETATM    1  C3  UNL     1       5.005 139.619 351.555  1.00  0.00    -0.007 C
HETATM    2  C4  UNL     1       3.456 139.525 351.428  1.00  0.00     0.019 C
HETATM    3  C5  UNL     1       3.010 140.210 350.197  1.00  0.00    -0.013 C
HETATM    4  C6  UNL     1       3.323 141.700 350.374  1.00  0.00     0.009 C
HETATM    5  C7  UNL     1       4.796 141.850 350.543  1.00  0.00    -0.013 C
HETATM    6  C8  UNL     1       5.491 141.381 349.311  1.00  0.00     0.009 C
HETATM    7  C9  UNL     1       5.166 139.928 349.121  1.00  0.00    -0.013 C
HETATM    8  C10 UNL     1       3.686 139.744 348.940  1.00  0.00     0.009 C
HETATM    9  C11 UNL     1       5.656 139.124 350.268  1.00  0.00     0.019 C
HETATM   10  C12 UNL     1       5.353 141.035 351.721  1.00  0.00     0.019 C
ENDROOT
BRANCH   1  11
HETATM   11  C2  UNL     1       5.322 138.631 352.610  1.00  0.00     0.073 C
BRANCH  11  12
HETATM   12  N1  UNL     1       5.530 137.277 352.348  1.00  0.00    -0.340 N
HETATM   13  C1  UNL     1       4.860 136.181 352.884  1.00  0.00     0.228 C
HETATM   14  O1  UNL     1       3.919 136.326 353.705  1.00  0.00    -0.273 OA
ATOM     15  H1  UNL     1       6.268 137.062 351.677  1.00  0.00     0.167 HD
BRANCH  13  16
HETATM   16  C13 UNL     1       5.218 134.760 352.520  1.00  0.00     0.115 A
HETATM   17  C14 UNL     1       6.609 134.306 352.949  1.00  0.00     0.055 A
HETATM   18  C15 UNL     1       6.222 134.495 351.476  1.00  0.00     0.184 A
HETATM   19  F1  UNL     1       6.837 135.483 350.778  1.00  0.00    -0.248 F
ENDBRANCH  13  16
ENDBRANCH  11  12
ENDBRANCH   1  11
TORSDOF 3
ENDMDL