MODEL 2
REMARK VINA RESULT: -7.050451752      1.618      2.100
REMARK  4 active torsions:
REMARK  status: ('A' for Active; 'I' for Inactive)
REMARK       I    between atoms: C1_2  and  N1_3
REMARK       I    between atoms: C1_2  and  N2_14
REMARK    1  A    between atoms: N1_3  and  C2_5
REMARK    2  A    between atoms: C2_5  and  C3_6
REMARK    3  A    between atoms: C3_6  and  C4_7
REMARK    4  A    between atoms: C4_7  and  C5_8
ROOT
HETATM    1  O1  UNL     1       5.091 132.207 351.478  1.00  0.00    -0.247 OA
HETATM    2  C1  UNL     1       6.068 132.546 352.208  1.00  0.00     0.322 C
HETATM    3  N1  UNL     1       6.146 133.916 352.706  1.00  0.00    -0.319 N
ATOM      4  H1  UNL     1       6.914 134.235 353.297  1.00  0.00     0.170 HD
HETATM    5  N2  UNL     1       7.038 131.585 352.508  1.00  0.00    -0.331 N
HETATM    6  C11 UNL     1       8.209 131.770 353.315  1.00  0.00     0.130 C
HETATM    7  C12 UNL     1       8.142 130.524 354.213  1.00  0.00     0.058 C
HETATM    8  C13 UNL     1       7.500 129.487 353.320  1.00  0.00     0.189 C
HETATM    9  F1  UNL     1       8.345 128.444 353.040  1.00  0.00    -0.248 F
HETATM   10  C14 UNL     1       7.063 130.221 352.071  1.00  0.00     0.164 C
ENDROOT
BRANCH   3  11
HETATM   11  C2  UNL     1       5.096 134.769 352.321  1.00  0.00     0.092 C
BRANCH  11  12
HETATM   12  C3  UNL     1       5.188 136.196 352.315  1.00  0.00     0.013 C
BRANCH  12  13
HETATM   13  C4  UNL     1       5.157 137.191 351.509  1.00  0.00    -0.021 C
BRANCH  13  14
HETATM   14  C5  UNL     1       4.493 138.479 351.661  1.00  0.00     0.008 C
HETATM   15  C6  UNL     1       5.659 139.517 351.731  1.00  0.00     0.008 C
HETATM   16  C7  UNL     1       5.010 140.860 351.501  1.00  0.00     0.001 C
HETATM   17  C8  UNL     1       4.866 141.020 350.000  1.00  0.00     0.000 C
HETATM   18  C9  UNL     1       4.492 139.665 349.434  1.00  0.00     0.001 C
HETATM   19  C10 UNL     1       3.685 138.872 350.433  1.00  0.00     0.008 C
ENDBRANCH  13  14
ENDBRANCH  12  13
ENDBRANCH  11  12
ENDBRANCH   3  11
TORSDOF 4
ENDMDL