MODEL 1
REMARK VINA RESULT: -8.211960604      0.000      0.000
REMARK  3 active torsions:
REMARK  status: ('A' for Active; 'I' for Inactive)
REMARK       I    between atoms: C1_2  and  N1_3
REMARK    1  A    between atoms: C1_2  and  C13_17
REMARK    2  A    between atoms: N1_3  and  C2_5
REMARK    3  A    between atoms: C2_5  and  C3_6
ROOT
HETATM    1  C3  UNL     1       4.856 139.589 351.497  1.00  0.00    -0.021 C
HETATM    2  C4  UNL     1       3.350 139.546 351.352  1.00  0.00     0.016 C
HETATM    3  C5  UNL     1       2.962 140.306 350.120  1.00  0.00    -0.010 C
HETATM    4  C6  UNL     1       3.669 139.842 348.877  1.00  0.00     0.009 C
HETATM    5  C7  UNL     1       5.166 139.907 349.077  1.00  0.00    -0.010 C
HETATM    6  C8  UNL     1       5.599 141.309 349.336  1.00  0.00     0.048 C
HETATM    7  C9  UNL     1       4.849 141.846 350.540  1.00  0.00     0.105 C
HETATM    8  F1  UNL     1       5.143 143.188 350.713  1.00  0.00    -0.243 F
HETATM    9  C10 UNL     1       3.347 141.759 350.341  1.00  0.00     0.048 C
HETATM   10  C11 UNL     1       5.247 141.028 351.740  1.00  0.00     0.054 C
HETATM   11  C12 UNL     1       5.556 139.064 350.270  1.00  0.00     0.016 C
ENDROOT
BRANCH   1  12
HETATM   12  C2  UNL     1       5.322 138.749 352.664  1.00  0.00     0.132 C
BRANCH  12  13
HETATM   13  N1  UNL     1       5.577 137.387 352.254  1.00  0.00    -0.360 N
HETATM   14  C1  UNL     1       4.900 136.275 352.795  1.00  0.00     0.221 C
HETATM   15  O1  UNL     1       4.033 136.469 353.675  1.00  0.00    -0.273 OA
ATOM     16  H1  UNL     1       6.284 137.221 351.537  1.00  0.00     0.162 HD
BRANCH  14  17
HETATM   17  C13 UNL     1       5.223 134.914 352.318  1.00  0.00     0.078 A
HETATM   18  C14 UNL     1       6.502 134.293 352.966  1.00  0.00     0.015 A
HETATM   19  C15 UNL     1       6.453 134.666 351.523  1.00  0.00     0.015 A
ENDBRANCH  14  17
ENDBRANCH  12  13
ENDBRANCH   1  12
TORSDOF 3
ENDMDL