MODEL 1
REMARK VINA RESULT: -6.524668431      0.000      0.000
REMARK  3 active torsions:
REMARK  status: ('A' for Active; 'I' for Inactive)
REMARK    1  A    between atoms: C1_2  and  C2_3
REMARK       I    between atoms: C1_2  and  N2_12
REMARK    2  A    between atoms: C2_3  and  N1_4
REMARK    3  A    between atoms: N1_4  and  C3_6
ROOT
HETATM    1  O1  UNL     1       4.928 140.393 348.656  1.00  0.00    -0.272 OA
HETATM    2  C1  UNL     1       4.347 140.684 349.718  1.00  0.00     0.237 C
HETATM    3  N2  UNL     1       4.551 141.982 350.264  1.00  0.00    -0.351 N
HETATM    4  C9  UNL     1       5.431 142.877 349.535  1.00  0.00     0.128 C
HETATM    5  C10 UNL     1       5.684 144.148 350.270  1.00  0.00     0.057 C
HETATM    6  C11 UNL     1       4.341 144.659 350.770  1.00  0.00     0.173 C
HETATM    7  F1  UNL     1       3.412 144.513 349.768  1.00  0.00    -0.249 F
HETATM    8  C12 UNL     1       3.921 143.734 351.897  1.00  0.00     0.057 C
HETATM    9  C13 UNL     1       3.885 142.308 351.492  1.00  0.00     0.128 C
ENDROOT
BRANCH   2  10
HETATM   10  C2  UNL     1       3.456 139.741 350.435  1.00  0.00     0.217 C
BRANCH  10  11
HETATM   11  N1  UNL     1       3.970 138.423 350.364  1.00  0.00    -0.409 N
ATOM     12  H1  UNL     1       3.606 137.747 349.693  1.00  0.00     0.154 HD
BRANCH  11  13
HETATM   13  C3  UNL     1       5.026 138.078 351.280  1.00  0.00     0.077 C
HETATM   14  C4  UNL     1       4.692 138.376 352.698  1.00  0.00     0.024 C
HETATM   15  C5  UNL     1       4.201 137.230 353.519  1.00  0.00     0.002 C
HETATM   16  C6  UNL     1       4.285 135.888 352.861  1.00  0.00     0.000 C
HETATM   17  C7  UNL     1       5.662 135.826 352.189  1.00  0.00     0.002 C
HETATM   18  C8  UNL     1       5.522 136.702 350.970  1.00  0.00     0.024 C
ENDBRANCH  11  13
ENDBRANCH  10  11
ENDBRANCH   2  10
TORSDOF 3
ENDMDL