MODEL 3
REMARK VINA RESULT: -5.268947771      2.494      5.259
REMARK  11 active torsions:
REMARK  status: ('A' for Active; 'I' for Inactive)
REMARK    1  A    between atoms: C2_2  and  N1_3
REMARK    2  A    between atoms: C2_2  and  C7_15
REMARK    3  A    between atoms: N1_3  and  C3_6
REMARK    4  A    between atoms: C3_6  and  C4_7
REMARK    5  A    between atoms: C4_7  and  O1_8
REMARK    6  A    between atoms: O1_8  and  C5_9
REMARK    7  A    between atoms: C5_9  and  C6_10
REMARK    8  A    between atoms: C6_10  and  N2_11
REMARK    9  A    between atoms: C7_15  and  O2_16
REMARK   10  A    between atoms: C7_15  and  C9_20
REMARK   11  A    between atoms: O2_16  and  C8_17
ROOT
HETATM    1  N1  UNL     1     -15.258 -24.589  23.910  1.00  0.00    -0.066 N
ATOM      2  H11 UNL     1     -15.613 -23.917  24.590  1.00  0.00     0.277 HD
ATOM      3  H12 UNL     1     -14.257 -24.459  24.050  1.00  0.00     0.277 HD
ENDROOT
BRANCH   1   4
HETATM    4  C2  UNL     1     -15.639 -24.214  22.577  1.00  0.00     0.220 C
HETATM    5  C1  UNL     1     -17.126 -24.344  22.353  1.00  0.00     0.043 C
BRANCH   4   6
HETATM    6  C7  UNL     1     -14.908 -25.102  21.594  1.00  0.00     0.252 C
BRANCH   6   7
HETATM    7  O2  UNL     1     -13.668 -24.475  21.206  1.00  0.00    -0.290 OA
BRANCH   7   8
HETATM    8  C8  UNL     1     -12.524 -24.580  21.947  1.00  0.00     0.373 C
HETATM    9  N3  UNL     1     -11.499 -23.619  21.745  1.00  0.00    -0.032 NA
HETATM   10  O3  UNL     1     -12.426 -25.520  22.776  1.00  0.00    -0.242 OA
ENDBRANCH   7   8
ENDBRANCH   6   7
BRANCH   6  11
HETATM   11  C9  UNL     1     -15.688 -25.377  20.364  1.00  0.00     0.262 C
HETATM   12  N4  UNL     1     -16.546 -26.493  20.203  1.00  0.00    -0.060 NA
HETATM   13  O4  UNL     1     -15.582 -24.568  19.396  1.00  0.00    -0.274 OA
ENDBRANCH   6  11
ENDBRANCH   4   6
ENDBRANCH   1   4
BRANCH   1  14
HETATM   14  C3  UNL     1     -15.656 -25.935  24.263  1.00  0.00     0.259 C
BRANCH  14  15
HETATM   15  C4  UNL     1     -14.746 -26.579  25.249  1.00  0.00     0.195 C
BRANCH  15  16
HETATM   16  O1  UNL     1     -15.184 -27.860  25.529  1.00  0.00    -0.388 OA
BRANCH  16  17
HETATM   17  C5  UNL     1     -16.539 -28.053  25.475  1.00  0.00     0.195 C
BRANCH  17  18
HETATM   18  C6  UNL     1     -16.797 -29.387  24.754  1.00  0.00     0.255 C
BRANCH  18  19
HETATM   19  N2  UNL     1     -15.965 -29.505  23.578  1.00  0.00    -0.077 N
ATOM     20  H23 UNL     1     -16.053 -28.690  22.970  1.00  0.00     0.274 HD
ATOM     21  H22 UNL     1     -14.975 -29.422  23.807  1.00  0.00     0.274 HD
ATOM     22  H21 UNL     1     -16.165 -30.371  23.077  1.00  0.00     0.274 HD
ENDBRANCH  18  19
ENDBRANCH  17  18
ENDBRANCH  16  17
ENDBRANCH  15  16
ENDBRANCH  14  15
ENDBRANCH   1  14
TORSDOF 11
ENDMDL