MODEL 5
REMARK VINA RESULT: -6.387380422      3.034      5.911
REMARK  12 active torsions:
REMARK  status: ('A' for Active; 'I' for Inactive)
REMARK    1  A    between atoms: N1_1  and  C1_5
REMARK    2  A    between atoms: C1_5  and  C2_6
REMARK       I    between atoms: C2_6  and  N2_8
REMARK    3  A    between atoms: N2_8  and  C3_10
REMARK    4  A    between atoms: C3_10  and  O2_11
REMARK    5  A    between atoms: C3_10  and  C4_13
REMARK    6  A    between atoms: C4_13  and  C5_14
REMARK    7  A    between atoms: C5_14  and  N3_15
REMARK    8  A    between atoms: C5_14  and  C6_19
REMARK       I    between atoms: C6_19  and  N4_21
REMARK    9  A    between atoms: N4_21  and  C7_23
REMARK   10  A    between atoms: C7_23  and  C8_24
REMARK   11  A    between atoms: C8_24  and  C9_25
REMARK   12  A    between atoms: C9_25  and  O4_26
ROOT
HETATM    1  C5  UNL     1     -15.113 -24.549  22.901  1.00  0.00     0.282 C
ENDROOT
BRANCH   1   2
HETATM    2  C4  UNL     1     -16.272 -24.400  21.869  1.00  0.00     0.126 C
BRANCH   2   3
HETATM    3  C3  UNL     1     -16.057 -25.370  20.813  1.00  0.00     0.120 C
BRANCH   3   4
HETATM    4  N2  UNL     1     -15.587 -25.069  19.524  1.00  0.00    -0.310 N
HETATM    5  C2  UNL     1     -15.773 -25.803  18.368  1.00  0.00     0.248 C
HETATM    6  O1  UNL     1     -15.276 -25.308  17.284  1.00  0.00    -0.271 OA
ATOM      7  H2  UNL     1     -15.047 -24.209  19.430  1.00  0.00     0.170 HD
BRANCH   5   8
HETATM    8  C1  UNL     1     -16.477 -27.078  18.272  1.00  0.00     0.332 C
BRANCH   8   9
HETATM    9  N1  UNL     1     -16.904 -27.288  16.873  1.00  0.00    -0.071 N
ATOM     10  H13 UNL     1     -16.745 -26.465  16.290  1.00  0.00     0.274 HD
ATOM     11  H12 UNL     1     -16.296 -27.936  16.373  1.00  0.00     0.274 HD
ATOM     12  H11 UNL     1     -17.879 -27.586  16.865  1.00  0.00     0.274 HD
ENDBRANCH   8   9
ENDBRANCH   5   8
ENDBRANCH   3   4
BRANCH   3  13
HETATM   13  O2  UNL     1     -16.317 -26.631  21.072  1.00  0.00    -0.349 OA
ATOM     14  H2  UNL     1     -17.154 -26.968  20.775  1.00  0.00     0.219 HD
ENDBRANCH   3  13
ENDBRANCH   2   3
ENDBRANCH   1   2
BRANCH   1  15
HETATM   15  N3  UNL     1     -13.974 -25.020  22.217  1.00  0.00    -0.066 N
ATOM     16  H33 UNL     1     -14.046 -26.006  21.966  1.00  0.00     0.275 HD
ATOM     17  H32 UNL     1     -13.898 -24.643  21.273  1.00  0.00     0.275 HD
ATOM     18  H31 UNL     1     -13.154 -24.819  22.790  1.00  0.00     0.275 HD
ENDBRANCH   1  15
BRANCH   1  19
HETATM   19  C6  UNL     1     -15.642 -25.345  24.012  1.00  0.00     0.248 C
HETATM   20  O3  UNL     1     -16.753 -24.931  24.499  1.00  0.00    -0.271 OA
HETATM   21  N4  UNL     1     -15.032 -26.483  24.552  1.00  0.00    -0.359 N
ATOM     22  H4  UNL     1     -14.146 -26.783  24.146  1.00  0.00     0.162 HD
BRANCH  21  23
HETATM   23  C7  UNL     1     -15.572 -27.268  25.654  1.00  0.00     0.125 C
BRANCH  23  24
HETATM   24  C8  UNL     1     -16.844 -27.928  25.245  1.00  0.00     0.046 C
BRANCH  24  25
HETATM   25  C9  UNL     1     -16.478 -29.373  24.873  1.00  0.00     0.165 C
BRANCH  25  26
HETATM   26  O4  UNL     1     -15.703 -29.340  23.715  1.00  0.00    -0.401 OA
ATOM     27  H4  UNL     1     -16.066 -29.964  23.097  1.00  0.00     0.209 HD
ENDBRANCH  25  26
ENDBRANCH  24  25
ENDBRANCH  23  24
ENDBRANCH  21  23
ENDBRANCH   1  19
TORSDOF 12
ENDMDL