MODEL 4
REMARK VINA RESULT: -6.368316115      1.650      2.144
REMARK  10 active torsions:
REMARK  status: ('A' for Active; 'I' for Inactive)
REMARK    1  A    between atoms: C1_2  and  O2_4
REMARK    2  A    between atoms: O2_4  and  C2_5
REMARK    3  A    between atoms: C2_5  and  C3_6
REMARK    4  A    between atoms: C3_6  and  C4_7
REMARK    5  A    between atoms: C4_7  and  N3_12
REMARK    6  A    between atoms: C5_8  and  C6_9
REMARK    7  A    between atoms: N3_12  and  C7_14
REMARK    8  A    between atoms: C7_14  and  C8_15
REMARK    9  A    between atoms: C8_15  and  C9_17
REMARK   10  A    between atoms: C9_17  and  N4_18
ROOT
HETATM    1  C4  UNL     1     -14.531 -24.866  22.101  1.00  0.00     0.012 C
HETATM    2  C5  UNL     1     -13.390 -24.671  21.502  1.00  0.00     0.095 C
ENDROOT
BRANCH   1   3
HETATM    3  C3  UNL     1     -14.773 -25.105  23.536  1.00  0.00     0.083 C
BRANCH   3   4
HETATM    4  C2  UNL     1     -16.063 -25.869  23.769  1.00  0.00     0.186 C
BRANCH   4   5
HETATM    5  O2  UNL     1     -17.140 -25.052  24.136  1.00  0.00    -0.306 OA
BRANCH   5   6
HETATM    6  C1  UNL     1     -17.677 -24.012  23.413  1.00  0.00     0.372 C
HETATM    7  N1  UNL     1     -17.077 -22.698  23.416  1.00  0.00    -0.032 NA
HETATM    8  O1  UNL     1     -18.711 -24.232  22.740  1.00  0.00    -0.242 OA
ENDBRANCH   5   6
ENDBRANCH   4   5
ENDBRANCH   3   4
ENDBRANCH   1   3
BRANCH   1   9
HETATM    9  N3  UNL     1     -15.724 -24.844  21.260  1.00  0.00    -0.386 N
ATOM     10  H3  UNL     1     -16.647 -24.909  21.689  1.00  0.00     0.159 HD
BRANCH   9  11
HETATM   11  C7  UNL     1     -15.609 -24.733  19.830  1.00  0.00     0.199 C
BRANCH  11  12
HETATM   12  C8  UNL     1     -15.996 -25.995  19.162  1.00  0.00     0.169 C
HETATM   13  O4  UNL     1     -16.533 -26.865  19.813  1.00  0.00    -0.294 OA
BRANCH  12  14
HETATM   14  C9  UNL     1     -15.749 -26.233  17.722  1.00  0.00     0.309 C
BRANCH  14  15
HETATM   15  N4  UNL     1     -16.686 -27.167  17.181  1.00  0.00    -0.073 N
ATOM     16  H43 UNL     1     -17.071 -27.773  17.905  1.00  0.00     0.274 HD
ATOM     17  H42 UNL     1     -17.547 -26.706  16.887  1.00  0.00     0.274 HD
ATOM     18  H41 UNL     1     -16.274 -27.708  16.420  1.00  0.00     0.274 HD
ENDBRANCH  14  15
ENDBRANCH  12  14
ENDBRANCH  11  12
ENDBRANCH   9  11
ENDBRANCH   1   9
BRANCH   2  19
HETATM   19  C6  UNL     1     -12.066 -24.640  22.076  1.00  0.00     0.256 C
HETATM   20  N2  UNL     1     -11.191 -23.518  21.813  1.00  0.00    -0.058 NA
HETATM   21  O3  UNL     1     -11.573 -25.515  22.807  1.00  0.00    -0.272 OA
ENDBRANCH   2  19
TORSDOF 10
ENDMDL