MODEL 3
REMARK VINA RESULT: -5.919919140      1.220      1.414
REMARK  10 active torsions:
REMARK  status: ('A' for Active; 'I' for Inactive)
REMARK    1  A    between atoms: C1_2  and  C2_4
REMARK    2  A    between atoms: C2_4  and  O2_5
REMARK    3  A    between atoms: O2_5  and  C3_6
REMARK    4  A    between atoms: C3_6  and  C4_7
REMARK    5  A    between atoms: C4_7  and  O3_8
REMARK    6  A    between atoms: O3_8  and  C5_9
REMARK    7  A    between atoms: C5_9  and  C6_10
REMARK    8  A    between atoms: C5_9  and  C7_13
REMARK    9  A    between atoms: C8_15  and  C9_16
REMARK   10  A    between atoms: C9_16  and  N4_17
ROOT
HETATM    1  C5  UNL     1     -16.618 -25.868  23.225  1.00  0.00     0.257 C
ENDROOT
BRANCH   1   2
HETATM    2  O3  UNL     1     -15.816 -26.144  22.145  1.00  0.00    -0.369 OA
BRANCH   2   3
HETATM    3  C4  UNL     1     -15.973 -25.346  21.047  1.00  0.00     0.195 C
BRANCH   3   4
HETATM    4  C3  UNL     1     -14.689 -24.765  20.493  1.00  0.00     0.194 C
BRANCH   4   5
HETATM    5  O2  UNL     1     -13.643 -24.840  21.370  1.00  0.00    -0.380 OA
BRANCH   5   6
HETATM    6  C2  UNL     1     -12.407 -24.494  20.918  1.00  0.00     0.267 C
BRANCH   6   7
HETATM    7  C1  UNL     1     -11.424 -24.133  21.938  1.00  0.00     0.254 C
HETATM    8  N1  UNL     1     -10.527 -23.023  21.728  1.00  0.00    -0.060 NA
HETATM    9  O1  UNL     1     -11.292 -24.731  23.015  1.00  0.00    -0.275 OA
ENDBRANCH   6   7
ENDBRANCH   5   6
ENDBRANCH   4   5
ENDBRANCH   3   4
ENDBRANCH   2   3
ENDBRANCH   1   2
BRANCH   1  10
HETATM   10  C6  UNL     1     -16.790 -24.409  23.394  1.00  0.00     0.265 C
HETATM   11  N2  UNL     1     -18.078 -23.815  23.256  1.00  0.00    -0.059 NA
HETATM   12  O4  UNL     1     -15.875 -23.636  23.654  1.00  0.00    -0.274 OA
ENDBRANCH   1  10
BRANCH   1  13
HETATM   13  C7  UNL     1     -15.878 -26.391  24.433  1.00  0.00     0.059 C
HETATM   14  N3  UNL     1     -14.469 -26.231  24.455  1.00  0.00    -0.104 NA
HETATM   15  C8  UNL     1     -16.467 -26.967  25.455  1.00  0.00     0.025 C
BRANCH  15  16
HETATM   16  C9  UNL     1     -15.643 -27.448  26.594  1.00  0.00     0.258 C
BRANCH  16  17
HETATM   17  N4  UNL     1     -15.204 -26.336  27.418  1.00  0.00    -0.076 N
ATOM     18  H43 UNL     1     -14.567 -25.721  26.912  1.00  0.00     0.274 HD
ATOM     19  H42 UNL     1     -15.958 -25.671  27.588  1.00  0.00     0.274 HD
ATOM     20  H41 UNL     1     -14.793 -26.671  28.288  1.00  0.00     0.274 HD
ENDBRANCH  16  17
ENDBRANCH  15  16
ENDBRANCH   1  13
TORSDOF 10
ENDMDL