MODEL 1
REMARK VINA RESULT: -6.352025026      0.000      0.000
REMARK  11 active torsions:
REMARK  status: ('A' for Active; 'I' for Inactive)
REMARK    1  A    between atoms: C1_2  and  C2_4
REMARK    2  A    between atoms: C3_5  and  N2_6
REMARK    3  A    between atoms: C3_5  and  C8_15
REMARK    4  A    between atoms: C4_8  and  C5_10
REMARK    5  A    between atoms: C5_10  and  C6_11
REMARK    6  A    between atoms: C6_11  and  C7_12
REMARK    7  A    between atoms: C7_12  and  O2_13
REMARK    8  A    between atoms: C8_15  and  O3_16
REMARK    9  A    between atoms: C8_15  and  C9_18
REMARK   10  A    between atoms: C9_18  and  O4_19
REMARK   11  A    between atoms: O4_19  and  N4_20
ROOT
HETATM    1  C2  UNL     1     -15.866 -24.050  23.202  1.00  0.00     0.098 C
HETATM    2  C3  UNL     1     -15.295 -25.146  23.562  1.00  0.00     0.046 C
ENDROOT
BRANCH   2   3
HETATM    3  N2  UNL     1     -13.874 -25.274  23.317  1.00  0.00    -0.349 N
HETATM    4  C4  UNL     1     -13.352 -25.113  22.172  1.00  0.00     0.093 C
HETATM    5  N3  UNL     1     -14.165 -24.791  21.052  1.00  0.00    -0.088 NA
ATOM      6  H2  UNL     1     -13.264 -25.505  24.102  1.00  0.00     0.166 HD
BRANCH   4   7
HETATM    7  C5  UNL     1     -11.892 -25.263  22.010  1.00  0.00     0.075 C
BRANCH   7   8
HETATM    8  C6  UNL     1     -11.330 -24.347  20.950  1.00  0.00     0.033 C
BRANCH   8   9
HETATM    9  C7  UNL     1     -10.532 -23.260  21.656  1.00  0.00     0.164 C
BRANCH   9  10
HETATM   10  O2  UNL     1      -9.244 -23.161  21.117  1.00  0.00    -0.401 OA
ATOM     11  H2  UNL     1      -8.635 -22.818  21.761  1.00  0.00     0.209 HD
ENDBRANCH   9  10
ENDBRANCH   8   9
ENDBRANCH   7   8
ENDBRANCH   4   7
ENDBRANCH   2   3
BRANCH   2  12
HETATM   12  C8  UNL     1     -15.926 -26.285  24.193  1.00  0.00     0.194 C
BRANCH  12  13
HETATM   13  O3  UNL     1     -16.087 -27.287  23.182  1.00  0.00    -0.387 OA
ATOM     14  H3  UNL     1     -16.648 -27.961  23.547  1.00  0.00     0.210 HD
ENDBRANCH  12  13
BRANCH  12  15
HETATM   15  C9  UNL     1     -15.003 -26.967  25.208  1.00  0.00     0.238 C
BRANCH  15  16
HETATM   16  O4  UNL     1     -14.804 -26.149  26.316  1.00  0.00    -0.284 OA
BRANCH  16  17
HETATM   17  N4  UNL     1     -15.939 -26.086  27.037  1.00  0.00    -0.311 N
ATOM     18  H42 UNL     1     -16.841 -25.784  26.669  1.00  0.00     0.184 HD
ATOM     19  H41 UNL     1     -15.751 -26.384  27.995  1.00  0.00     0.184 HD
ENDBRANCH  16  17
ENDBRANCH  15  16
ENDBRANCH  12  15
ENDBRANCH   2  12
BRANCH   1  20
HETATM   20  C1  UNL     1     -17.246 -23.648  23.317  1.00  0.00     0.256 C
HETATM   21  N1  UNL     1     -18.308 -24.327  22.613  1.00  0.00    -0.058 NA
HETATM   22  O1  UNL     1     -17.615 -22.696  24.023  1.00  0.00    -0.272 OA
ENDBRANCH   1  20
TORSDOF 11
ENDMDL