MODEL 3
REMARK VINA RESULT: -5.215413876      1.752      2.293
REMARK  10 active torsions:
REMARK  status: ('A' for Active; 'I' for Inactive)
REMARK    1  A    between atoms: C2_2  and  C3_3
REMARK    2  A    between atoms: C2_2  and  O1_8
REMARK    3  A    between atoms: C2_2  and  C9_19
REMARK    4  A    between atoms: C3_3  and  N1_4
REMARK    5  A    between atoms: O1_8  and  C4_9
REMARK    6  A    between atoms: C4_9  and  C5_10
REMARK    7  A    between atoms: C5_10  and  O2_11
REMARK    8  A    between atoms: O2_11  and  C6_12
REMARK    9  A    between atoms: C6_12  and  C7_13
REMARK   10  A    between atoms: C7_13  and  N2_14
REMARK       I    between atoms: N2_14  and  C8_16
ROOT
HETATM    1  O1  UNL     1     -16.952 -26.454  24.526  1.00  0.00    -0.367 OA
ENDROOT
BRANCH   1   2
HETATM    2  C2  UNL     1     -16.413 -27.353  25.333  1.00  0.00     0.158 C
HETATM    3  C1  UNL     1     -17.047 -27.536  26.702  1.00  0.00     0.058 C
BRANCH   2   4
HETATM    4  C3  UNL     1     -14.977 -26.864  25.642  1.00  0.00     0.276 C
BRANCH   4   5
HETATM    5  N1  UNL     1     -14.896 -26.281  26.946  1.00  0.00    -0.076 N
ATOM      6  H13 UNL     1     -15.108 -26.962  27.674  1.00  0.00     0.274 HD
ATOM      7  H12 UNL     1     -13.931 -26.071  27.203  1.00  0.00     0.274 HD
ATOM      8  H11 UNL     1     -15.491 -25.456  27.021  1.00  0.00     0.274 HD
ENDBRANCH   4   5
ENDBRANCH   2   4
BRANCH   2   9
HETATM    9  C9  UNL     1     -16.212 -28.722  24.788  1.00  0.00     0.267 C
HETATM   10  N4  UNL     1     -16.540 -29.812  25.641  1.00  0.00    -0.059 NA
HETATM   11  O4  UNL     1     -15.795 -28.984  23.678  1.00  0.00    -0.273 OA
ENDBRANCH   2   9
ENDBRANCH   1   2
BRANCH   1  12
HETATM   12  C4  UNL     1     -16.418 -25.308  24.132  1.00  0.00     0.195 C
BRANCH  12  13
HETATM   13  C5  UNL     1     -17.228 -24.370  23.287  1.00  0.00     0.193 C
BRANCH  13  14
HETATM   14  O2  UNL     1     -16.382 -24.020  22.182  1.00  0.00    -0.387 OA
BRANCH  14  15
HETATM   15  C6  UNL     1     -15.191 -24.667  22.262  1.00  0.00     0.187 C
BRANCH  15  16
HETATM   16  C7  UNL     1     -14.381 -24.908  21.052  1.00  0.00     0.150 C
BRANCH  16  17
HETATM   17  N2  UNL     1     -13.057 -24.419  21.011  1.00  0.00    -0.343 N
HETATM   18  C8  UNL     1     -11.961 -24.712  21.799  1.00  0.00     0.328 C
HETATM   19  N3  UNL     1     -10.715 -24.012  21.475  1.00  0.00    -0.040 NA
HETATM   20  O3  UNL     1     -11.912 -25.499  22.749  1.00  0.00    -0.251 OA
ATOM     21  H2  UNL     1     -12.880 -23.733  20.277  1.00  0.00     0.163 HD
ENDBRANCH  16  17
ENDBRANCH  15  16
ENDBRANCH  14  15
ENDBRANCH  13  14
ENDBRANCH  12  13
ENDBRANCH   1  12
TORSDOF 10
ENDMDL