MODEL 5
REMARK VINA RESULT: -5.517007934      2.483      3.009
REMARK  11 active torsions:
REMARK  status: ('A' for Active; 'I' for Inactive)
REMARK    1  A    between atoms: O1_2  and  C2_3
REMARK    2  A    between atoms: C2_3  and  C3_4
REMARK    3  A    between atoms: C3_4  and  N1_5
REMARK    4  A    between atoms: N1_5  and  C4_8
REMARK    5  A    between atoms: C4_8  and  C5_9
REMARK       I    between atoms: C5_9  and  N2_11
REMARK    6  A    between atoms: N2_11  and  C6_13
REMARK    7  A    between atoms: C6_13  and  C7_14
REMARK    8  A    between atoms: C7_14  and  O3_15
REMARK    9  A    between atoms: C7_14  and  C8_17
REMARK   10  A    between atoms: C7_14  and  C9_22
REMARK   11  A    between atoms: C8_17  and  N3_18
ROOT
HETATM    1  C5  UNL     1     -15.283 -24.847  22.982  1.00  0.00     0.243 C
HETATM    2  O2  UNL     1     -15.358 -23.857  23.731  1.00  0.00    -0.272 OA
HETATM    3  N2  UNL     1     -15.196 -26.175  23.398  1.00  0.00    -0.356 N
ATOM      4  H2  UNL     1     -15.150 -26.877  22.659  1.00  0.00     0.162 HD
ENDROOT
BRANCH   3   5
HETATM    5  C6  UNL     1     -15.163 -26.664  24.731  1.00  0.00     0.172 C
BRANCH   5   6
HETATM    6  C7  UNL     1     -16.354 -27.414  25.233  1.00  0.00     0.175 C
BRANCH   6   7
HETATM    7  O3  UNL     1     -17.520 -26.879  24.760  1.00  0.00    -0.377 OA
ATOM      8  H3  UNL     1     -18.276 -27.376  25.051  1.00  0.00     0.211 HD
ENDBRANCH   6   7
BRANCH   6   9
HETATM    9  C8  UNL     1     -16.379 -27.265  26.751  1.00  0.00     0.278 C
BRANCH   9  10
HETATM   10  N3  UNL     1     -15.581 -26.189  27.242  1.00  0.00    -0.076 N
ATOM     11  H33 UNL     1     -15.184 -26.424  28.152  1.00  0.00     0.274 HD
ATOM     12  H32 UNL     1     -14.724 -26.101  26.697  1.00  0.00     0.274 HD
ATOM     13  H31 UNL     1     -16.070 -25.295  27.286  1.00  0.00     0.274 HD
ENDBRANCH   9  10
ENDBRANCH   6   9
BRANCH   6  14
HETATM   14  C9  UNL     1     -16.183 -28.836  24.846  1.00  0.00     0.269 C
HETATM   15  N4  UNL     1     -16.551 -29.844  25.756  1.00  0.00    -0.059 NA
HETATM   16  O4  UNL     1     -15.718 -29.109  23.727  1.00  0.00    -0.273 OA
ENDBRANCH   6  14
ENDBRANCH   5   6
ENDBRANCH   3   5
BRANCH   1  17
HETATM   17  C4  UNL     1     -15.291 -24.548  21.505  1.00  0.00     0.334 C
BRANCH  17  18
HETATM   18  N1  UNL     1     -14.043 -24.993  20.933  1.00  0.00    -0.065 N
ATOM     19  H12 UNL     1     -13.977 -24.804  19.932  1.00  0.00     0.277 HD
ATOM     20  H11 UNL     1     -13.970 -26.009  20.883  1.00  0.00     0.277 HD
BRANCH  18  21
HETATM   21  C3  UNL     1     -12.966 -24.387  21.693  1.00  0.00     0.259 C
BRANCH  21  22
HETATM   22  C2  UNL     1     -11.680 -25.177  21.442  1.00  0.00     0.194 C
BRANCH  22  23
HETATM   23  O1  UNL     1     -10.785 -24.334  20.824  1.00  0.00    -0.394 OA
HETATM   24  C1  UNL     1     -10.412 -23.269  21.614  1.00  0.00     0.201 C
ENDBRANCH  22  23
ENDBRANCH  21  22
ENDBRANCH  18  21
ENDBRANCH  17  18
ENDBRANCH   1  17
TORSDOF 11
ENDMDL