MODEL 4
REMARK VINA RESULT: -5.451645277      1.332      1.927
REMARK  10 active torsions:
REMARK  status: ('A' for Active; 'I' for Inactive)
REMARK    1  A    between atoms: C2_2  and  N1_3
REMARK    2  A    between atoms: N1_3  and  C3_6
REMARK    3  A    between atoms: C3_6  and  C4_7
REMARK       I    between atoms: C4_7  and  N2_9
REMARK       I    between atoms: N2_9  and  C5_11
REMARK       I    between atoms: C5_11  and  N3_13
REMARK    4  A    between atoms: N3_13  and  C6_15
REMARK    5  A    between atoms: C6_15  and  C7_16
REMARK    6  A    between atoms: C7_16  and  O3_17
REMARK    7  A    between atoms: C7_16  and  C8_19
REMARK    8  A    between atoms: C7_16  and  C9_24
REMARK    9  A    between atoms: C8_19  and  N4_20
REMARK   10  A    between atoms: C9_24  and  O4_25
ROOT
HETATM    1  C4  UNL     1     -15.799 -25.243  20.480  1.00  0.00     0.251 C
HETATM    2  O1  UNL     1     -16.528 -26.247  20.549  1.00  0.00    -0.271 OA
HETATM    3  N2  UNL     1     -15.322 -24.514  21.555  1.00  0.00    -0.278 N
ATOM      4  H2  UNL     1     -14.733 -23.714  21.326  1.00  0.00     0.173 HD
HETATM    5  C5  UNL     1     -15.550 -24.739  22.911  1.00  0.00     0.322 C
HETATM    6  O2  UNL     1     -14.973 -23.886  23.683  1.00  0.00    -0.247 OA
HETATM    7  N3  UNL     1     -16.323 -25.782  23.394  1.00  0.00    -0.340 N
ATOM      8  H3  UNL     1     -16.698 -26.426  22.697  1.00  0.00     0.164 HD
ENDROOT
BRANCH   7   9
HETATM    9  C6  UNL     1     -16.659 -26.064  24.757  1.00  0.00     0.166 C
BRANCH   9  10
HETATM   10  C7  UNL     1     -16.026 -27.254  25.344  1.00  0.00     0.118 C
BRANCH  10  11
HETATM   11  O3  UNL     1     -16.892 -27.954  26.217  1.00  0.00    -0.384 OA
ATOM     12  H3  UNL     1     -16.580 -27.955  27.114  1.00  0.00     0.210 HD
ENDBRANCH  10  11
BRANCH  10  13
HETATM   13  C8  UNL     1     -16.066 -28.277  24.098  1.00  0.00     0.271 C
BRANCH  13  14
HETATM   14  N4  UNL     1     -16.842 -29.411  24.450  1.00  0.00    -0.076 N
ATOM     15  H43 UNL     1     -17.205 -29.352  25.400  1.00  0.00     0.274 HD
ATOM     16  H42 UNL     1     -17.734 -29.439  23.956  1.00  0.00     0.274 HD
ATOM     17  H41 UNL     1     -16.290 -30.255  24.299  1.00  0.00     0.274 HD
ENDBRANCH  13  14
ENDBRANCH  10  13
BRANCH  10  18
HETATM   18  C9  UNL     1     -14.630 -27.175  25.751  1.00  0.00     0.205 C
BRANCH  18  19
HETATM   19  O4  UNL     1     -14.250 -25.848  25.950  1.00  0.00    -0.398 OA
ATOM     20  H4  UNL     1     -13.304 -25.773  25.990  1.00  0.00     0.209 HD
ENDBRANCH  18  19
ENDBRANCH  10  18
ENDBRANCH   9  10
ENDBRANCH   7   9
BRANCH   1  21
HETATM   21  C3  UNL     1     -15.426 -24.820  19.064  1.00  0.00     0.335 C
BRANCH  21  22
HETATM   22  N1  UNL     1     -15.159 -26.021  18.317  1.00  0.00    -0.067 N
ATOM     23  H12 UNL     1     -15.185 -26.861  18.896  1.00  0.00     0.277 HD
ATOM     24  H11 UNL     1     -14.187 -26.092  18.018  1.00  0.00     0.277 HD
BRANCH  22  25
HETATM   25  C2  UNL     1     -16.102 -26.074  17.200  1.00  0.00     0.228 C
HETATM   26  C1  UNL     1     -16.786 -27.411  17.167  1.00  0.00     0.034 C
ENDBRANCH  22  25
ENDBRANCH  21  22
ENDBRANCH   1  21
TORSDOF 10
ENDMDL