MODEL 1
REMARK VINA RESULT: -6.674084608      0.000      0.000
REMARK  10 active torsions:
REMARK  status: ('A' for Active; 'I' for Inactive)
REMARK    1  A    between atoms: C2_2  and  C3_3
REMARK    2  A    between atoms: C3_3  and  O1_4
REMARK    3  A    between atoms: C3_3  and  C4_8
REMARK    4  A    between atoms: O1_4  and  N1_5
REMARK    5  A    between atoms: C4_8  and  C5_9
REMARK    6  A    between atoms: C4_8  and  N2_12
REMARK    7  A    between atoms: C4_8  and  C9_20
REMARK    8  A    between atoms: C5_9  and  O2_10
REMARK    9  A    between atoms: N2_12  and  C6_14
REMARK   10  A    between atoms: C6_14  and  C7_15
REMARK       I    between atoms: C7_15  and  N3_17
ROOT
HETATM    1  C4  UNL     1     -15.778 -25.158  23.387  1.00  0.00     0.159 C
ENDROOT
BRANCH   1   2
HETATM    2  C3  UNL     1     -15.776 -26.146  24.560  1.00  0.00     0.190 C
BRANCH   2   3
HETATM    3  C2  UNL     1     -15.721 -27.584  24.264  1.00  0.00     0.033 C
HETATM    4  C1  UNL     1     -16.628 -28.500  25.012  1.00  0.00     0.007 C
ENDBRANCH   2   3
BRANCH   2   5
HETATM    5  O1  UNL     1     -14.619 -25.827  25.360  1.00  0.00    -0.279 OA
BRANCH   5   6
HETATM    6  N1  UNL     1     -14.802 -26.083  26.649  1.00  0.00    -0.311 N
ATOM      7  H12 UNL     1     -15.689 -25.917  27.125  1.00  0.00     0.184 HD
ATOM      8  H11 UNL     1     -13.966 -26.459  27.098  1.00  0.00     0.184 HD
ENDBRANCH   5   6
ENDBRANCH   2   5
ENDBRANCH   1   2
BRANCH   1   9
HETATM    9  C5  UNL     1     -14.530 -24.403  23.193  1.00  0.00     0.207 C
BRANCH   9  10
HETATM   10  O2  UNL     1     -13.511 -25.168  22.562  1.00  0.00    -0.398 OA
ATOM     11  H2  UNL     1     -12.752 -25.305  23.117  1.00  0.00     0.209 HD
ENDBRANCH   9  10
ENDBRANCH   1   9
BRANCH   1  12
HETATM   12  N2  UNL     1     -15.996 -26.081  22.253  1.00  0.00    -0.373 N
ATOM     13  H2  UNL     1     -15.577 -27.012  22.238  1.00  0.00     0.160 HD
BRANCH  12  14
HETATM   14  C6  UNL     1     -16.795 -25.628  21.205  1.00  0.00     0.159 C
BRANCH  14  15
HETATM   15  C7  UNL     1     -15.934 -25.549  19.961  1.00  0.00     0.256 C
HETATM   16  O3  UNL     1     -14.909 -24.853  19.965  1.00  0.00    -0.267 OA
HETATM   17  N3  UNL     1     -16.333 -26.288  18.804  1.00  0.00    -0.361 N
HETATM   18  C8  UNL     1     -15.514 -26.212  17.627  1.00  0.00     0.149 C
ATOM     19  H3  UNL     1     -17.180 -26.856  18.814  1.00  0.00     0.162 HD
ENDBRANCH  14  15
ENDBRANCH  12  14
ENDBRANCH   1  12
BRANCH   1  20
HETATM   20  C9  UNL     1     -17.002 -24.346  23.487  1.00  0.00     0.264 C
HETATM   21  N4  UNL     1     -17.102 -22.966  23.161  1.00  0.00    -0.060 NA
HETATM   22  O4  UNL     1     -18.066 -24.861  23.885  1.00  0.00    -0.274 OA
ENDBRANCH   1  20
TORSDOF 10
ENDMDL