MODEL 1
REMARK VINA RESULT: -5.130946926      0.000      0.000
REMARK  3 active torsions:
REMARK  status: ('A' for Active; 'I' for Inactive)
REMARK    1  A    between atoms: C2_2  and  C3_3
REMARK    2  A    between atoms: C2_2  and  N2_10
REMARK    3  A    between atoms: N2_10  and  C8_12
ROOT
HETATM    1  C3  UNL     1      18.068 155.592 378.865  1.00  0.00     0.059 A
HETATM    2  C4  UNL     1      18.896 154.497 378.609  1.00  0.00     0.052 A
HETATM    3  C5  UNL     1      19.838 154.860 377.679  1.00  0.00     0.028 A
HETATM    4 BR1  UNL     1      21.239 153.786 376.937  1.00  0.00    -0.050 Br
HETATM    5  C6  UNL     1      19.589 156.172 377.366  1.00  0.00     0.107 A
HETATM    6  N1  UNL     1      18.532 156.572 378.089  1.00  0.00    -0.363 N
ATOM      7  H1  UNL     1      18.132 157.510 378.049  1.00  0.00     0.165 HD
ENDROOT
BRANCH   1   8
HETATM    8  C2  UNL     1      16.947 155.605 379.794  1.00  0.00     0.047 C
HETATM    9  C1  UNL     1      16.048 156.540 379.681  1.00  0.00     0.045 C
BRANCH   8  10
HETATM   10  N2  UNL     1      16.799 154.637 380.819  1.00  0.00    -0.379 N
HETATM   11  C7  UNL     1      17.781 154.635 381.890  1.00  0.00     0.150 C
BRANCH  10  12
HETATM   12  C8  UNL     1      15.691 153.686 380.781  1.00  0.00     0.084 A
HETATM   13  C9  UNL     1      15.820 152.342 381.337  1.00  0.00     0.027 A
HETATM   14  C10 UNL     1      15.955 152.517 379.859  1.00  0.00     0.027 A
ENDBRANCH  10  12
ENDBRANCH   8  10
ENDBRANCH   1   8
TORSDOF 3
ENDMDL