MODEL 1
REMARK VINA RESULT: -5.557853975      0.000      0.000
REMARK  2 active torsions:
REMARK  status: ('A' for Active; 'I' for Inactive)
REMARK    1  A    between atoms: C1_2  and  C2_3
REMARK    2  A    between atoms: C2_3  and  C3_4
ROOT
HETATM    1  C3  UNL     1      16.096 152.803 380.764  1.00  0.00    -0.034 A
HETATM    2  C4  UNL     1      15.285 151.699 380.859  1.00  0.00     0.095 A
HETATM    3  N1  UNL     1      15.613 150.957 381.933  1.00  0.00    -0.368 N
ATOM      4  H1  UNL     1      15.170 150.088 382.232  1.00  0.00     0.165 HD
HETATM    5  C5  UNL     1      16.646 151.588 382.539  1.00  0.00     0.015 A
HETATM    6  C6  UNL     1      16.957 152.732 381.828  1.00  0.00    -0.028 A
HETATM    7  C7  UNL     1      18.084 153.571 382.347  1.00  0.00     0.041 C
HETATM    8  C8  UNL     1      19.277 152.706 382.701  1.00  0.00     0.005 C
HETATM    9  C9  UNL     1      18.911 151.448 383.408  1.00  0.00     0.006 C
HETATM   10  C10 UNL     1      17.467 151.313 383.747  1.00  0.00     0.057 C
ENDROOT
BRANCH   1  11
HETATM   11  C2  UNL     1      16.117 153.897 379.765  1.00  0.00     0.051 C
BRANCH  11  12
HETATM   12  C1  UNL     1      15.509 155.167 380.275  1.00  0.00     0.089 C
HETATM   13 BR1  UNL     1      16.573 156.633 379.543  1.00  0.00    -0.096 Br
ENDBRANCH  11  12
ENDBRANCH   1  11
TORSDOF 2
ENDMDL