MODEL 4
REMARK VINA RESULT: -5.674979700      1.215      2.158
REMARK  2 active torsions:
REMARK  status: ('A' for Active; 'I' for Inactive)
REMARK       I    between atoms: N1_2  and  C3_4
REMARK    1  A    between atoms: N3_6  and  C4_8
REMARK    2  A    between atoms: C4_8  and  C5_9
ROOT
HETATM    1  C5  UNL     1      18.122 155.135 378.750  1.00  0.00     0.013 C
HETATM    2  C6  UNL     1      18.442 153.642 379.084  1.00  0.00     0.086 C
HETATM    3  C7  UNL     1      17.596 153.340 380.164  1.00  0.00    -0.183 C
HETATM    4  C8  UNL     1      16.897 152.642 381.162  1.00  0.00     0.080 C
HETATM    5  C9  UNL     1      15.912 153.707 381.750  1.00  0.00     0.011 C
HETATM    6  C10 UNL     1      15.311 154.637 380.789  1.00  0.00     0.001 C
HETATM    7  C11 UNL     1      16.096 155.828 380.252  1.00  0.00     0.000 C
HETATM    8  C12 UNL     1      16.733 155.566 378.924  1.00  0.00     0.007 C
ENDROOT
BRANCH   1   9
HETATM    9  C4  UNL     1      19.060 156.014 379.532  1.00  0.00     0.127 C
BRANCH   9  10
HETATM   10  N3  UNL     1      19.482 157.083 378.617  1.00  0.00    -0.364 N
HETATM   11  C3  UNL     1      20.598 157.077 378.021  1.00  0.00     0.185 C
HETATM   12  N1  UNL     1      20.929 158.143 377.156  1.00  0.00    -0.364 N
HETATM   13  N2  UNL     1      21.530 156.026 378.196  1.00  0.00    -0.064 NA
HETATM   14  C1  UNL     1      21.634 159.280 377.698  1.00  0.00     0.151 C
HETATM   15  C2  UNL     1      20.585 158.127 375.754  1.00  0.00     0.151 C
ATOM     16  H3  UNL     1      18.847 157.865 378.454  1.00  0.00     0.162 HD
ENDBRANCH   9  10
ENDBRANCH   1   9
TORSDOF 2
ENDMDL