MODEL 3
REMARK VINA RESULT: -5.251712991      2.708      3.684
REMARK  2 active torsions:
REMARK  status: ('A' for Active; 'I' for Inactive)
REMARK    1  A    between atoms: C2_2  and  C3_3
REMARK    2  A    between atoms: C2_2  and  N1_6
REMARK       I    between atoms: N1_6  and  C6_8
REMARK       I    between atoms: C6_8  and  N3_12
ROOT
HETATM    1  N1  UNL     1      18.832 154.921 380.000  1.00  0.00    -0.215 N
HETATM    2  C5  UNL     1      19.887 155.138 380.953  1.00  0.00     0.169 C
HETATM    3  C6  UNL     1      18.465 153.558 379.712  1.00  0.00     0.672 C
HETATM    4  N2  UNL     1      19.098 153.010 378.807  1.00  0.00    -0.235 N
ATOM      5  H21 UNL     1      18.839 152.045 378.603  1.00  0.00     0.174 HD
ATOM      6  H22 UNL     1      19.853 153.456 378.285  1.00  0.00     0.174 HD
HETATM    7  N3  UNL     1      17.400 152.928 380.447  1.00  0.00    -0.214 N
HETATM    8  C7  UNL     1      16.018 153.067 380.021  1.00  0.00     0.141 C
HETATM    9  C8  UNL     1      15.318 151.858 380.622  1.00  0.00     0.022 C
HETATM   10  C9  UNL     1      16.017 151.762 381.949  1.00  0.00     0.027 C
HETATM   11  C10 UNL     1      17.455 152.127 381.639  1.00  0.00     0.098 C
HETATM   12  C11 UNL     1      17.930 152.944 382.844  1.00  0.00     0.033 C
ENDROOT
BRANCH   1  13
HETATM   13  C2  UNL     1      18.164 156.008 379.374  1.00  0.00     0.121 C
HETATM   14  C1  UNL     1      18.925 157.317 379.561  1.00  0.00     0.037 C
BRANCH  13  15
HETATM   15  C3  UNL     1      16.756 156.215 379.761  1.00  0.00     0.010 C
HETATM   16  C4  UNL     1      15.766 156.233 378.885  1.00  0.00     0.082 C
HETATM   17 CL1  UNL     1      14.136 156.483 379.430  1.00  0.00    -0.097 Cl
ENDBRANCH  13  15
ENDBRANCH   1  13
TORSDOF 2
ENDMDL