MODEL 1
REMARK VINA RESULT: -5.573852652      0.000      0.000
REMARK  2 active torsions:
REMARK  status: ('A' for Active; 'I' for Inactive)
REMARK    1  A    between atoms: C4_7  and  C5_8
REMARK    2  A    between atoms: C5_8  and  C6_9
ROOT
HETATM    1 BR1  UNL     1      18.794 154.822 378.704  1.00  0.00    -0.049 Br
HETATM    2  C1  UNL     1      17.060 155.271 379.375  1.00  0.00     0.034 A
HETATM    3  C2  UNL     1      16.459 156.501 379.214  1.00  0.00     0.038 A
HETATM    4  C3  UNL     1      15.214 156.465 379.828  1.00  0.00     0.089 A
HETATM    5  N1  UNL     1      15.097 155.210 380.347  1.00  0.00    -0.368 N
ATOM      6  H1  UNL     1      14.287 154.871 380.865  1.00  0.00     0.165 HD
HETATM    7  C4  UNL     1      16.177 154.491 380.090  1.00  0.00     0.026 A
ENDROOT
BRANCH   7   8
HETATM    8  C5  UNL     1      16.437 153.091 380.479  1.00  0.00     0.063 C
BRANCH   8   9
HETATM    9  C6  UNL     1      16.817 152.934 381.934  1.00  0.00    -0.009 C
HETATM   10  C7  UNL     1      18.323 152.802 381.966  1.00  0.00     0.005 C
HETATM   11  C8  UNL     1      18.534 152.268 383.382  1.00  0.00     0.000 C
HETATM   12  C9  UNL     1      17.490 151.166 383.414  1.00  0.00     0.000 C
HETATM   13  C10 UNL     1      16.367 151.635 382.515  1.00  0.00     0.005 C
ENDBRANCH   8   9
ENDBRANCH   7   8
TORSDOF 2
ENDMDL