MODEL 1
REMARK VINA RESULT: -5.994853266      0.000      0.000
REMARK  2 active torsions:
REMARK  status: ('A' for Active; 'I' for Inactive)
REMARK    1  A    between atoms: C5_8  and  C6_9
REMARK    2  A    between atoms: C6_9  and  N2_10
ROOT
HETATM    1  C6  UNL     1      18.246 153.279 381.066  1.00  0.00     0.219 C
ENDROOT
BRANCH   1   2
HETATM    2  C5  UNL     1      16.946 152.609 381.245  1.00  0.00     0.049 A
HETATM    3  C2  UNL     1      16.716 151.724 382.299  1.00  0.00     0.019 A
HETATM    4  C1  UNL     1      17.590 151.617 383.488  1.00  0.00     0.069 C
HETATM    5  N1  UNL     1      15.596 151.022 382.068  1.00  0.00    -0.366 N
HETATM    6  C3  UNL     1      15.087 151.404 380.896  1.00  0.00     0.131 A
ATOM      7  H1  UNL     1      15.200 150.314 382.687  1.00  0.00     0.165 HD
HETATM    8  C4  UNL     1      15.895 152.392 380.395  1.00  0.00     0.145 A
HETATM    9  F1  UNL     1      15.679 152.935 379.177  1.00  0.00    -0.204 F
ENDBRANCH   1   2
BRANCH   1  10
HETATM   10  N2  UNL     1      18.315 154.564 380.497  1.00  0.00    -0.046 N
HETATM   11  C7  UNL     1      18.667 154.329 379.078  1.00  0.00     0.243 C
HETATM   12  C8  UNL     1      19.168 155.532 378.378  1.00  0.00     0.033 C
HETATM   13  C9  UNL     1      19.010 156.721 379.287  1.00  0.00    -0.010 C
HETATM   14  C10 UNL     1      19.886 156.463 380.493  1.00  0.00     0.033 C
HETATM   15  C12 UNL     1      17.579 156.740 379.781  1.00  0.00     0.033 C
HETATM   16  C11 UNL     1      19.579 155.132 381.096  1.00  0.00     0.243 C
HETATM   17  C13 UNL     1      17.334 155.528 380.678  1.00  0.00     0.243 C
ENDBRANCH   1  10
TORSDOF 2
ENDMDL