MODEL 5
REMARK VINA RESULT: -5.337861474      1.600      1.925
REMARK  3 active torsions:
REMARK  status: ('A' for Active; 'I' for Inactive)
REMARK    1  A    between atoms: C1_2  and  C2_3
REMARK    2  A    between atoms: C2_3  and  C3_4
REMARK    3  A    between atoms: C3_4  and  C4_5
ROOT
HETATM    1  C4  UNL     1      18.034 154.409 379.546  1.00  0.00    -0.013 A
HETATM    2  C5  UNL     1      18.747 155.166 378.649  1.00  0.00     0.100 A
HETATM    3  N1  UNL     1      18.104 156.327 378.412  1.00  0.00    -0.368 N
ATOM      4  H1  UNL     1      18.420 157.066 377.784  1.00  0.00     0.165 HD
HETATM    5  C6  UNL     1      16.981 156.345 379.143  1.00  0.00     0.016 A
HETATM    6  C7  UNL     1      16.907 155.187 379.847  1.00  0.00    -0.024 A
HETATM    7  C8  UNL     1      15.656 155.200 380.672  1.00  0.00     0.042 C
HETATM    8  C9  UNL     1      14.795 156.179 379.937  1.00  0.00     0.011 C
HETATM    9  C10 UNL     1      15.790 157.208 379.466  1.00  0.00     0.058 C
ENDROOT
BRANCH   1  10
HETATM   10  C3  UNL     1      18.253 153.131 380.178  1.00  0.00     0.014 C
BRANCH  10  11
HETATM   11  C2  UNL     1      18.510 153.041 381.600  1.00  0.00     0.008 C
BRANCH  11  12
HETATM   12  C1  UNL     1      17.900 152.401 382.552  1.00  0.00     0.056 C
HETATM   13 BR1  UNL     1      16.109 151.745 382.209  1.00  0.00    -0.064 Br
ENDBRANCH  11  12
ENDBRANCH  10  11
ENDBRANCH   1  10
TORSDOF 3
ENDMDL