MODEL 1
REMARK VINA RESULT: -5.907605183      0.000      0.000
REMARK  2 active torsions:
REMARK  status: ('A' for Active; 'I' for Inactive)
REMARK    1  A    between atoms: C3_3  and  C8_9
REMARK    2  A    between atoms: C4_4  and  C5_6
ROOT
HETATM    1  C1  UNL     1      14.583 156.503 379.490  1.00  0.00     0.018 C
HETATM    2  C2  UNL     1      15.658 155.970 379.606  1.00  0.00    -0.074 C
HETATM    3  C3  UNL     1      16.943 155.316 379.737  1.00  0.00     0.057 C
HETATM    4  C4  UNL     1      17.041 154.170 380.365  1.00  0.00     0.014 C
HETATM    5 BR1  UNL     1      18.718 153.308 380.543  1.00  0.00    -0.054 Br
ENDROOT
BRANCH   3   6
HETATM    6  C8  UNL     1      18.118 155.936 379.142  1.00  0.00     0.051 A
HETATM    7  C9  UNL     1      18.925 156.863 379.830  1.00  0.00     0.032 A
HETATM    8  C10 UNL     1      19.901 157.232 378.943  1.00  0.00     0.019 A
HETATM    9  C11 UNL     1      19.722 156.578 377.764  1.00  0.00     0.088 A
HETATM   10  N1  UNL     1      18.628 155.793 377.909  1.00  0.00    -0.365 N
ATOM     11  H1  UNL     1      18.247 155.183 377.186  1.00  0.00     0.165 HD
ENDBRANCH   3   6
BRANCH   4  12
HETATM   12  C5  UNL     1      15.823 153.509 380.959  1.00  0.00     0.027 A
HETATM   13  C6  UNL     1      16.091 152.428 381.927  1.00  0.00     0.010 A
HETATM   14  C7  UNL     1      15.565 152.130 380.554  1.00  0.00     0.010 A
ENDBRANCH   4  12
TORSDOF 2
ENDMDL