MODEL 3
REMARK VINA RESULT: -5.659014496      3.422      4.853
REMARK  2 active torsions:
REMARK  status: ('A' for Active; 'I' for Inactive)
REMARK    1  A    between atoms: C1_2  and  C2_3
REMARK    2  A    between atoms: C2_3  and  C3_4
ROOT
HETATM    1  C3  UNL     1      16.304 153.429 380.078  1.00  0.00     0.027 A
HETATM    2  C4  UNL     1      15.224 152.456 379.963  1.00  0.00     0.067 A
HETATM    3  C5  UNL     1      15.770 151.818 381.171  1.00  0.00     0.017 A
HETATM    4  N1  UNL     1      15.905 150.931 382.212  1.00  0.00    -0.362 N
ATOM      5  H1  UNL     1      15.293 150.136 382.396  1.00  0.00     0.165 HD
HETATM    6  C6  UNL     1      16.985 151.284 382.957  1.00  0.00     0.016 A
HETATM    7  C7  UNL     1      17.528 152.382 382.394  1.00  0.00    -0.027 A
HETATM    8  C8  UNL     1      16.750 152.709 381.264  1.00  0.00    -0.023 A
HETATM    9  C9  UNL     1      18.597 152.471 383.395  1.00  0.00     0.047 A
HETATM   10  C10 UNL     1      17.996 151.259 384.015  1.00  0.00     0.062 A
ENDROOT
BRANCH   1  11
HETATM   11  C2  UNL     1      15.908 154.866 380.377  1.00  0.00     0.020 C
BRANCH  11  12
HETATM   12  C1  UNL     1      16.210 155.741 379.179  1.00  0.00     0.086 C
HETATM   13 BR1  UNL     1      18.100 155.710 378.812  1.00  0.00    -0.096 Br
ENDBRANCH  11  12
ENDBRANCH   1  11
TORSDOF 2
ENDMDL