MODEL 5
REMARK VINA RESULT: -5.590841666      1.811      3.847
REMARK  3 active torsions:
REMARK  status: ('A' for Active; 'I' for Inactive)
REMARK    1  A    between atoms: C2_2  and  C3_4
REMARK    2  A    between atoms: C3_4  and  C4_5
REMARK    3  A    between atoms: C6_7  and  C7_8
ROOT
HETATM    1  C4  UNL     1      -3.707 167.545 399.394  1.00  0.00     0.000 C
HETATM    2  C5  UNL     1      -3.389 168.945 399.944  1.00  0.00     0.018 C
HETATM    3  C6  UNL     1      -3.115 166.492 400.363  1.00  0.00     0.062 C
HETATM    4  C11 UNL     1      -2.318 165.729 399.374  1.00  0.00     0.201 C
HETATM    5  C12 UNL     1      -3.169 165.698 398.120  1.00  0.00     0.068 C
HETATM    6  C13 UNL     1      -2.881 167.201 398.218  1.00  0.00     0.201 C
HETATM    7  N2  UNL     1      -1.577 166.744 398.685  1.00  0.00    -0.065 N
HETATM    8  C14 UNL     1      -0.854 166.146 397.547  1.00  0.00     0.273 C
HETATM    9  C15 UNL     1      -0.729 167.635 399.355  1.00  0.00     0.273 C
ENDROOT
BRANCH   3  10
HETATM   10  C7  UNL     1      -4.094 165.690 401.062  1.00  0.00    -0.035 A
HETATM   11  C8  UNL     1      -5.284 165.162 400.629  1.00  0.00     0.026 A
HETATM   12  C9  UNL     1      -5.873 164.479 401.678  1.00  0.00     0.088 A
HETATM   13  N1  UNL     1      -5.061 164.582 402.741  1.00  0.00    -0.375 N
HETATM   14  C10 UNL     1      -3.982 165.305 402.402  1.00  0.00     0.095 A
ATOM     15  H1  UNL     1      -5.236 164.177 403.661  1.00  0.00     0.164 HD
ENDBRANCH   3  10
BRANCH   1  16
HETATM   16  C3  UNL     1      -5.172 167.433 399.293  1.00  0.00     0.081 C
BRANCH  16  17
HETATM   17  C2  UNL     1      -5.943 168.633 398.959  1.00  0.00     0.085 C
HETATM   18  C1  UNL     1      -6.995 169.134 399.536  1.00  0.00     0.051 C
HETATM   19  F1  UNL     1      -5.475 169.334 397.863  1.00  0.00    -0.212 F
ENDBRANCH  16  17
ENDBRANCH   1  16
TORSDOF 3
ENDMDL