MODEL 1
REMARK VINA RESULT: -5.894502134      0.000      0.000
REMARK  3 active torsions:
REMARK  status: ('A' for Active; 'I' for Inactive)
REMARK    1  A    between atoms: C2_2  and  C4_4
REMARK    2  A    between atoms: C4_4  and  C5_5
REMARK    3  A    between atoms: C5_5  and  C7_7
ROOT
HETATM    1  C7  UNL     1      -4.553 167.291 400.162  1.00  0.00     0.084 C
HETATM    2  C8  UNL     1      -5.197 165.980 400.305  1.00  0.00     0.081 C
HETATM    3  S1  UNL     1      -5.211 164.828 401.441  1.00  0.00    -0.065 SA
HETATM    4  N1  UNL     1      -5.801 166.146 399.041  1.00  0.00    -0.369 N
ATOM      5  H1  UNL     1      -6.369 165.534 398.453  1.00  0.00     0.161 HD
HETATM    6  C9  UNL     1      -5.315 167.516 398.881  1.00  0.00     0.165 C
HETATM    7 BR1  UNL     1      -6.682 168.853 399.032  1.00  0.00    -0.068 Br
ENDROOT
BRANCH   1   8
HETATM    8  C5  UNL     1      -3.060 167.309 400.005  1.00  0.00    -0.005 C
HETATM    9  C6  UNL     1      -2.517 168.438 400.865  1.00  0.00     0.011 C
BRANCH   8  10
HETATM   10  C4  UNL     1      -2.651 167.551 398.615  1.00  0.00     0.009 C
BRANCH  10  11
HETATM   11  C2  UNL     1      -1.890 166.470 397.936  1.00  0.00    -0.022 C
HETATM   12  C1  UNL     1      -2.704 165.274 397.554  1.00  0.00     0.009 C
HETATM   13  C3  UNL     1      -0.735 165.995 398.791  1.00  0.00     0.009 C
ENDBRANCH  10  11
ENDBRANCH   8  10
ENDBRANCH   1   8
TORSDOF 3
ENDMDL