MODEL 2
REMARK VINA RESULT: -6.723479317      0.969      1.164
REMARK  3 active torsions:
REMARK  status: ('A' for Active; 'I' for Inactive)
REMARK    1  A    between atoms: C2_2  and  C3_3
REMARK    2  A    between atoms: C3_3  and  C4_4
REMARK    3  A    between atoms: C4_4  and  C5_5
REMARK       I    between atoms: N2_9  and  C7_11
REMARK       I    between atoms: C7_11  and  N3_13
ROOT
HETATM    1  C5  UNL     1      -5.289 166.709 398.584  1.00  0.00     0.022 C
HETATM    2  N1  UNL     1      -4.447 166.152 397.731  1.00  0.00    -0.350 N
ATOM      3  H1  UNL     1      -4.784 165.636 396.918  1.00  0.00     0.166 HD
HETATM    4  C6  UNL     1      -3.071 166.295 397.983  1.00  0.00     0.085 C
HETATM    5  N2  UNL     1      -2.225 165.302 397.949  1.00  0.00    -0.298 N
ATOM      6  H2  UNL     1      -2.536 164.355 397.732  1.00  0.00     0.172 HD
HETATM    7  C7  UNL     1      -0.847 165.580 398.224  1.00  0.00     0.321 C
HETATM    8  O1  UNL     1      -0.381 165.524 399.389  1.00  0.00    -0.247 OA
HETATM    9  N3  UNL     1       0.010 165.928 397.151  1.00  0.00    -0.347 N
ATOM     10  H3  UNL     1      -0.347 165.979 396.197  1.00  0.00     0.163 HD
HETATM   11  C8  UNL     1       1.400 166.208 397.435  1.00  0.00     0.151 C
HETATM   12  C9  UNL     1      -2.618 167.670 398.297  1.00  0.00     0.084 C
HETATM   13  C10 UNL     1      -3.473 168.258 399.359  1.00  0.00     0.028 C
HETATM   14  C11 UNL     1      -2.600 168.503 400.573  1.00  0.00     0.014 C
HETATM   15  C12 UNL     1      -4.682 167.401 399.732  1.00  0.00     0.219 C
HETATM   16  F1  UNL     1      -5.616 168.242 400.360  1.00  0.00    -0.243 F
ENDROOT
BRANCH   1  17
HETATM   17  C4  UNL     1      -6.741 166.567 398.340  1.00  0.00     0.055 C
BRANCH  17  18
HETATM   18  C3  UNL     1      -7.453 165.451 398.968  1.00  0.00     0.005 C
BRANCH  18  19
HETATM   19  C2  UNL     1      -7.645 165.600 400.442  1.00  0.00    -0.004 C
HETATM   20  C1  UNL     1      -8.696 166.707 400.661  1.00  0.00     0.005 C
ENDBRANCH  18  19
ENDBRANCH  17  18
ENDBRANCH   1  17
TORSDOF 3
ENDMDL