MODEL 3
REMARK VINA RESULT: -5.617587099      2.038      2.883
REMARK  4 active torsions:
REMARK  status: ('A' for Active; 'I' for Inactive)
REMARK    1  A    between atoms: N1_6  and  C7_8
REMARK    2  A    between atoms: C7_8  and  C8_9
REMARK    3  A    between atoms: C8_9  and  C9_10
REMARK    4  A    between atoms: C10_12  and  C12_14
ROOT
HETATM    1  C1  UNL     1      -0.178 166.457 398.660  1.00  0.00     0.036 C
HETATM    2  C2  UNL     1      -1.417 165.812 399.125  1.00  0.00    -0.028 C
HETATM    3  C3  UNL     1      -2.495 166.458 399.485  1.00  0.00    -0.080 C
HETATM    4  C4  UNL     1      -2.547 167.938 399.448  1.00  0.00     0.062 C
HETATM    5  C5  UNL     1      -3.848 168.327 400.072  1.00  0.00     0.242 C
HETATM    6  N1  UNL     1      -5.016 167.809 399.310  1.00  0.00    -0.060 N
HETATM    7  C6  UNL     1      -5.012 168.617 398.103  1.00  0.00     0.273 C
HETATM    8  C10 UNL     1      -4.871 166.412 399.115  1.00  0.00     0.141 C
HETATM    9  C11 UNL     1      -6.084 165.608 399.600  1.00  0.00     0.048 C
HETATM   10  C13 UNL     1      -3.725 165.792 399.947  1.00  0.00     0.074 C
ENDROOT
BRANCH   6  11
HETATM   11  C7  UNL     1      -6.136 168.200 400.137  1.00  0.00     0.245 C
BRANCH  11  12
HETATM   12  C8  UNL     1      -7.173 169.018 399.420  1.00  0.00     0.097 C
BRANCH  12  13
HETATM   13  C9  UNL     1      -8.428 168.207 399.205  1.00  0.00     0.232 C
HETATM   14  O1  UNL     1      -8.617 167.571 398.202  1.00  0.00    -0.307 OA
ENDBRANCH  12  13
ENDBRANCH  11  12
ENDBRANCH   6  11
BRANCH   8  15
HETATM   15  C12 UNL     1      -4.607 165.922 397.728  1.00  0.00     0.154 C
HETATM   16 CL1  UNL     1      -5.973 166.061 396.615  1.00  0.00    -0.128 Cl
ENDBRANCH   8  15
TORSDOF 4
ENDMDL