MODEL 3
REMARK VINA RESULT: -6.500035005      1.082      4.174
REMARK  4 active torsions:
REMARK  status: ('A' for Active; 'I' for Inactive)
REMARK    1  A    between atoms: C2_2  and  N1_3
REMARK       I    between atoms: N1_3  and  C3_5
REMARK    2  A    between atoms: C3_5  and  C4_7
REMARK    3  A    between atoms: C5_8  and  C6_9
REMARK    4  A    between atoms: C6_9  and  C7_10
ROOT
HETATM    1  C4  UNL     1      -5.023 166.591 399.594  1.00  0.00     0.087 C
HETATM    2  C5  UNL     1      -4.976 165.724 398.336  1.00  0.00    -0.000 C
HETATM    3  C10 UNL     1      -5.424 166.666 397.287  1.00  0.00     0.011 C
HETATM    4  C11 UNL     1      -6.579 167.420 397.952  1.00  0.00    -0.000 A
HETATM    5  C12 UNL     1      -6.223 167.443 399.443  1.00  0.00     0.012 A
HETATM    6  C13 UNL     1      -6.250 168.688 398.656  1.00  0.00    -0.039 A
HETATM    7  C14 UNL     1      -4.990 169.385 398.214  1.00  0.00     0.015 C
HETATM    8  C15 UNL     1      -7.416 169.615 398.928  1.00  0.00     0.015 C
ENDROOT
BRANCH   1   9
HETATM    9  C3  UNL     1      -5.217 165.630 400.752  1.00  0.00     0.226 C
HETATM   10  N1  UNL     1      -4.227 165.518 401.722  1.00  0.00    -0.338 N
ATOM     11  H1  UNL     1      -3.414 166.117 401.573  1.00  0.00     0.168 HD
HETATM   12  O1  UNL     1      -6.256 164.948 400.828  1.00  0.00    -0.273 OA
BRANCH  10  13
HETATM   13  C2  UNL     1      -4.163 164.726 402.860  1.00  0.00     0.081 C
HETATM   14  C1  UNL     1      -4.098 165.169 404.090  1.00  0.00     0.030 C
ENDBRANCH  10  13
ENDBRANCH   1   9
BRANCH   2  15
HETATM   15  C6  UNL     1      -3.614 165.192 398.119  1.00  0.00     0.009 C
BRANCH  15  16
HETATM   16  C7  UNL     1      -2.520 166.182 398.283  1.00  0.00    -0.022 C
HETATM   17  C8  UNL     1      -1.560 166.018 399.392  1.00  0.00     0.009 C
HETATM   18  C9  UNL     1      -1.716 166.321 396.966  1.00  0.00     0.009 C
ENDBRANCH  15  16
ENDBRANCH   2  15
TORSDOF 4
ENDMDL