MODEL 5
REMARK VINA RESULT: -6.163125998      2.640      4.970
REMARK  3 active torsions:
REMARK  status: ('A' for Active; 'I' for Inactive)
REMARK    1  A    between atoms: C2_2  and  C3_3
REMARK    2  A    between atoms: C3_3  and  N1_4
REMARK    3  A    between atoms: N1_4  and  C4_7
ROOT
HETATM    1  C4  UNL     1      -4.712 166.512 399.051  1.00  0.00     0.128 C
HETATM    2  C5  UNL     1      -4.751 167.997 399.176  1.00  0.00     0.043 C
HETATM    3  C6  UNL     1      -3.418 168.616 399.529  1.00  0.00    -0.010 C
HETATM    4  C7  UNL     1      -2.969 167.967 400.844  1.00  0.00     0.011 C
HETATM    5  C8  UNL     1      -2.807 166.523 400.382  1.00  0.00     0.007 C
HETATM    6  C9  UNL     1      -4.231 165.946 400.367  1.00  0.00     0.045 C
HETATM    7  C10 UNL     1      -2.381 166.609 398.934  1.00  0.00     0.024 C
HETATM    8 BR1  UNL     1      -0.739 165.753 398.537  1.00  0.00    -0.085 Br
HETATM    9  C11 UNL     1      -2.368 168.109 398.591  1.00  0.00     0.026 C
HETATM   10  C12 UNL     1      -3.553 166.056 398.150  1.00  0.00     0.060 C
ENDROOT
BRANCH   1  11
HETATM   11  N1  UNL     1      -5.952 165.983 398.582  1.00  0.00    -0.066 N
ATOM     12  H12 UNL     1      -6.508 165.594 399.344  1.00  0.00     0.278 HD
ATOM     13  H11 UNL     1      -5.817 165.131 398.039  1.00  0.00     0.278 HD
BRANCH  11  14
HETATM   14  C3  UNL     1      -6.680 166.965 397.847  1.00  0.00     0.233 C
BRANCH  14  15
HETATM   15  C2  UNL     1      -8.170 166.988 398.240  1.00  0.00     0.023 C
HETATM   16  C1  UNL     1      -8.319 167.745 399.569  1.00  0.00     0.007 C
ENDBRANCH  14  15
ENDBRANCH  11  14
ENDBRANCH   1  11
TORSDOF 3
ENDMDL