MODEL 4
REMARK VINA RESULT: -5.411439206      1.960      4.737
REMARK  5 active torsions:
REMARK  status: ('A' for Active; 'I' for Inactive)
REMARK    1  A    between atoms: C1_2  and  C2_3
REMARK    2  A    between atoms: C3_4  and  C4_5
REMARK    3  A    between atoms: C7_10  and  C8_11
REMARK    4  A    between atoms: C9_12  and  C10_13
REMARK    5  A    between atoms: C10_13  and  C11_14
ROOT
HETATM    1  C4  UNL     1      -2.844 166.268 399.255  1.00  0.00     0.045 A
HETATM    2  C5  UNL     1      -1.736 165.742 398.626  1.00  0.00     0.040 A
HETATM    3  C6  UNL     1      -1.290 166.598 397.642  1.00  0.00     0.090 A
HETATM    4  N1  UNL     1      -2.117 167.664 397.651  1.00  0.00    -0.365 N
ATOM      5  H1  UNL     1      -2.044 168.471 397.032  1.00  0.00     0.165 HD
HETATM    6  C7  UNL     1      -3.068 167.494 398.617  1.00  0.00     0.050 A
ENDROOT
BRANCH   6   7
HETATM    7  C8  UNL     1      -4.144 168.403 398.957  1.00  0.00     0.027 C
HETATM    8  C9  UNL     1      -5.376 168.126 398.589  1.00  0.00    -0.024 C
BRANCH   8   9
HETATM    9  C10 UNL     1      -6.526 169.026 398.910  1.00  0.00     0.031 C
BRANCH   9  10
HETATM   10  C11 UNL     1      -7.738 168.186 399.259  1.00  0.00    -0.011 A
HETATM   11  C12 UNL     1      -8.047 167.041 398.321  1.00  0.00     0.005 A
HETATM   12  C13 UNL     1      -7.535 166.819 399.773  1.00  0.00     0.005 A
ENDBRANCH   9  10
ENDBRANCH   8   9
ENDBRANCH   6   7
BRANCH   1  13
HETATM   13  C3  UNL     1      -3.623 165.717 400.328  1.00  0.00    -0.064 C
HETATM   14  C2  UNL     1      -4.266 165.241 401.235  1.00  0.00    -0.090 C
BRANCH  14  15
HETATM   15  C1  UNL     1      -5.041 164.674 402.353  1.00  0.00     0.179 C
HETATM   16 BR1  UNL     1      -4.179 165.053 404.048  1.00  0.00    -0.083 Br
ENDBRANCH  14  15
ENDBRANCH   1  13
TORSDOF 5
ENDMDL