MODEL 1
REMARK VINA RESULT: -7.293238321      0.000      0.000
REMARK  3 active torsions:
REMARK  status: ('A' for Active; 'I' for Inactive)
REMARK    1  A    between atoms: C4_4  and  C5_5
REMARK    2  A    between atoms: C7_9  and  C8_10
REMARK    3  A    between atoms: C8_10  and  C9_11
ROOT
HETATM    1  C1  UNL     1       2.179 165.975 397.850  1.00  0.00     0.017 C
HETATM    2  C2  UNL     1       1.031 165.949 398.210  1.00  0.00    -0.089 C
HETATM    3  C3  UNL     1      -0.373 165.918 398.673  1.00  0.00     0.066 C
HETATM    4  C4  UNL     1      -1.325 166.099 397.824  1.00  0.00     0.039 C
ENDROOT
BRANCH   4   5
HETATM    5  C5  UNL     1      -2.744 166.103 398.080  1.00  0.00     0.050 A
HETATM    6  N1  UNL     1      -3.685 165.344 397.436  1.00  0.00    -0.364 N
HETATM    7  C6  UNL     1      -4.909 165.594 397.921  1.00  0.00     0.097 A
ATOM      8  H1  UNL     1      -3.482 164.680 396.690  1.00  0.00     0.165 HD
HETATM    9  C7  UNL     1      -4.829 166.535 398.911  1.00  0.00    -0.023 A
HETATM   10  C12 UNL     1      -3.456 166.836 398.988  1.00  0.00     0.045 A
HETATM   11 BR1  UNL     1      -2.813 168.128 400.252  1.00  0.00    -0.048 Br
BRANCH   9  12
HETATM   12  C8  UNL     1      -5.914 167.140 399.752  1.00  0.00     0.046 C
BRANCH  12  13
HETATM   13  C9  UNL     1      -6.627 168.237 399.023  1.00  0.00    -0.010 A
HETATM   14  C10 UNL     1      -7.320 169.291 399.836  1.00  0.00     0.005 A
HETATM   15  C11 UNL     1      -8.127 168.214 399.136  1.00  0.00     0.005 A
ENDBRANCH  12  13
ENDBRANCH   9  12
ENDBRANCH   4   5
TORSDOF 3
ENDMDL