MODEL 3
REMARK VINA RESULT: -6.395769844      4.808      7.648
REMARK  3 active torsions:
REMARK  status: ('A' for Active; 'I' for Inactive)
REMARK    1  A    between atoms: C1_2  and  C2_3
REMARK       I    between atoms: C1_2  and  N1_9
REMARK    2  A    between atoms: N1_9  and  C8_11
REMARK    3  A    between atoms: C8_11  and  C9_12
ROOT
HETATM    1  O1  UNL     1      -2.546 167.484 400.191  1.00  0.00    -0.269 OA
HETATM    2  C1  UNL     1      -2.558 166.650 399.201  1.00  0.00     0.241 C
HETATM    3  N1  UNL     1      -3.584 165.703 399.228  1.00  0.00    -0.357 N
ATOM      4  H1  UNL     1      -3.659 165.012 398.481  1.00  0.00     0.162 HD
ENDROOT
BRANCH   2   5
HETATM    5  C2  UNL     1      -1.512 166.830 398.231  1.00  0.00     0.076 C
HETATM    6  C3  UNL     1      -0.343 166.268 398.145  1.00  0.00    -0.075 C
HETATM    7  C4  UNL     1       0.647 166.583 397.036  1.00  0.00     0.034 C
HETATM    8  C7  UNL     1       0.292 165.265 399.020  1.00  0.00     0.034 C
HETATM    9  C5  UNL     1       1.960 166.383 397.746  1.00  0.00     0.005 C
HETATM   10  C6  UNL     1       1.684 165.021 398.403  1.00  0.00     0.005 C
ENDBRANCH   2   5
BRANCH   3  11
HETATM   11  C8  UNL     1      -4.540 165.699 400.309  1.00  0.00     0.128 C
BRANCH  11  12
HETATM   12  C9  UNL     1      -5.858 166.298 399.922  1.00  0.00     0.019 A
HETATM   13  C10 UNL     1      -6.222 166.267 398.479  1.00  0.00     0.023 A
HETATM   14  C11 UNL     1      -5.986 167.567 399.209  1.00  0.00     0.064 A
HETATM   15 BR1  UNL     1      -7.556 168.675 399.558  1.00  0.00    -0.091 Br
ENDBRANCH  11  12
ENDBRANCH   3  11
TORSDOF 3
ENDMDL