MODEL 1
REMARK VINA RESULT: -7.094647978      0.000      0.000
REMARK  4 active torsions:
REMARK  status: ('A' for Active; 'I' for Inactive)
REMARK    1  A    between atoms: C2_2  and  C4_4
REMARK    2  A    between atoms: C4_4  and  C5_5
REMARK    3  A    between atoms: C9_9  and  C10_11
REMARK    4  A    between atoms: C13_14  and  C14_15
ROOT
HETATM    1  C5  UNL     1      -4.139 166.754 399.632  1.00  0.00     0.020 A
HETATM    2  C6  UNL     1      -3.434 166.147 400.860  1.00  0.00     0.034 A
HETATM    3  C7  UNL     1      -2.897 167.392 401.282  1.00  0.00    -0.021 C
HETATM    4  C8  UNL     1      -2.523 168.119 400.238  1.00  0.00     0.014 C
HETATM    5  C9  UNL     1      -2.861 167.277 399.051  1.00  0.00     0.134 C
HETATM    6  F1  UNL     1      -3.068 168.065 397.927  1.00  0.00    -0.237 F
HETATM    7  C13 UNL     1      -4.472 165.485 400.179  1.00  0.00     0.096 A
ENDROOT
BRANCH   1   8
HETATM    8  C4  UNL     1      -5.212 167.774 399.826  1.00  0.00     0.018 C
BRANCH   8   9
HETATM    9  C2  UNL     1      -5.991 168.196 398.651  1.00  0.00    -0.022 C
HETATM   10  C1  UNL     1      -6.284 167.029 397.722  1.00  0.00     0.009 C
HETATM   11  C3  UNL     1      -7.391 168.586 399.186  1.00  0.00     0.009 C
ENDBRANCH   8   9
ENDBRANCH   1   8
BRANCH   5  12
HETATM   12  C10 UNL     1      -1.872 166.265 398.620  1.00  0.00     0.030 A
HETATM   13  C11 UNL     1      -0.392 166.628 398.718  1.00  0.00     0.009 A
HETATM   14  C12 UNL     1      -1.071 166.501 397.361  1.00  0.00     0.009 A
ENDBRANCH   5  12
BRANCH   7  15
HETATM   15  C14 UNL     1      -5.610 165.077 401.010  1.00  0.00     0.236 C
HETATM   16  N1  UNL     1      -5.356 164.553 402.325  1.00  0.00    -0.062 NA
HETATM   17  O1  UNL     1      -6.824 165.147 400.649  1.00  0.00    -0.276 OA
ENDBRANCH   7  15
TORSDOF 4
ENDMDL