MODEL 4
REMARK VINA RESULT: -6.169183210      1.233      1.390
REMARK  2 active torsions:
REMARK  status: ('A' for Active; 'I' for Inactive)
REMARK       I    between atoms: N1_9  and  C7_10
REMARK       I    between atoms: C7_10  and  N2_12
REMARK    1  A    between atoms: N2_12  and  C8_14
REMARK    2  A    between atoms: C8_14  and  C9_15
ROOT
HETATM    1  C1  UNL     1      68.236 140.959 348.249  1.00  0.00     0.032 C
HETATM    2  C2  UNL     1      68.422 141.231 349.747  1.00  0.00     0.090 C
HETATM    3  C3  UNL     1      68.393 142.712 349.945  1.00  0.00     0.104 C
HETATM    4  C4  UNL     1      69.727 143.367 349.993  1.00  0.00     0.247 C
HETATM    5  F1  UNL     1      69.726 144.564 349.264  1.00  0.00    -0.206 F
HETATM    6  F2  UNL     1      70.003 143.759 351.311  1.00  0.00    -0.206 F
HETATM    7  C5  UNL     1      70.867 142.535 349.532  1.00  0.00     0.099 C
HETATM    8  C6  UNL     1      70.871 141.232 350.295  1.00  0.00     0.134 C
HETATM    9  N1  UNL     1      69.577 140.582 350.268  1.00  0.00    -0.330 N
HETATM   10  C7  UNL     1      69.540 139.263 350.789  1.00  0.00     0.318 C
HETATM   11  O1  UNL     1      68.422 138.672 350.778  1.00  0.00    -0.247 OA
HETATM   12  N2  UNL     1      70.647 138.585 351.310  1.00  0.00    -0.343 N
ATOM     13  H2  UNL     1      71.552 139.054 351.323  1.00  0.00     0.164 HD
ENDROOT
BRANCH  12  14
HETATM   14  C8  UNL     1      70.549 137.243 351.828  1.00  0.00     0.129 C
BRANCH  14  15
HETATM   15  C9  UNL     1      71.344 136.252 351.042  1.00  0.00     0.003 A
HETATM   16  C10 UNL     1      70.920 134.835 350.936  1.00  0.00     0.007 A
HETATM   17  C11 UNL     1      72.053 135.203 351.855  1.00  0.00     0.007 A
ENDBRANCH  14  15
ENDBRANCH  12  14
TORSDOF 2
ENDMDL