MODEL 4
REMARK VINA RESULT: -6.435338349      3.140      5.403
REMARK  2 active torsions:
REMARK  status: ('A' for Active; 'I' for Inactive)
REMARK    1  A    between atoms: N2_7  and  C5_8
REMARK    2  A    between atoms: C5_8  and  C7_10
ROOT
HETATM    1  C5  UNL     1      69.795 144.312 351.211  1.00  0.00     0.090 C
HETATM    2  C6  UNL     1      70.578 144.466 352.489  1.00  0.00     0.033 C
ENDROOT
BRANCH   1   3
HETATM    3  N2  UNL     1      70.124 145.265 350.213  1.00  0.00    -0.341 N
HETATM    4  C2  UNL     1      69.271 146.188 349.675  1.00  0.00     0.024 A
HETATM    5  C1  UNL     1      67.849 146.418 349.979  1.00  0.00     0.070 C
HETATM    6  C3  UNL     1      70.024 146.887 348.759  1.00  0.00     0.113 A
HETATM    7  N1  UNL     1      71.277 146.433 348.721  1.00  0.00    -0.360 N
HETATM    8  C4  UNL     1      71.314 145.423 349.635  1.00  0.00     0.183 A
ATOM      9  H1  UNL     1      72.041 146.769 348.136  1.00  0.00     0.166 HD
ENDBRANCH   1   3
BRANCH   1  10
HETATM   10  C7  UNL     1      69.908 142.860 350.800  1.00  0.00     0.009 C
HETATM   11  C8  UNL     1      71.121 142.162 351.338  1.00  0.00     0.012 C
HETATM   12  C9  UNL     1      70.790 140.666 351.361  1.00  0.00     0.079 C
HETATM   13  C10 UNL     1      70.160 140.304 350.059  1.00  0.00     0.243 C
HETATM   14  F1  UNL     1      70.715 139.115 349.626  1.00  0.00    -0.206 F
HETATM   15  F2  UNL     1      68.811 140.086 350.215  1.00  0.00    -0.206 F
HETATM   16  C11 UNL     1      70.370 141.320 348.970  1.00  0.00     0.079 C
HETATM   17  C12 UNL     1      69.589 142.581 349.369  1.00  0.00     0.012 C
ENDBRANCH   1  10
TORSDOF 2
ENDMDL