MODEL 3
REMARK VINA RESULT: -4.973135237      1.593      2.281
REMARK  3 active torsions:
REMARK  status: ('A' for Active; 'I' for Inactive)
REMARK    1  A    between atoms: C2_2  and  C3_3
REMARK    2  A    between atoms: C3_3  and  N1_6
REMARK    3  A    between atoms: N1_6  and  C5_8
ROOT
HETATM    1  N1  UNL     1      69.579 143.405 349.401  1.00  0.00    -0.386 N
ATOM      2  H1  UNL     1      70.334 143.524 348.726  1.00  0.00     0.160 HD
ENDROOT
BRANCH   1   3
HETATM    3  C3  UNL     1      69.008 142.122 349.590  1.00  0.00     0.016 C
HETATM    4  C4  UNL     1      69.638 141.226 350.324  1.00  0.00     0.109 C
HETATM    5 CL1  UNL     1      71.182 141.601 351.077  1.00  0.00    -0.095 Cl
BRANCH   3   6
HETATM    6  C2  UNL     1      67.720 141.816 348.960  1.00  0.00     0.053 C
HETATM    7  C1  UNL     1      67.789 140.669 347.997  1.00  0.00     0.011 C
ENDBRANCH   3   6
ENDBRANCH   1   3
BRANCH   1   8
HETATM    8  C5  UNL     1      69.104 144.550 350.152  1.00  0.00     0.102 A
HETATM    9  C6  UNL     1      68.440 145.607 349.370  1.00  0.00     0.049 A
HETATM   10  C7  UNL     1      69.752 145.872 349.976  1.00  0.00     0.037 A
HETATM   11  C8  UNL     1      69.764 146.818 351.161  1.00  0.00     0.030 C
HETATM   12 BR1  UNL     1      71.347 145.896 348.885  1.00  0.00    -0.084 Br
ENDBRANCH   1   8
TORSDOF 3
ENDMDL