MODEL 1
REMARK VINA RESULT: -4.917862850      0.000      0.000
REMARK  3 active torsions:
REMARK  status: ('A' for Active; 'I' for Inactive)
REMARK    1  A    between atoms: C2_2  and  N1_3
REMARK    2  A    between atoms: C2_2  and  C3_7
REMARK    3  A    between atoms: C7_12  and  C8_13
ROOT
HETATM    1  C3  UNL     1      69.253 142.184 350.690  1.00  0.00     0.047 C
HETATM    2  C4  UNL     1      68.376 142.472 349.464  1.00  0.00     0.035 C
HETATM    3  C5  UNL     1      68.830 141.391 348.502  1.00  0.00     0.106 C
HETATM    4 CL1  UNL     1      67.372 140.735 347.703  1.00  0.00    -0.121 Cl
HETATM    5  C6  UNL     1      69.379 140.341 349.387  1.00  0.00    -0.003 C
HETATM    6  C7  UNL     1      69.620 140.770 350.614  1.00  0.00    -0.066 C
ENDROOT
BRANCH   1   7
HETATM    7  C2  UNL     1      70.420 143.131 350.606  1.00  0.00     0.187 C
HETATM    8  C1  UNL     1      69.976 144.420 349.950  1.00  0.00     0.040 C
BRANCH   7   9
HETATM    9  N1  UNL     1      71.046 143.411 351.851  1.00  0.00    -0.075 N
ATOM     10  H13 UNL     1      71.941 143.886 351.731  1.00  0.00     0.274 HD
ATOM     11  H12 UNL     1      70.558 144.140 352.369  1.00  0.00     0.274 HD
ATOM     12  H11 UNL     1      71.139 142.552 352.394  1.00  0.00     0.274 HD
ENDBRANCH   7   9
ENDBRANCH   1   7
BRANCH   6  13
HETATM   13  C8  UNL     1      70.172 139.996 351.780  1.00  0.00     0.119 C
HETATM   14 BR1  UNL     1      69.803 138.099 351.559  1.00  0.00    -0.092 Br
ENDBRANCH   6  13
TORSDOF 3
ENDMDL