MODEL 4
REMARK VINA RESULT: -5.743271719      0.971      1.760
REMARK  2 active torsions:
REMARK  status: ('A' for Active; 'I' for Inactive)
REMARK       I    between atoms: C1_2  and  N1_3
REMARK    1  A    between atoms: C1_2  and  C3_7
REMARK    2  A    between atoms: N1_3  and  C2_5
ROOT
HETATM    1  C3  UNL     1      70.371 139.788 350.352  1.00  0.00     0.078 C
HETATM    2  C4  UNL     1      70.658 140.632 351.564  1.00  0.00     0.014 C
HETATM    3  C5  UNL     1      71.216 141.949 351.055  1.00  0.00     0.001 C
HETATM    4  C6  UNL     1      70.087 142.689 350.378  1.00  0.00     0.000 C
HETATM    5  C7  UNL     1      69.572 141.872 349.218  1.00  0.00     0.001 C
HETATM    6  C8  UNL     1      69.210 140.466 349.616  1.00  0.00     0.014 C
ENDROOT
BRANCH   1   7
HETATM    7  C1  UNL     1      70.013 138.405 350.669  1.00  0.00     0.222 C
HETATM    8  O1  UNL     1      68.797 138.095 350.686  1.00  0.00    -0.273 OA
HETATM    9  N1  UNL     1      70.985 137.412 350.954  1.00  0.00    -0.351 N
ATOM     10  H1  UNL     1      71.972 137.670 350.938  1.00  0.00     0.163 HD
BRANCH   9  11
HETATM   11  C2  UNL     1      70.627 136.065 351.261  1.00  0.00     0.208 C
HETATM   12 BR1  UNL     1      72.104 135.031 351.948  1.00  0.00    -0.075 Br
ENDBRANCH   9  11
ENDBRANCH   1   7
TORSDOF 2
ENDMDL