MODEL 5
REMARK VINA RESULT: -5.313813464      3.144      4.804
REMARK  3 active torsions:
REMARK  status: ('A' for Active; 'I' for Inactive)
REMARK    1  A    between atoms: C2_2  and  N1_3
REMARK    2  A    between atoms: N1_3  and  C3_4
REMARK    3  A    between atoms: C11_14  and  O1_16
ROOT
HETATM    1  N1  UNL     1      69.486 145.412 350.063  1.00  0.00    -0.031 N
HETATM    2  C9  UNL     1      69.916 146.189 351.226  1.00  0.00     0.246 C
HETATM    3  C10 UNL     1      71.193 146.613 350.565  1.00  0.00     0.096 C
HETATM    4  C11 UNL     1      70.569 145.898 349.359  1.00  0.00     0.226 C
HETATM    5  C12 UNL     1      71.622 145.050 348.739  1.00  0.00     0.079 C
ENDROOT
BRANCH   1   6
HETATM    6  C2  UNL     1      68.223 146.012 349.625  1.00  0.00     0.237 C
HETATM    7  C1  UNL     1      67.220 146.331 350.627  1.00  0.00     0.035 C
ENDBRANCH   1   6
BRANCH   1   8
HETATM    8  C3  UNL     1      69.319 144.004 350.391  1.00  0.00     0.199 C
HETATM    9  C4  UNL     1      68.703 143.200 349.317  1.00  0.00     0.034 C
HETATM   10  C5  UNL     1      69.298 141.830 349.063  1.00  0.00     0.008 C
HETATM   11  C6  UNL     1      69.448 141.208 350.442  1.00  0.00     0.079 C
HETATM   12  C7  UNL     1      70.654 141.939 350.990  1.00  0.00     0.245 C
HETATM   13  F1  UNL     1      71.707 141.628 350.114  1.00  0.00    -0.206 F
HETATM   14  F2  UNL     1      70.987 141.294 352.181  1.00  0.00    -0.206 F
HETATM   15  C8  UNL     1      70.469 143.404 351.132  1.00  0.00     0.112 C
ENDBRANCH   1   8
BRANCH   4  16
HETATM   16  O1  UNL     1      70.227 146.915 348.428  1.00  0.00    -0.365 OA
ATOM     17  H1  UNL     1      70.365 146.660 347.523  1.00  0.00     0.212 HD
ENDBRANCH   4  16
TORSDOF 3
ENDMDL