MODEL 1
REMARK VINA RESULT: -6.228924192      0.000      0.000
REMARK  2 active torsions:
REMARK  status: ('A' for Active; 'I' for Inactive)
REMARK    1  A    between atoms: C2_3  and  C3_4
REMARK    2  A    between atoms: C3_4  and  C4_5
ROOT
HETATM    1  C1  UNL     1      70.637 144.487 352.037  1.00  0.00     0.157 C
HETATM    2  N1  UNL     1      69.897 143.829 350.954  1.00  0.00    -0.343 N
HETATM    3  C2  UNL     1      68.936 144.397 350.212  1.00  0.00     0.084 A
HETATM    4  N2  UNL     1      68.529 143.450 349.345  1.00  0.00    -0.346 N
ATOM      5  H2  UNL     1      67.802 143.573 348.640  1.00  0.00     0.167 HD
HETATM    6  C5  UNL     1      69.223 142.324 349.547  1.00  0.00     0.052 A
HETATM    7  C6  UNL     1      70.095 142.556 350.570  1.00  0.00     0.036 A
HETATM    8  C7  UNL     1      71.013 141.479 351.029  1.00  0.00     0.059 C
HETATM    9  C8  UNL     1      70.353 140.144 351.037  1.00  0.00     0.008 C
HETATM   10  C9  UNL     1      69.208 139.986 350.101  1.00  0.00     0.027 C
HETATM   11  C10 UNL     1      69.246 140.957 348.936  1.00  0.00     0.134 C
HETATM   12 CL2  UNL     1      67.759 140.694 347.998  1.00  0.00    -0.118 Cl
ENDROOT
BRANCH   3  13
HETATM   13  C3  UNL     1      68.490 145.787 350.388  1.00  0.00     0.091 C
BRANCH  13  14
HETATM   14  C4  UNL     1      69.085 146.747 349.418  1.00  0.00     0.122 C
HETATM   15 CL1  UNL     1      70.752 146.410 348.982  1.00  0.00    -0.130 Cl
ENDBRANCH  13  14
ENDBRANCH   3  13
TORSDOF 2
ENDMDL