MODEL 1
REMARK VINA RESULT: -6.313718063      0.000      0.000
REMARK  2 active torsions:
REMARK  status: ('A' for Active; 'I' for Inactive)
REMARK    1  A    between atoms: C2_2  and  C3_3
REMARK       I    between atoms: C3_3  and  N1_5
REMARK    2  A    between atoms: N1_5  and  C4_7
ROOT
HETATM    1  C4  UNL     1      69.070 144.289 349.429  1.00  0.00     0.120 C
HETATM    2  C5  UNL     1      68.444 144.699 350.745  1.00  0.00     0.042 C
HETATM    3  C6  UNL     1      67.909 146.111 350.568  1.00  0.00     0.019 C
HETATM    4  C7  UNL     1      69.198 146.884 350.298  1.00  0.00     0.035 C
HETATM    5  C8  UNL     1      69.553 146.714 348.828  1.00  0.00     0.040 C
HETATM    6  C9  UNL     1      70.128 145.367 349.229  1.00  0.00     0.099 C
HETATM    7 CL1  UNL     1      71.563 144.866 348.368  1.00  0.00    -0.113 Cl
HETATM    8  C10 UNL     1      70.342 145.954 350.609  1.00  0.00     0.153 C
HETATM    9  F1  UNL     1      71.525 146.452 350.924  1.00  0.00    -0.235 F
HETATM   10  C11 UNL     1      69.675 144.991 351.515  1.00  0.00    -0.042 C
HETATM   11  C12 UNL     1      70.086 144.548 352.661  1.00  0.00     0.018 C
ENDROOT
BRANCH   1  12
HETATM   12  N1  UNL     1      69.799 143.043 349.669  1.00  0.00    -0.350 N
HETATM   13  C3  UNL     1      69.208 141.784 349.411  1.00  0.00     0.240 C
HETATM   14  O1  UNL     1      68.035 141.765 348.967  1.00  0.00    -0.269 OA
ATOM     15  H1  UNL     1      70.753 143.084 350.030  1.00  0.00     0.163 HD
BRANCH  13  16
HETATM   16  C2  UNL     1      69.942 140.555 349.655  1.00  0.00     0.064 C
HETATM   17  C1  UNL     1      70.404 140.308 350.870  1.00  0.00     0.017 C
ENDBRANCH  13  16
ENDBRANCH   1  12
TORSDOF 2
ENDMDL