MODEL 1
REMARK VINA RESULT: -6.128017743      0.000      0.000
REMARK  3 active torsions:
REMARK  status: ('A' for Active; 'I' for Inactive)
REMARK    1  A    between atoms: C2_2  and  C4_4
REMARK    2  A    between atoms: C4_4  and  N1_5
REMARK    3  A    between atoms: C6_7  and  C7_8
ROOT
HETATM    1  N1  UNL     1      69.943 141.430 349.701  1.00  0.00    -0.341 N
HETATM    2  C5  UNL     1      70.388 142.610 350.245  1.00  0.00     0.120 A
HETATM    3  C6  UNL     1      69.502 143.624 349.960  1.00  0.00     0.065 A
HETATM    4  N2  UNL     1      68.523 143.048 349.244  1.00  0.00    -0.346 N
ATOM      5  H2  UNL     1      67.702 143.524 348.871  1.00  0.00     0.167 HD
HETATM    6  C9  UNL     1      68.802 141.733 349.098  1.00  0.00     0.079 A
HETATM    7  C10 UNL     1      67.894 140.807 348.378  1.00  0.00     0.089 C
ENDROOT
BRANCH   1   8
HETATM    8  C4  UNL     1      70.636 140.190 349.845  1.00  0.00     0.162 C
BRANCH   8   9
HETATM    9  C2  UNL     1      70.137 139.243 350.835  1.00  0.00    -0.075 C
HETATM   10  C1  UNL     1      70.355 137.934 350.603  1.00  0.00     0.015 C
HETATM   11  C3  UNL     1      69.442 139.553 352.113  1.00  0.00     0.044 C
ENDBRANCH   8   9
ENDBRANCH   1   8
BRANCH   3  12
HETATM   12  C7  UNL     1      69.581 145.057 350.361  1.00  0.00     0.152 C
HETATM   13  C8  UNL     1      69.822 145.149 351.847  1.00  0.00     0.057 C
HETATM   14 CL1  UNL     1      71.031 145.809 349.586  1.00  0.00    -0.095 Cl
HETATM   15 CL2  UNL     1      68.144 145.914 349.858  1.00  0.00    -0.095 Cl
ENDBRANCH   3  12
TORSDOF 3
ENDMDL