MODEL 1
REMARK VINA RESULT: -5.912475715      0.000      0.000
REMARK  2 active torsions:
REMARK  status: ('A' for Active; 'I' for Inactive)
REMARK    1  A    between atoms: C4_4  and  C5_5
REMARK    2  A    between atoms: C5_5  and  C6_6
ROOT
HETATM    1  C6  UNL     1      70.550 142.000 350.420  1.00  0.00    -0.024 A
HETATM    2  C7  UNL     1      71.286 141.548 351.473  1.00  0.00     0.096 A
HETATM    3  N1  UNL     1      70.878 140.290 351.799  1.00  0.00    -0.373 N
ATOM      4  H1  UNL     1      71.261 139.714 352.549  1.00  0.00     0.164 HD
HETATM    5  C8  UNL     1      69.887 139.934 350.963  1.00  0.00     0.107 A
HETATM    6  C9  UNL     1      69.661 140.978 350.094  1.00  0.00     0.034 A
HETATM    7 BR1  UNL     1      68.349 140.949 348.723  1.00  0.00    -0.049 Br
ENDROOT
BRANCH   1   8
HETATM    8  C5  UNL     1      70.578 143.280 349.680  1.00  0.00     0.046 C
BRANCH   8   9
HETATM    9  C4  UNL     1      69.695 144.325 350.323  1.00  0.00    -0.006 A
HETATM   10  C2  UNL     1      69.636 145.693 349.738  1.00  0.00    -0.014 A
HETATM   11  C1  UNL     1      69.387 146.862 350.657  1.00  0.00     0.010 C
HETATM   12  C3  UNL     1      68.508 144.761 349.502  1.00  0.00     0.010 A
ENDBRANCH   8   9
ENDBRANCH   1   8
TORSDOF 2
ENDMDL