MODEL 1
REMARK VINA RESULT: -5.896309445      0.000      0.000
REMARK  4 active torsions:
REMARK  status: ('A' for Active; 'I' for Inactive)
REMARK    1  A    between atoms: O1_2  and  C2_3
REMARK    2  A    between atoms: C2_3  and  C3_5
REMARK    3  A    between atoms: N2_8  and  N3_10
REMARK    4  A    between atoms: N3_10  and  C5_12
ROOT
HETATM    1  C3  UNL     1     -10.995  12.326 -16.063  1.00  0.00     0.204 C
HETATM    2  C4  UNL     1      -9.868  11.656 -16.670  1.00  0.00     0.125 C
HETATM    3  N1  UNL     1      -8.962  11.126 -17.142  1.00  0.00    -0.190 NA
HETATM    4  N2  UNL     1     -11.139  13.601 -16.265  1.00  0.00    -0.285 N
ATOM      5  H2  UNL     1     -11.934  14.072 -15.832  1.00  0.00     0.188 HD
ENDROOT
BRANCH   1   6
HETATM    6  C2  UNL     1     -11.948  11.628 -15.249  1.00  0.00     0.322 C
HETATM    7  O2  UNL     1     -12.816  10.859 -15.758  1.00  0.00    -0.257 OA
BRANCH   6   8
HETATM    8  O1  UNL     1     -11.934  11.784 -13.884  1.00  0.00    -0.321 OA
HETATM    9  C1  UNL     1     -11.402  10.838 -12.986  1.00  0.00     0.213 C
ENDBRANCH   6   8
ENDBRANCH   1   6
BRANCH   4  10
HETATM   10  N3  UNL     1     -10.278  14.347 -17.029  1.00  0.00    -0.300 N
ATOM     11  H3  UNL     1      -9.273  14.208 -16.938  1.00  0.00     0.187 HD
BRANCH  10  12
HETATM   12  C5  UNL     1     -10.772  15.304 -17.940  1.00  0.00     0.048 A
HETATM   13  C6  UNL     1     -10.656  16.671 -17.728  1.00  0.00     0.031 A
HETATM   14  C7  UNL     1     -11.151  17.606 -18.608  1.00  0.00     0.002 A
HETATM   15  C8  UNL     1     -11.793  17.198 -19.754  1.00  0.00     0.000 A
HETATM   16  C9  UNL     1     -11.933  15.851 -20.007  1.00  0.00     0.002 A
HETATM   17  C10 UNL     1     -11.427  14.935 -19.110  1.00  0.00     0.031 A
ENDBRANCH  10  12
ENDBRANCH   4  10
TORSDOF 4
ENDMDL