MODEL 1
REMARK VINA RESULT: -5.588572076      0.000      0.000
REMARK  5 active torsions:
REMARK  status: ('A' for Active; 'I' for Inactive)
REMARK    1  A    between atoms: O1_1  and  N1_3
REMARK    2  A    between atoms: N1_3  and  C1_5
REMARK    3  A    between atoms: C4_8  and  C5_9
REMARK    4  A    between atoms: C5_9  and  N2_11
REMARK    5  A    between atoms: N2_11  and  N3_13
ROOT
HETATM    1  C1  UNL     1     -11.204   9.359 -12.887  1.00  0.00     0.054 A
HETATM    2  C2  UNL     1     -10.680   8.951 -14.098  1.00  0.00     0.032 A
HETATM    3  C3  UNL     1     -10.452   9.861 -15.111  1.00  0.00     0.017 A
HETATM    4  C4  UNL     1     -10.745  11.215 -14.937  1.00  0.00     0.004 A
HETATM    5  C6  UNL     1     -11.270  11.633 -13.730  1.00  0.00     0.017 A
HETATM    6  C7  UNL     1     -11.488  10.702 -12.734  1.00  0.00     0.032 A
ENDROOT
BRANCH   4   7
HETATM    7  C5  UNL     1     -10.514  12.192 -15.988  1.00  0.00     0.130 C
HETATM    8  S1  UNL     1      -9.426  11.826 -17.144  1.00  0.00    -0.058 SA
BRANCH   7   9
HETATM    9  N2  UNL     1     -11.173  13.440 -16.071  1.00  0.00    -0.230 N
ATOM     10  H2  UNL     1     -10.783  14.258 -15.601  1.00  0.00     0.194 HD
BRANCH   9  11
HETATM   11  N3  UNL     1     -12.368  13.550 -16.804  1.00  0.00    -0.038 N
HETATM   12  O2  UNL     1     -12.366  13.832 -18.019  1.00  0.00    -0.516 OA
HETATM   13  O3  UNL     1     -13.563  13.341 -16.166  1.00  0.00    -0.516 OA
ENDBRANCH   9  11
ENDBRANCH   7   9
ENDBRANCH   4   7
BRANCH   1  14
HETATM   14  N1  UNL     1     -11.444   8.413 -11.828  1.00  0.00    -0.269 N
ATOM     15  H1  UNL     1     -12.316   8.439 -11.299  1.00  0.00     0.194 HD
BRANCH  14  16
HETATM   16  O1  UNL     1     -10.569   7.560 -11.564  1.00  0.00    -0.289 OA
ATOM     17  H1  UNL     1     -10.465   6.812 -12.141  1.00  0.00     0.244 HD
ENDBRANCH  14  16
ENDBRANCH   1  14
TORSDOF 5
ENDMDL