MODEL 4
REMARK VINA RESULT: -5.671049748      1.653      2.735
REMARK  5 active torsions:
REMARK  status: ('A' for Active; 'I' for Inactive)
REMARK    1  A    between atoms: N3_6  and  N4_8
REMARK    2  A    between atoms: N4_8  and  C4_10
REMARK    3  A    between atoms: C8_14  and  N5_15
REMARK    4  A    between atoms: N5_15  and  N6_17
REMARK    5  A    between atoms: N6_17  and  N7_18
ROOT
HETATM    1  N1  UNL     1     -12.802  12.130 -15.768  1.00  0.00    -0.189 NA
HETATM    2  C1  UNL     1     -11.732  12.199 -16.253  1.00  0.00     0.130 C
HETATM    3  C2  UNL     1     -10.423  12.271 -16.822  1.00  0.00     0.209 C
HETATM    4  C3  UNL     1      -9.651  11.095 -17.099  1.00  0.00     0.130 C
HETATM    5  N2  UNL     1      -9.020  10.130 -17.328  1.00  0.00    -0.189 NA
HETATM    6  N3  UNL     1      -9.917  13.413 -17.094  1.00  0.00    -0.282 N
ATOM      7  H3  UNL     1      -8.983  13.474 -17.500  1.00  0.00     0.188 HD
ENDROOT
BRANCH   6   8
HETATM    8  N4  UNL     1     -10.643  14.575 -16.836  1.00  0.00    -0.299 N
ATOM      9  H4  UNL     1     -10.889  14.802 -15.873  1.00  0.00     0.187 HD
BRANCH   8  10
HETATM   10  C4  UNL     1     -11.051  15.454 -17.885  1.00  0.00     0.050 A
HETATM   11  C5  UNL     1     -11.065  16.801 -17.684  1.00  0.00     0.031 A
HETATM   12  C6  UNL     1     -11.463  17.659 -18.693  1.00  0.00     0.005 A
HETATM   13  C7  UNL     1     -11.855  17.152 -19.924  1.00  0.00     0.032 A
HETATM   14  C8  UNL     1     -11.846  15.792 -20.142  1.00  0.00     0.065 A
HETATM   15  C9  UNL     1     -11.447  14.962 -19.127  1.00  0.00     0.062 A
BRANCH  14  16
HETATM   16  N5  UNL     1     -12.241  15.249 -21.394  1.00  0.00    -0.217 N
ATOM     17  H5  UNL     1     -13.042  15.658 -21.876  1.00  0.00     0.203 HD
BRANCH  16  18
HETATM   18  N6  UNL     1     -11.655  14.305 -21.920  1.00  0.00    -0.243 NA
BRANCH  18  19
HETATM   19  N7  UNL     1     -10.802  13.635 -22.510  1.00  0.00    -0.260 N
ATOM     20  H72 UNL     1     -10.545  14.366 -23.174  1.00  0.00     0.193 HD
ATOM     21  H71 UNL     1     -10.190  12.865 -22.780  1.00  0.00     0.193 HD
ENDBRANCH  18  19
ENDBRANCH  16  18
ENDBRANCH  14  16
ENDBRANCH   8  10
ENDBRANCH   6   8
TORSDOF 5
ENDMDL