MODEL 3
REMARK VINA RESULT: -6.043917945      1.985      4.870
REMARK  3 active torsions:
REMARK  status: ('A' for Active; 'I' for Inactive)
REMARK    1  A    between atoms: N1_2  and  C1_4
REMARK    2  A    between atoms: C6_9  and  N2_10
REMARK    3  A    between atoms: N2_10  and  N3_12
ROOT
HETATM    1  C1  UNL     1     -11.560  15.063 -19.204  1.00  0.00     0.130 A
HETATM    2  C2  UNL     1     -11.821  16.340 -19.768  1.00  0.00     0.038 A
HETATM    3  C3  UNL     1     -11.393  17.459 -19.111  1.00  0.00     0.003 A
HETATM    4  C4  UNL     1     -10.715  17.360 -17.912  1.00  0.00     0.002 A
HETATM    5  C5  UNL     1     -10.447  16.143 -17.345  1.00  0.00     0.033 A
HETATM    6  C6  UNL     1     -10.885  14.987 -18.019  1.00  0.00     0.081 A
ENDROOT
BRANCH   6   7
HETATM    7  N2  UNL     1     -10.609  13.765 -17.364  1.00  0.00    -0.293 N
ATOM      8  H2  UNL     1      -9.895  13.148 -17.752  1.00  0.00     0.187 HD
BRANCH   7   9
HETATM    9  N3  UNL     1     -11.274  13.377 -16.216  1.00  0.00    -0.278 N
HETATM   10  C7  UNL     1     -10.949  12.427 -15.323  1.00  0.00     0.115 A
HETATM   11  C8  UNL     1     -11.898  12.368 -14.315  1.00  0.00     0.021 A
HETATM   12  C9  UNL     1     -12.848  13.322 -14.599  1.00  0.00     0.021 A
HETATM   13  C10 UNL     1     -12.442  13.925 -15.766  1.00  0.00     0.115 A
ENDBRANCH   7   9
ENDBRANCH   6   7
BRANCH   1  14
HETATM   14  N1  UNL     1     -12.104  13.948 -19.847  1.00  0.00    -0.113 N
HETATM   15  O1  UNL     1     -12.068  12.760 -19.627  1.00  0.00    -0.532 OA
HETATM   16  O2  UNL     1     -12.880  14.257 -21.006  1.00  0.00    -0.532 OA
ENDBRANCH   1  14
TORSDOF 3
ENDMDL