MODEL 5
REMARK VINA RESULT: -5.553628324      1.780      3.053
REMARK  4 active torsions:
REMARK  status: ('A' for Active; 'I' for Inactive)
REMARK    1  A    between atoms: C1_4  and  O1_5
REMARK    2  A    between atoms: C1_4  and  C7_14
REMARK    3  A    between atoms: O1_5  and  N2_6
REMARK    4  A    between atoms: C2_8  and  C3_9
ROOT
HETATM    1  N1  UNL     1     -10.298  11.751 -16.073  1.00  0.00    -0.376 N
ATOM      2  H11 UNL     1      -9.944  10.801 -16.180  1.00  0.00     0.158 HD
ATOM      3  H12 UNL     1     -10.122  12.471 -16.774  1.00  0.00     0.158 HD
HETATM    4  C1  UNL     1     -10.972  11.989 -15.010  1.00  0.00     0.198 C
ENDROOT
BRANCH   4   5
HETATM    5  O1  UNL     1     -11.458  13.294 -14.862  1.00  0.00    -0.218 OA
BRANCH   5   6
HETATM    6  N2  UNL     1     -12.795  13.564 -14.732  1.00  0.00    -0.268 N
HETATM    7  C2  UNL     1     -13.405  14.128 -15.711  1.00  0.00     0.151 C
ATOM      8  H2  UNL     1     -13.295  13.322 -13.876  1.00  0.00     0.194 HD
BRANCH   7   9
HETATM    9  C3  UNL     1     -12.674  14.466 -16.927  1.00  0.00     0.092 A
HETATM   10  C4  UNL     1     -12.245  15.740 -17.282  1.00  0.00     0.040 A
HETATM   11  C5  UNL     1     -11.590  15.652 -18.500  1.00  0.00     0.027 A
HETATM   12  C6  UNL     1     -11.659  14.298 -18.825  1.00  0.00     0.142 A
HETATM   13  O2  UNL     1     -12.289  13.670 -17.888  1.00  0.00    -0.321 OA
ENDBRANCH   7   9
ENDBRANCH   5   6
ENDBRANCH   4   5
BRANCH   4  14
HETATM   14  C7  UNL     1     -11.223  10.962 -14.009  1.00  0.00     0.127 A
HETATM   15  C8  UNL     1     -10.778   9.664 -14.119  1.00  0.00     0.043 A
HETATM   16  C9  UNL     1     -11.205   8.977 -12.978  1.00  0.00     0.027 A
HETATM   17  C10 UNL     1     -11.896   9.933 -12.241  1.00  0.00     0.142 A
HETATM   18  O3  UNL     1     -11.881  11.078 -12.882  1.00  0.00    -0.318 OA
ENDBRANCH   4  14
TORSDOF 4
ENDMDL