MODEL 2
REMARK VINA RESULT: -4.792227932      2.671      6.273
REMARK  3 active torsions:
REMARK  status: ('A' for Active; 'I' for Inactive)
REMARK    1  A    between atoms: C3_4  and  N1_5
REMARK    2  A    between atoms: N1_5  and  O1_7
REMARK    3  A    between atoms: O1_7  and  N2_8
ROOT
HETATM    1  N1  UNL     1     -11.632  14.540 -18.930  1.00  0.00    -0.240 N
ATOM      2  H1  UNL     1     -10.651  14.260 -18.929  1.00  0.00     0.197 HD
ENDROOT
BRANCH   1   3
HETATM    3  C3  UNL     1     -12.054  15.549 -19.839  1.00  0.00     0.096 A
HETATM    4  S1  UNL     1     -12.711  15.370 -21.405  1.00  0.00    -0.083 SA
HETATM    5  C2  UNL     1     -12.940  17.015 -21.800  1.00  0.00     0.052 A
HETATM    6  C1  UNL     1     -12.491  17.657 -20.681  1.00  0.00     0.010 A
HETATM    7  C8  UNL     1     -12.036  16.909 -19.673  1.00  0.00     0.039 A
ENDBRANCH   1   3
BRANCH   1   8
HETATM    8  O1  UNL     1     -12.477  13.943 -18.073  1.00  0.00    -0.182 OA
BRANCH   8   9
HETATM    9  N2  UNL     1     -12.158  14.181 -16.784  1.00  0.00    -0.170 NA
HETATM   10  C4  UNL     1     -13.222  13.720 -15.961  1.00  0.00     0.133 C
HETATM   11  C5  UNL     1     -12.855  13.584 -14.498  1.00  0.00     0.090 C
HETATM   12  S2  UNL     1     -11.690  12.163 -14.431  1.00  0.00    -0.167 SA
HETATM   13  C6  UNL     1     -10.794  12.273 -16.032  1.00  0.00     0.090 C
HETATM   14  C7  UNL     1     -10.858  13.731 -16.436  1.00  0.00     0.133 C
ENDBRANCH   8   9
ENDBRANCH   1   8
TORSDOF 3
ENDMDL