MODEL 4
REMARK VINA RESULT: -5.895231691      0.160      2.184
REMARK  5 active torsions:
REMARK  status: ('A' for Active; 'I' for Inactive)
REMARK    1  A    between atoms: C2_3  and  N3_6
REMARK    2  A    between atoms: N3_6  and  N4_8
REMARK    3  A    between atoms: N4_8  and  C4_10
REMARK    4  A    between atoms: C7_13  and  N5_14
REMARK    5  A    between atoms: N5_14  and  N6_16
ROOT
HETATM    1  N1  UNL     1     -12.113  13.547 -19.657  1.00  0.00    -0.189 NA
HETATM    2  C1  UNL     1     -11.584  14.075 -18.776  1.00  0.00     0.130 C
HETATM    3  C2  UNL     1     -10.932  14.727 -17.685  1.00  0.00     0.209 C
HETATM    4  C3  UNL     1     -10.701  16.138 -17.652  1.00  0.00     0.130 C
HETATM    5  N2  UNL     1     -10.494  17.296 -17.638  1.00  0.00    -0.189 NA
ENDROOT
BRANCH   3   6
HETATM    6  N3  UNL     1     -10.533  14.028 -16.691  1.00  0.00    -0.282 N
ATOM      7  H3  UNL     1     -10.266  14.496 -15.825  1.00  0.00     0.188 HD
BRANCH   6   8
HETATM    8  N4  UNL     1     -10.456  12.645 -16.770  1.00  0.00    -0.299 N
ATOM      9  H4  UNL     1     -10.202  12.181 -17.642  1.00  0.00     0.187 HD
BRANCH   8  10
HETATM   10  C4  UNL     1     -10.745  11.895 -15.595  1.00  0.00     0.048 A
HETATM   11  C5  UNL     1     -10.362  10.569 -15.498  1.00  0.00     0.033 A
HETATM   12  C6  UNL     1     -10.630   9.813 -14.373  1.00  0.00     0.033 A
HETATM   13  C7  UNL     1     -11.293  10.336 -13.284  1.00  0.00     0.049 A
HETATM   14  C8  UNL     1     -11.669  11.659 -13.399  1.00  0.00     0.033 A
HETATM   15  C9  UNL     1     -11.411  12.421 -14.504  1.00  0.00     0.033 A
BRANCH  13  16
HETATM   16  N5  UNL     1     -11.610   9.646 -12.097  1.00  0.00    -0.287 N
ATOM     17  H5  UNL     1     -12.071  10.143 -11.336  1.00  0.00     0.188 HD
BRANCH  16  18
HETATM   18  N6  UNL     1     -11.334   8.433 -11.961  1.00  0.00    -0.249 N
HETATM   19  N7  UNL     1     -10.612   7.517 -11.625  1.00  0.00    -0.331 N
ATOM     20  H72 UNL     1      -9.806   8.027 -11.262  1.00  0.00     0.178 HD
ATOM     21  H71 UNL     1     -10.387   6.528 -11.514  1.00  0.00     0.178 HD
ATOM     22  H6  UNL     1     -12.158   7.960 -12.333  1.00  0.00     0.207 HD
ENDBRANCH  16  18
ENDBRANCH  13  16
ENDBRANCH   8  10
ENDBRANCH   6   8
ENDBRANCH   3   6
TORSDOF 5
ENDMDL