MODEL 5
REMARK VINA RESULT: -5.285393068      2.830      6.491
REMARK  3 active torsions:
REMARK  status: ('A' for Active; 'I' for Inactive)
REMARK    1  A    between atoms: C4_6  and  C5_7
REMARK    2  A    between atoms: N3_8  and  N4_10
REMARK    3  A    between atoms: N4_10  and  C6_12
ROOT
HETATM    1  N1  UNL     1     -12.119  13.015 -20.056  1.00  0.00    -0.191 NA
HETATM    2  C1  UNL     1     -11.533  13.813 -19.419  1.00  0.00     0.111 C
HETATM    3  C2  UNL     1     -10.846  14.806 -18.659  1.00  0.00     0.126 C
HETATM    4  C3  UNL     1     -11.106  16.230 -18.916  1.00  0.00     0.111 C
HETATM    5  N2  UNL     1     -11.305  17.354 -19.097  1.00  0.00    -0.191 NA
HETATM    6  C4  UNL     1      -9.986  14.490 -17.731  1.00  0.00     0.052 C
ENDROOT
BRANCH   6   7
HETATM    7  C5  UNL     1      -9.615  13.143 -17.350  1.00  0.00     0.109 C
HETATM    8  N3  UNL     1     -10.293  12.492 -16.489  1.00  0.00    -0.311 N
ATOM      9  H3  UNL     1     -11.108  12.946 -16.076  1.00  0.00     0.186 HD
BRANCH   8  10
HETATM   10  N4  UNL     1      -9.987  11.201 -16.082  1.00  0.00    -0.294 N
ATOM     11  H4  UNL     1      -9.401  10.602 -16.663  1.00  0.00     0.187 HD
BRANCH  10  12
HETATM   12  C6  UNL     1     -10.500  10.724 -14.845  1.00  0.00     0.088 A
HETATM   13  C7  UNL     1     -10.968  11.427 -13.766  1.00  0.00     0.039 A
HETATM   14  C8  UNL     1     -11.407  10.735 -12.710  1.00  0.00     0.010 A
HETATM   15  C9  UNL     1     -11.363   9.368 -12.778  1.00  0.00     0.052 A
HETATM   16  S1  UNL     1     -10.702   9.086 -14.321  1.00  0.00    -0.083 SA
ENDBRANCH  10  12
ENDBRANCH   8  10
ENDBRANCH   6   7
TORSDOF 3
ENDMDL