MODEL 5
REMARK VINA RESULT: -5.520563780      1.777      2.314
REMARK  3 active torsions:
REMARK  status: ('A' for Active; 'I' for Inactive)
REMARK    1  A    between atoms: N1_2  and  C1_4
REMARK    2  A    between atoms: C4_8  and  N2_9
REMARK    3  A    between atoms: N2_9  and  C5_11
ROOT
HETATM    1  C1  UNL     1     -10.452  11.014 -15.469  1.00  0.00     0.241 A
HETATM    2  O3  UNL     1     -10.675  10.550 -14.239  1.00  0.00    -0.299 OA
HETATM    3  C2  UNL     1     -11.536  11.294 -13.604  1.00  0.00     0.147 A
HETATM    4  C3  UNL     1     -11.910  12.309 -14.453  1.00  0.00     0.058 A
HETATM    5  C4  UNL     1     -11.219  12.143 -15.660  1.00  0.00     0.090 A
ENDROOT
BRANCH   5   6
HETATM    6  N2  UNL     1     -11.323  12.985 -16.802  1.00  0.00    -0.360 N
ATOM      7  H2  UNL     1     -11.498  12.588 -17.724  1.00  0.00     0.162 HD
BRANCH   6   8
HETATM    8  C5  UNL     1     -11.177  14.417 -16.635  1.00  0.00     0.220 C
HETATM    9  C6  UNL     1     -10.398  14.961 -17.787  1.00  0.00     0.054 C
HETATM   10  C7  UNL     1     -10.302  16.469 -17.605  1.00  0.00     0.006 C
HETATM   11  C8  UNL     1     -11.704  17.010 -17.686  1.00  0.00     0.026 C
HETATM   12  C9  UNL     1     -12.724  15.908 -17.494  1.00  0.00     0.170 C
HETATM   13  O4  UNL     1     -12.406  15.051 -16.471  1.00  0.00    -0.367 OA
ENDBRANCH   6   8
ENDBRANCH   5   6
BRANCH   1  14
HETATM   14  N1  UNL     1      -9.565  10.433 -16.423  1.00  0.00    -0.088 N
HETATM   15  O1  UNL     1      -9.421   9.231 -16.605  1.00  0.00    -0.530 OA
HETATM   16  O2  UNL     1      -8.811  11.311 -17.199  1.00  0.00    -0.530 OA
ENDBRANCH   1  14
TORSDOF 3
ENDMDL