MODEL 4
REMARK VINA RESULT: -5.077998060      2.603      4.660
REMARK  4 active torsions:
REMARK  status: ('A' for Active; 'I' for Inactive)
REMARK    1  A    between atoms: O1_1  and  N1_3
REMARK    2  A    between atoms: N1_3  and  C1_5
REMARK    3  A    between atoms: C4_9  and  N2_10
REMARK    4  A    between atoms: N2_10  and  N3_12
ROOT
HETATM    1  C1  UNL     1     -11.789  16.154 -19.394  1.00  0.00     0.210 A
HETATM    2  O2  UNL     1     -11.206  17.353 -19.290  1.00  0.00    -0.302 OA
HETATM    3  C2  UNL     1     -10.654  17.500 -18.112  1.00  0.00     0.147 A
HETATM    4  C3  UNL     1     -10.861  16.366 -17.374  1.00  0.00     0.060 A
HETATM    5  C4  UNL     1     -11.587  15.510 -18.199  1.00  0.00     0.104 A
ENDROOT
BRANCH   5   6
HETATM    6  N2  UNL     1     -12.046  14.238 -17.817  1.00  0.00    -0.291 N
ATOM      7  H2  UNL     1     -12.367  13.614 -18.557  1.00  0.00     0.187 HD
BRANCH   6   8
HETATM    8  N3  UNL     1     -12.098  13.762 -16.513  1.00  0.00    -0.278 N
HETATM    9  C5  UNL     1     -13.094  13.997 -15.607  1.00  0.00     0.115 A
HETATM   10  C6  UNL     1     -12.817  13.395 -14.408  1.00  0.00     0.021 A
HETATM   11  C7  UNL     1     -11.615  12.759 -14.552  1.00  0.00     0.021 A
HETATM   12  C8  UNL     1     -11.222  13.009 -15.836  1.00  0.00     0.115 A
ENDBRANCH   6   8
ENDBRANCH   5   6
BRANCH   1  13
HETATM   13  N1  UNL     1     -12.483  15.688 -20.557  1.00  0.00    -0.159 N
HETATM   14  S1  UNL     1     -12.985  16.763 -21.658  1.00  0.00     0.077 SA
BRANCH  13  15
HETATM   15  O1  UNL     1     -12.735  14.360 -20.768  1.00  0.00    -0.274 OA
ATOM     16  H1  UNL     1     -12.556  13.742 -20.069  1.00  0.00     0.246 HD
ENDBRANCH  13  15
ENDBRANCH   1  13
TORSDOF 4
ENDMDL