MODEL 2
REMARK VINA RESULT: -5.310996791      1.714      7.260
REMARK  6 active torsions:
REMARK  status: ('A' for Active; 'I' for Inactive)
REMARK    1  A    between atoms: N1_2  and  C3_4
REMARK    2  A    between atoms: C3_4  and  C4_5
REMARK    3  A    between atoms: C4_5  and  C5_6
REMARK    4  A    between atoms: C6_7  and  C7_8
REMARK    5  A    between atoms: C10_14  and  N3_15
REMARK    6  A    between atoms: N3_15  and  C12_17
ROOT
HETATM    1  C7  UNL     1     -10.367  12.597 -16.330  1.00  0.00     0.106 A
HETATM    2  C8  UNL     1      -9.737  11.698 -17.163  1.00  0.00     0.082 A
HETATM    3  C9  UNL     1      -9.587  10.387 -16.817  1.00  0.00     0.122 A
HETATM    4 CL1  UNL     1      -8.780   9.219 -17.871  1.00  0.00    -0.064 Cl
HETATM    5  N2  UNL     1     -10.071   9.980 -15.629  1.00  0.00    -0.181 N
ATOM      6  H2  UNL     1      -9.970   9.004 -15.351  1.00  0.00     0.185 HD
HETATM    7  C10 UNL     1     -10.691  10.848 -14.800  1.00  0.00     0.682 A
HETATM    8  N4  UNL     1     -10.832  12.141 -15.155  1.00  0.00    -0.184 N
ATOM      9  H4  UNL     1     -11.300  12.785 -14.518  1.00  0.00     0.185 HD
ENDROOT
BRANCH   1  10
HETATM   10  C6  UNL     1     -10.525  13.973 -16.702  1.00  0.00    -0.048 C
HETATM   11  C5  UNL     1     -10.680  15.133 -17.025  1.00  0.00    -0.098 C
BRANCH  11  12
HETATM   12  C4  UNL     1     -10.897  16.545 -17.405  1.00  0.00     0.114 C
BRANCH  12  13
HETATM   13  C3  UNL     1     -12.286  16.755 -17.953  1.00  0.00     0.133 C
BRANCH  13  14
HETATM   14  N1  UNL     1     -12.332  16.627 -19.365  1.00  0.00    -0.403 N
HETATM   15  C1  UNL     1     -12.178  17.647 -20.104  1.00  0.00     0.114 C
HETATM   16  C2  UNL     1     -12.550  15.343 -20.001  1.00  0.00     0.148 C
ENDBRANCH  13  14
ENDBRANCH  12  13
ENDBRANCH  11  12
ENDBRANCH   1  10
BRANCH   7  17
HETATM   17  N3  UNL     1     -11.186  10.344 -13.568  1.00  0.00    -0.218 N
HETATM   18  C11 UNL     1     -11.404  11.272 -12.502  1.00  0.00     0.169 C
BRANCH  17  19
HETATM   19  C12 UNL     1     -11.450   8.924 -13.464  1.00  0.00     0.093 C
HETATM   20  C13 UNL     1     -12.910   8.640 -13.233  1.00  0.00     0.032 C
HETATM   21  C14 UNL     1     -10.660   8.271 -12.356  1.00  0.00     0.032 C
ENDBRANCH  17  19
ENDBRANCH   7  17
TORSDOF 6
ENDMDL