MODEL 4
REMARK VINA RESULT: -5.003157215      2.667      5.692
REMARK  4 active torsions:
REMARK  status: ('A' for Active; 'I' for Inactive)
REMARK    1  A    between atoms: C2_2  and  N1_4
REMARK    2  A    between atoms: C5_6  and  C6_7
REMARK    3  A    between atoms: C6_7  and  N2_8
REMARK    4  A    between atoms: C9_11  and  C10_12
ROOT
HETATM    1  N1  UNL     1     -11.343  15.337 -18.121  1.00  0.00     0.112 N
HETATM    2  C4  UNL     1     -11.166  15.034 -16.712  1.00  0.00     0.281 C
HETATM    3  C5  UNL     1     -11.563  13.551 -16.724  1.00  0.00     0.052 C
HETATM    4  C9  UNL     1     -10.974  13.020 -17.974  1.00  0.00     0.073 C
HETATM    5  C14 UNL     1     -10.506  14.284 -18.707  1.00  0.00     0.325 C
HETATM    6 CL1  UNL     1      -8.835  14.636 -18.186  1.00  0.00    -0.091 Cl
ENDROOT
BRANCH   4   7
HETATM    7  C10 UNL     1      -9.826  12.075 -17.796  1.00  0.00     0.164 A
HETATM    8  O1  UNL     1      -9.573  11.453 -19.144  1.00  0.00    -0.369 OA
HETATM    9  C11 UNL     1     -10.049  10.670 -18.024  1.00  0.00     0.081 A
HETATM   10  C12 UNL     1     -11.481  10.190 -18.127  1.00  0.00     0.048 C
HETATM   11  C13 UNL     1      -9.064   9.581 -17.701  1.00  0.00     0.048 C
ENDBRANCH   4   7
BRANCH   3  12
HETATM   12  C6  UNL     1     -11.132  12.865 -15.456  1.00  0.00     0.278 C
BRANCH  12  13
HETATM   13  N2  UNL     1     -12.308  12.323 -14.832  1.00  0.00     0.080 N
HETATM   14  C7  UNL     1     -12.211  10.942 -14.477  1.00  0.00     0.309 C
HETATM   15  C8  UNL     1     -12.824  13.107 -13.758  1.00  0.00     0.309 C
ENDBRANCH  12  13
ENDBRANCH   3  12
BRANCH   1  16
HETATM   16  C2  UNL     1     -10.849  16.620 -18.501  1.00  0.00     0.217 C
HETATM   17  C1  UNL     1     -10.607  17.505 -17.328  1.00  0.00     0.042 C
HETATM   18  C3  UNL     1     -11.899  17.228 -19.444  1.00  0.00     0.042 C
ENDBRANCH   1  16
TORSDOF 4
ENDMDL