MODEL 2
REMARK VINA RESULT: -5.189880156      3.460      5.130
REMARK  4 active torsions:
REMARK  status: ('A' for Active; 'I' for Inactive)
REMARK    1  A    between atoms: C2_2  and  C3_3
REMARK    2  A    between atoms: C3_3  and  C4_4
REMARK    3  A    between atoms: C4_4  and  C5_5
REMARK    4  A    between atoms: C5_5  and  C6_6
ROOT
HETATM    1  C4  UNL     1     -11.219  14.046 -17.223  1.00  0.00     0.096 C
HETATM    2  C8  UNL     1     -11.031  13.014 -18.330  1.00  0.00     0.237 C
HETATM    3  O1  UNL     1     -11.783  13.420 -19.406  1.00  0.00    -0.225 OA
HETATM    4  O2  UNL     1     -13.037  13.552 -19.029  1.00  0.00    -0.131 OA
HETATM    5  S1  UNL     1     -12.919  14.504 -17.617  1.00  0.00     0.196 S
HETATM    6  O3  UNL     1     -13.974  13.822 -16.500  1.00  0.00    -0.225 OA
ENDROOT
BRANCH   1   7
HETATM    7  C3  UNL     1     -10.303  15.213 -17.372  1.00  0.00     0.054 C
BRANCH   7   8
HETATM    8  C2  UNL     1     -11.004  16.465 -17.740  1.00  0.00    -0.035 C
HETATM    9  C1  UNL     1     -10.484  17.630 -17.398  1.00  0.00     0.007 C
ENDBRANCH   7   8
ENDBRANCH   1   7
BRANCH   1  10
HETATM   10  C5  UNL     1     -11.111  13.465 -15.858  1.00  0.00     0.055 C
BRANCH  10  11
HETATM   11  C6  UNL     1     -10.369  12.180 -15.963  1.00  0.00    -0.018 C
HETATM   12  C7  UNL     1     -10.384  11.347 -14.941  1.00  0.00     0.052 C
HETATM   13 BR1  UNL     1     -11.332  11.768 -13.361  1.00  0.00    -0.064 Br
ENDBRANCH  10  11
ENDBRANCH   1  10
TORSDOF 4
ENDMDL