MODEL 1
REMARK VINA RESULT: -4.213539091      0.000      0.000
REMARK  4 active torsions:
REMARK  status: ('A' for Active; 'I' for Inactive)
REMARK    1  A    between atoms: N1_2  and  C3_4
REMARK    2  A    between atoms: C3_4  and  C4_5
REMARK    3  A    between atoms: C4_5  and  S1_6
REMARK    4  A    between atoms: S1_6  and  C5_7
ROOT
HETATM    1  C5  UNL     1     -12.859  13.466 -16.035  1.00  0.00     0.113 A
HETATM    2  N2  UNL     1     -13.834  14.212 -16.301  1.00  0.00    -0.353 N
ATOM      3  H2  UNL     1     -14.766  13.960 -15.971  1.00  0.00     0.166 HD
HETATM    4  C6  UNL     1     -13.660  15.365 -17.031  1.00  0.00     0.116 A
HETATM    5  C7  UNL     1     -12.455  15.651 -17.432  1.00  0.00     0.069 A
HETATM    6 BR1  UNL     1     -11.857  17.116 -18.430  1.00  0.00    -0.042 Br
HETATM    7  S2  UNL     1     -11.459  14.316 -16.818  1.00  0.00    -0.056 SA
ENDROOT
BRANCH   1   8
HETATM    8  S1  UNL     1     -12.748  11.934 -15.129  1.00  0.00    -0.103 SA
BRANCH   8   9
HETATM    9  C4  UNL     1     -11.195  11.878 -14.210  1.00  0.00     0.111 C
BRANCH   9  10
HETATM   10  C3  UNL     1     -11.395  11.402 -12.788  1.00  0.00     0.282 C
BRANCH  10  11
HETATM   11  N1  UNL     1     -11.317   9.982 -12.669  1.00  0.00     0.080 N
HETATM   12  C1  UNL     1     -10.629   9.296 -13.710  1.00  0.00     0.309 C
HETATM   13  C2  UNL     1     -12.555   9.346 -12.332  1.00  0.00     0.309 C
ENDBRANCH  10  11
ENDBRANCH   9  10
ENDBRANCH   8   9
ENDBRANCH   1   8
TORSDOF 4
ENDMDL