MODEL 5
REMARK VINA RESULT: -4.351178257      2.431      4.282
REMARK  4 active torsions:
REMARK  status: ('A' for Active; 'I' for Inactive)
REMARK    1  A    between atoms: O1_2  and  C2_3
REMARK    2  A    between atoms: C6_8  and  C7_9
REMARK    3  A    between atoms: C7_9  and  N1_10
REMARK    4  A    between atoms: C10_13  and  O2_14
ROOT
HETATM    1  C2  UNL     1      -9.935  13.045 -18.329  1.00  0.00     0.103 A
HETATM    2  C3  UNL     1     -10.929  13.993 -18.323  1.00  0.00     0.058 A
HETATM    3  C4  UNL     1     -11.728  14.189 -17.219  1.00  0.00     0.014 A
HETATM    4 BR1  UNL     1     -13.086  15.544 -17.326  1.00  0.00    -0.051 Br
HETATM    5  C5  UNL     1     -11.552  13.435 -16.080  1.00  0.00     0.034 A
HETATM    6  C6  UNL     1     -10.570  12.484 -16.058  1.00  0.00     0.017 A
HETATM    7  C10 UNL     1      -9.776  12.302 -17.178  1.00  0.00     0.113 A
ENDROOT
BRANCH   6   8
HETATM    8  C7  UNL     1     -10.303  11.655 -14.897  1.00  0.00     0.099 C
BRANCH   8   9
HETATM    9  N1  UNL     1     -11.384  11.047 -14.227  1.00  0.00    -0.398 N
HETATM   10  C8  UNL     1     -11.866   9.807 -14.719  1.00  0.00     0.148 C
HETATM   11  C9  UNL     1     -11.374  11.193 -12.806  1.00  0.00     0.148 C
ENDBRANCH   8   9
ENDBRANCH   6   8
BRANCH   7  12
HETATM   12  O2  UNL     1      -8.767  11.348 -17.201  1.00  0.00    -0.352 OA
HETATM   13  C11 UNL     1      -9.102  10.061 -17.679  1.00  0.00     0.210 C
ENDBRANCH   7  12
BRANCH   1  14
HETATM   14  O1  UNL     1      -9.153  12.877 -19.453  1.00  0.00    -0.353 OA
HETATM   15  C1  UNL     1      -9.681  13.267 -20.701  1.00  0.00     0.210 C
ENDBRANCH   1  14
TORSDOF 4
ENDMDL