MODEL 4
REMARK VINA RESULT: -5.457130652      1.814      2.752
REMARK  4 active torsions:
REMARK  status: ('A' for Active; 'I' for Inactive)
REMARK    1  A    between atoms: C2_2  and  C3_3
REMARK    2  A    between atoms: C5_7  and  C6_8
REMARK    3  A    between atoms: C6_8  and  N2_9
REMARK    4  A    between atoms: N2_9  and  S1_11
ROOT
HETATM    1  C3  UNL     1     -10.801  10.129 -14.238  1.00  0.00     0.001 A
HETATM    2  C4  UNL     1     -10.204  10.536 -15.404  1.00  0.00     0.101 A
HETATM    3  N1  UNL     1     -10.454  11.732 -15.920  1.00  0.00    -0.367 N
ATOM      4  H1  UNL     1      -9.992  12.013 -16.785  1.00  0.00     0.165 HD
HETATM    5  C5  UNL     1     -11.329  12.601 -15.304  1.00  0.00     0.030 A
HETATM    6  C9  UNL     1     -11.918  12.206 -14.146  1.00  0.00    -0.016 A
HETATM    7  C10 UNL     1     -12.816  13.192 -13.465  1.00  0.00     0.052 C
HETATM    8  C11 UNL     1     -11.678  10.975 -13.576  1.00  0.00     0.053 A
HETATM    9 CL1  UNL     1     -12.395  10.594 -12.045  1.00  0.00    -0.083 Cl
ENDROOT
BRANCH   5  10
HETATM   10  C6  UNL     1     -11.691  13.815 -16.028  1.00  0.00     0.164 C
BRANCH  10  11
HETATM   11  N2  UNL     1     -11.100  13.929 -17.324  1.00  0.00    -0.210 NA
HETATM   12  C7  UNL     1     -10.712  15.370 -17.380  1.00  0.00     0.129 C
BRANCH  11  13
HETATM   13  S1  UNL     1     -11.973  13.598 -18.691  1.00  0.00     0.207 S
HETATM   14  C8  UNL     1     -11.188  13.845 -20.250  1.00  0.00     0.180 C
HETATM   15  O1  UNL     1     -12.372  12.118 -18.605  1.00  0.00    -0.212 OA
HETATM   16  O2  UNL     1     -13.321  14.316 -18.733  1.00  0.00    -0.212 OA
ENDBRANCH  11  13
ENDBRANCH  10  11
ENDBRANCH   5  10
BRANCH   1  17
HETATM   17  C2  UNL     1     -10.508   8.800 -13.705  1.00  0.00     0.004 C
HETATM   18  C1  UNL     1      -9.782   7.913 -14.321  1.00  0.00     0.012 C
ENDBRANCH   1  17
TORSDOF 4
ENDMDL