MODEL 2
REMARK VINA RESULT: -5.006613704      1.791      2.382
REMARK  4 active torsions:
REMARK  status: ('A' for Active; 'I' for Inactive)
REMARK    1  A    between atoms: C2_2  and  N1_3
REMARK    2  A    between atoms: N1_3  and  C3_4
REMARK    3  A    between atoms: N1_3  and  C10_15
REMARK    4  A    between atoms: C8_12  and  C9_13
ROOT
HETATM    1  C3  UNL     1     -12.413  15.039 -17.560  1.00  0.00     0.099 C
HETATM    2  C4  UNL     1     -11.686  14.058 -17.122  1.00  0.00     0.037 C
HETATM    3  C5  UNL     1     -10.341  13.598 -17.338  1.00  0.00     0.256 C
HETATM    4  O1  UNL     1      -9.363  14.301 -17.648  1.00  0.00    -0.267 OA
HETATM    5  N2  UNL     1     -10.328  12.163 -17.123  1.00  0.00    -0.312 N
HETATM    6  C6  UNL     1      -9.181  11.303 -17.238  1.00  0.00     0.160 C
HETATM    7  C7  UNL     1     -11.661  11.781 -16.784  1.00  0.00     0.092 C
HETATM    8  S1  UNL     1     -12.372  10.361 -17.057  1.00  0.00    -0.064 SA
HETATM    9  C8  UNL     1     -12.232  13.008 -16.136  1.00  0.00     0.101 C
ENDROOT
BRANCH   1  10
HETATM   10  N1  UNL     1     -12.245  16.096 -18.435  1.00  0.00    -0.390 N
BRANCH  10  11
HETATM   11  C2  UNL     1     -12.167  15.994 -19.848  1.00  0.00     0.118 C
HETATM   12  C1  UNL     1     -12.544  17.278 -20.572  1.00  0.00     0.026 C
ENDBRANCH  10  11
BRANCH  10  13
HETATM   13  C10 UNL     1     -12.049  17.419 -17.831  1.00  0.00     0.118 C
HETATM   14  C11 UNL     1     -10.586  17.550 -17.480  1.00  0.00     0.026 C
ENDBRANCH  10  13
ENDBRANCH   1  10
BRANCH   9  15
HETATM   15  C9  UNL     1     -11.561  13.167 -14.811  1.00  0.00     0.131 C
HETATM   16 CL1  UNL     1     -12.879  13.259 -13.589  1.00  0.00    -0.129 Cl
ENDBRANCH   9  15
TORSDOF 4
ENDMDL