MODEL 3
REMARK VINA RESULT: -5.876760344      2.737      3.942
REMARK  4 active torsions:
REMARK  status: ('A' for Active; 'I' for Inactive)
REMARK    1  A    between atoms: C5_5  and  O1_6
REMARK    2  A    between atoms: C5_5  and  C6_8
REMARK    3  A    between atoms: C6_8  and  N1_10
REMARK       I    between atoms: N1_10  and  C8_12
REMARK    4  A    between atoms: C8_12  and  C9_14
ROOT
HETATM    1  C1  UNL     1     -10.500  17.210 -16.861  1.00  0.00     0.017 C
HETATM    2  C2  UNL     1     -10.544  16.022 -16.851  1.00  0.00    -0.080 C
HETATM    3  C3  UNL     1     -10.615  14.607 -16.821  1.00  0.00     0.022 C
HETATM    4  C4  UNL     1      -9.458  13.797 -17.262  1.00  0.00     0.061 C
HETATM    5  C5  UNL     1     -11.701  13.981 -16.402  1.00  0.00     0.080 C
ENDROOT
BRANCH   5   6
HETATM    6  O1  UNL     1     -12.791  14.729 -15.986  1.00  0.00    -0.362 OA
ATOM      7  H1  UNL     1     -13.520  14.288 -15.565  1.00  0.00     0.217 HD
ENDBRANCH   5   6
BRANCH   5   8
HETATM    8  C6  UNL     1     -11.820  12.504 -16.353  1.00  0.00     0.138 C
HETATM    9  C7  UNL     1     -13.239  12.118 -16.722  1.00  0.00     0.039 C
BRANCH   8  10
HETATM   10  N1  UNL     1     -11.471  11.976 -15.051  1.00  0.00    -0.351 N
HETATM   11  C8  UNL     1     -10.922  10.694 -14.829  1.00  0.00     0.223 C
HETATM   12  O2  UNL     1     -10.743  10.005 -15.899  1.00  0.00    -0.273 OA
ATOM     13  H1  UNL     1     -11.634  12.571 -14.239  1.00  0.00     0.163 HD
BRANCH  11  14
HETATM   14  C9  UNL     1     -10.555  10.108 -13.551  1.00  0.00     0.086 A
HETATM   15  C10 UNL     1     -11.453  10.499 -12.368  1.00  0.00     0.024 A
HETATM   16  C11 UNL     1     -11.330   9.062 -12.841  1.00  0.00    -0.035 A
HETATM   17  C12 UNL     1     -10.594   8.203 -11.827  1.00  0.00     0.015 C
HETATM   18  C13 UNL     1     -12.575   8.448 -13.379  1.00  0.00     0.015 C
ENDBRANCH  11  14
ENDBRANCH   8  10
ENDBRANCH   5   8
TORSDOF 4
ENDMDL