MODEL 2
REMARK VINA RESULT: -6.341293087      1.816      5.403
REMARK  3 active torsions:
REMARK  status: ('A' for Active; 'I' for Inactive)
REMARK    1  A    between atoms: C2_2  and  N1_3
REMARK    2  A    between atoms: C2_2  and  C12_15
REMARK       I    between atoms: N1_3  and  C3_5
REMARK    3  A    between atoms: C3_5  and  C4_7
ROOT
HETATM    1  N1  UNL     1     -11.104  15.066 -16.465  1.00  0.00    -0.348 N
ATOM      2  H1  UNL     1     -11.577  15.498 -15.672  1.00  0.00     0.163 HD
HETATM    3  C3  UNL     1     -10.610  13.740 -16.328  1.00  0.00     0.223 C
HETATM    4  O1  UNL     1     -10.031  13.231 -17.320  1.00  0.00    -0.273 OA
ENDROOT
BRANCH   3   5
HETATM    5  C4  UNL     1     -10.772  13.004 -15.090  1.00  0.00     0.090 C
HETATM    6  C5  UNL     1     -10.094  11.671 -15.088  1.00  0.00     0.000 C
HETATM    7  C6  UNL     1     -10.618  11.036 -13.792  1.00  0.00     0.011 C
HETATM    8  C8  UNL     1     -11.103  10.762 -15.772  1.00  0.00     0.011 C
HETATM    9  C7  UNL     1     -11.952  11.097 -14.535  1.00  0.00    -0.005 C
HETATM   10  C9  UNL     1     -12.214  12.558 -14.797  1.00  0.00    -0.032 C
HETATM   11  C10 UNL     1     -13.094  12.646 -15.999  1.00  0.00     0.016 C
HETATM   12  C11 UNL     1     -12.742  13.302 -13.619  1.00  0.00     0.016 C
ENDBRANCH   3   5
BRANCH   1  13
HETATM   13  C2  UNL     1     -10.957  15.826 -17.688  1.00  0.00     0.169 C
HETATM   14  C1  UNL     1     -10.300  17.145 -17.264  1.00  0.00     0.042 C
BRANCH  13  15
HETATM   15  C12 UNL     1     -12.296  16.103 -18.242  1.00  0.00     0.253 C
HETATM   16  N2  UNL     1     -13.197  15.056 -18.614  1.00  0.00    -0.060 NA
HETATM   17  O2  UNL     1     -12.642  17.302 -18.387  1.00  0.00    -0.275 OA
ENDBRANCH  13  15
ENDBRANCH   1  13
TORSDOF 3
ENDMDL