MODEL 3
REMARK VINA RESULT: -5.148784626      1.167      1.380
REMARK  3 active torsions:
REMARK  status: ('A' for Active; 'I' for Inactive)
REMARK    1  A    between atoms: N1_2  and  C2_3
REMARK       I    between atoms: N1_2  and  C6_12
REMARK    2  A    between atoms: C2_3  and  C3_4
REMARK    3  A    between atoms: C6_12  and  C7_14
ROOT
HETATM    1  C2  UNL     1     -12.559  13.496 -15.117  1.00  0.00     0.183 C
ENDROOT
BRANCH   1   2
HETATM    2  N1  UNL     1     -11.755  14.228 -16.076  1.00  0.00    -0.350 N
HETATM    3  C1  UNL     1     -10.352  13.872 -16.156  1.00  0.00     0.153 C
HETATM    4  C6  UNL     1     -12.296  15.228 -16.888  1.00  0.00     0.227 C
HETATM    5  O2  UNL     1     -13.546  15.467 -16.748  1.00  0.00    -0.273 OA
BRANCH   4   6
HETATM    6  C7  UNL     1     -11.578  16.039 -17.892  1.00  0.00     0.030 C
HETATM    7  C8  UNL     1     -10.978  15.241 -18.996  1.00  0.00     0.025 C
HETATM    8  C9  UNL     1     -12.528  17.042 -18.565  1.00  0.00     0.025 C
HETATM    9  C10 UNL     1     -10.490  16.856 -17.229  1.00  0.00     0.025 C
ENDBRANCH   4   6
ENDBRANCH   1   2
BRANCH   1  10
HETATM   10  C3  UNL     1     -12.684  12.077 -15.436  1.00  0.00     0.047 A
HETATM   11  C4  UNL     1     -13.409  11.555 -16.480  1.00  0.00     0.119 A
HETATM   12  N2  UNL     1     -13.279  10.217 -16.441  1.00  0.00    -0.317 N
HETATM   13  C5  UNL     1     -12.495   9.933 -15.398  1.00  0.00     0.324 A
ATOM     14  H2  UNL     1     -13.699   9.547 -17.084  1.00  0.00     0.170 HD
HETATM   15  O1  UNL     1     -12.164   8.747 -15.067  1.00  0.00    -0.247 OA
HETATM   16  N3  UNL     1     -12.126  11.059 -14.777  1.00  0.00    -0.309 N
ATOM     17  H3  UNL     1     -11.528  11.128 -13.952  1.00  0.00     0.170 HD
ENDBRANCH   1  10
TORSDOF 3
ENDMDL