MODEL 4
REMARK VINA RESULT: -5.057319280      2.518      3.584
REMARK  3 active torsions:
REMARK  status: ('A' for Active; 'I' for Inactive)
REMARK    1  A    between atoms: C2_2  and  N1_3
REMARK    2  A    between atoms: N1_3  and  C3_4
REMARK    3  A    between atoms: N1_3  and  S1_15
ROOT
HETATM    1  C3  UNL     1     -11.038  12.352 -15.275  1.00  0.00     0.141 A
HETATM    2  N2  UNL     1     -10.193  11.288 -15.417  1.00  0.00    -0.283 N
ATOM      3  H2  UNL     1      -9.629  11.099 -16.246  1.00  0.00     0.188 HD
HETATM    4  N3  UNL     1     -10.209  10.541 -14.328  1.00  0.00    -0.284 N
ATOM      5  H3  UNL     1      -9.664   9.691 -14.189  1.00  0.00     0.188 HD
HETATM    6  C4  UNL     1     -11.054  11.075 -13.434  1.00  0.00     0.123 A
HETATM    7  N4  UNL     1     -11.353  10.652 -12.249  1.00  0.00    -0.384 N
ATOM      8  H41 UNL     1     -11.996  11.058 -11.569  1.00  0.00     0.157 HD
ATOM      9  H42 UNL     1     -10.969   9.814 -11.815  1.00  0.00     0.157 HD
HETATM   10  C5  UNL     1     -11.585  12.231 -14.034  1.00  0.00     0.029 A
HETATM   11  C6  UNL     1     -12.559  13.099 -13.354  1.00  0.00     0.056 C
ENDROOT
BRANCH   1  12
HETATM   12  N1  UNL     1     -11.251  13.341 -16.250  1.00  0.00    -0.260 N
BRANCH  12  13
HETATM   13  C2  UNL     1     -10.256  14.358 -16.465  1.00  0.00     0.138 C
HETATM   14  C1  UNL     1      -9.217  14.044 -17.480  1.00  0.00     0.028 C
ENDBRANCH  12  13
BRANCH  12  15
HETATM   15  S1  UNL     1     -12.667  13.334 -17.211  1.00  0.00     0.230 S
HETATM   16  C7  UNL     1     -13.389  14.925 -17.445  1.00  0.00     0.186 C
HETATM   17  O1  UNL     1     -13.734  12.444 -16.635  1.00  0.00    -0.206 OA
HETATM   18  O2  UNL     1     -12.307  12.715 -18.554  1.00  0.00    -0.206 OA
ENDBRANCH  12  15
ENDBRANCH   1  12
TORSDOF 3
ENDMDL