MODEL 5
REMARK VINA RESULT: -5.049982764      2.918      5.912
REMARK  3 active torsions:
REMARK  status: ('A' for Active; 'I' for Inactive)
REMARK    1  A    between atoms: C2_2  and  N1_4
REMARK       I    between atoms: N1_4  and  C4_6
REMARK       I    between atoms: C4_6  and  N2_8
REMARK    2  A    between atoms: C5_9  and  C6_10
REMARK    3  A    between atoms: C7_13  and  C8_14
ROOT
HETATM    1  N1  UNL     1     -11.818  10.823 -14.258  1.00  0.00    -0.339 N
ATOM      2  H1  UNL     1     -11.332  10.362 -15.028  1.00  0.00     0.164 HD
HETATM    3  C4  UNL     1     -12.091  12.211 -14.352  1.00  0.00     0.319 C
HETATM    4  O1  UNL     1     -12.702  12.730 -13.358  1.00  0.00    -0.247 OA
HETATM    5  N2  UNL     1     -11.713  12.983 -15.479  1.00  0.00    -0.311 N
HETATM    6  C5  UNL     1     -11.720  14.332 -16.099  1.00  0.00     0.202 A
HETATM    7  C7  UNL     1     -11.109  13.125 -16.764  1.00  0.00     0.125 A
ENDROOT
BRANCH   6   8
HETATM    8  C6  UNL     1     -13.014  14.803 -16.651  1.00  0.00     0.256 C
HETATM    9  N3  UNL     1     -14.099  13.892 -16.629  1.00  0.00    -0.060 NA
HETATM   10  O2  UNL     1     -13.093  15.972 -17.110  1.00  0.00    -0.274 OA
ENDBRANCH   6   8
BRANCH   7  11
HETATM   11  C8  UNL     1      -9.629  13.180 -16.934  1.00  0.00     0.003 C
HETATM   12  C9  UNL     1      -9.236  13.394 -18.386  1.00  0.00     0.011 C
HETATM   13  C10 UNL     1      -8.937  11.961 -16.355  1.00  0.00     0.011 C
ENDBRANCH   7  11
BRANCH   1  14
HETATM   14  C2  UNL     1     -12.200  10.049 -13.120  1.00  0.00     0.078 C
HETATM   15  C1  UNL     1     -11.132  10.017 -12.043  1.00  0.00     0.032 C
HETATM   16  C3  UNL     1     -12.487   8.587 -13.476  1.00  0.00     0.032 C
ENDBRANCH   1  14
TORSDOF 3
ENDMDL