MODEL 4
REMARK VINA RESULT: -4.798675618      1.702      2.960
REMARK  4 active torsions:
REMARK  status: ('A' for Active; 'I' for Inactive)
REMARK    1  A    between atoms: C2_2  and  C4_4
REMARK    2  A    between atoms: C4_4  and  N1_5
REMARK    3  A    between atoms: C4_4  and  C9_14
REMARK       I    between atoms: N1_5  and  C5_7
REMARK       I    between atoms: C5_7  and  N2_9
REMARK    4  A    between atoms: N2_9  and  C6_11
REMARK       I    between atoms: C9_14  and  N3_16
ROOT
HETATM    1  C4  UNL     1     -11.723  12.000 -15.704  1.00  0.00     0.206 C
ENDROOT
BRANCH   1   2
HETATM    2  C2  UNL     1     -11.653  12.066 -14.208  1.00  0.00    -0.061 C
HETATM    3  C1  UNL     1     -12.513  12.848 -13.520  1.00  0.00     0.016 C
HETATM    4  C3  UNL     1     -10.671  11.298 -13.395  1.00  0.00     0.045 C
ENDBRANCH   1   2
BRANCH   1   5
HETATM    5  N1  UNL     1     -10.822  13.029 -16.211  1.00  0.00    -0.326 N
HETATM    6  C5  UNL     1     -11.373  14.296 -16.591  1.00  0.00     0.317 C
HETATM    7  O1  UNL     1     -12.602  14.526 -16.506  1.00  0.00    -0.247 OA
HETATM    8  N2  UNL     1     -10.542  15.330 -17.076  1.00  0.00    -0.339 N
ATOM      9  H2  UNL     1      -9.535  15.192 -17.157  1.00  0.00     0.164 HD
ATOM     10  H1  UNL     1      -9.822  12.850 -16.293  1.00  0.00     0.165 HD
BRANCH   8  11
HETATM   11  C6  UNL     1     -11.145  16.593 -17.456  1.00  0.00     0.078 C
HETATM   12  C7  UNL     1     -11.411  16.667 -18.936  1.00  0.00     0.032 C
HETATM   13  C8  UNL     1     -10.216  17.698 -16.977  1.00  0.00     0.032 C
ENDBRANCH   8  11
ENDBRANCH   1   5
BRANCH   1  14
HETATM   14  C9  UNL     1     -11.291  10.680 -16.168  1.00  0.00     0.246 C
HETATM   15  O2  UNL     1     -10.067  10.589 -16.538  1.00  0.00    -0.271 OA
HETATM   16  N3  UNL     1     -12.100   9.514 -16.246  1.00  0.00    -0.359 N
HETATM   17  C10 UNL     1     -11.489   8.263 -16.700  1.00  0.00     0.152 C
HETATM   18  C11 UNL     1     -13.501   9.447 -15.942  1.00  0.00     0.152 C
ENDBRANCH   1  14
TORSDOF 4
ENDMDL