MODEL 2
REMARK VINA RESULT: -5.564919390      2.270      5.195
REMARK  5 active torsions:
REMARK  status: ('A' for Active; 'I' for Inactive)
REMARK    1  A    between atoms: C2_2  and  C3_3
REMARK    2  A    between atoms: C3_3  and  N1_4
REMARK    3  A    between atoms: C3_3  and  C9_15
REMARK    4  A    between atoms: N1_4  and  C4_6
REMARK    5  A    between atoms: C9_15  and  C10_17
ROOT
HETATM    1  N1  UNL     1     -11.213  13.449 -16.148  1.00  0.00    -0.363 N
ATOM      2  H1  UNL     1     -10.731  14.333 -15.982  1.00  0.00     0.162 HD
ENDROOT
BRANCH   1   3
HETATM    3  C3  UNL     1     -11.344  13.200 -17.518  1.00  0.00     0.161 C
BRANCH   3   4
HETATM    4  C2  UNL     1      -9.997  13.181 -18.244  1.00  0.00     0.029 C
HETATM    5  C1  UNL     1      -8.977  14.051 -17.549  1.00  0.00     0.007 C
ENDBRANCH   3   4
BRANCH   3   6
HETATM    6  C9  UNL     1     -12.232  14.231 -18.118  1.00  0.00     0.216 C
HETATM    7  O1  UNL     1     -12.607  14.085 -19.310  1.00  0.00    -0.287 OA
BRANCH   6   8
HETATM    8  C10 UNL     1     -12.707  15.411 -17.422  1.00  0.00     0.193 C
HETATM    9  C11 UNL     1     -12.172  16.765 -17.707  1.00  0.00     0.100 C
HETATM   10  O2  UNL     1     -13.596  15.338 -16.542  1.00  0.00    -0.290 OA
ENDBRANCH   6   8
ENDBRANCH   3   6
ENDBRANCH   1   3
BRANCH   1  11
HETATM   11  C4  UNL     1     -11.515  12.901 -15.084  1.00  0.00     0.124 A
HETATM   12  N2  UNL     1     -12.507  13.331 -14.267  1.00  0.00    -0.285 N
HETATM   13  N3  UNL     1     -12.594  12.553 -13.215  1.00  0.00    -0.303 N
ATOM     14  H2  UNL     1     -13.099  14.143 -14.443  1.00  0.00     0.188 HD
HETATM   15  C5  UNL     1     -11.667  11.584 -13.298  1.00  0.00     0.031 A
ATOM     16  H3  UNL     1     -13.261  12.665 -12.452  1.00  0.00     0.186 HD
HETATM   17  C6  UNL     1     -11.410  10.494 -12.333  1.00  0.00     0.070 C
HETATM   18  C7  UNL     1     -10.980  11.800 -14.482  1.00  0.00     0.007 A
HETATM   19  C8  UNL     1      -9.859  10.911 -14.922  1.00  0.00     0.054 C
ENDBRANCH   1  11
TORSDOF 5
ENDMDL