MODEL 5
REMARK VINA RESULT: -5.726064057      1.717      2.155
REMARK  3 active torsions:
REMARK  status: ('A' for Active; 'I' for Inactive)
REMARK    1  A    between atoms: C5_5  and  C7_7
REMARK       I    between atoms: C7_7  and  N1_9
REMARK    2  A    between atoms: N1_9  and  C8_11
REMARK    3  A    between atoms: C10_13  and  C11_14
ROOT
HETATM    1  C7  UNL     1     -10.786  13.546 -16.416  1.00  0.00     0.227 C
HETATM    2  O1  UNL     1     -10.521  14.538 -15.636  1.00  0.00    -0.273 OA
HETATM    3  N1  UNL     1     -10.995  12.257 -15.897  1.00  0.00    -0.356 N
ATOM      4  H1  UNL     1     -11.258  11.490 -16.517  1.00  0.00     0.162 HD
ENDROOT
BRANCH   3   5
HETATM    5  C8  UNL     1     -10.840  12.030 -14.512  1.00  0.00     0.086 C
HETATM    6  C9  UNL     1     -11.957  11.787 -13.562  1.00  0.00     0.039 C
HETATM    7  C10 UNL     1     -10.927  10.878 -12.817  1.00  0.00     0.079 C
HETATM    8  C12 UNL     1     -10.364  10.602 -14.182  1.00  0.00     0.039 C
BRANCH   7   9
HETATM    9  C11 UNL     1     -11.510   9.816 -12.061  1.00  0.00     0.235 C
HETATM   10  N2  UNL     1     -10.862   8.571 -11.918  1.00  0.00    -0.062 NA
HETATM   11  O2  UNL     1     -12.613   9.968 -11.503  1.00  0.00    -0.277 OA
ENDBRANCH   7   9
ENDBRANCH   3   5
BRANCH   1  12
HETATM   12  C5  UNL     1     -10.823  13.929 -17.852  1.00  0.00     0.045 A
HETATM   13  C2  UNL     1     -11.951  14.789 -18.307  1.00  0.00    -0.030 A
HETATM   14  C1  UNL     1     -11.646  15.955 -19.227  1.00  0.00     0.016 C
HETATM   15  C3  UNL     1     -13.130  15.041 -17.362  1.00  0.00     0.016 C
HETATM   16  C4  UNL     1     -11.886  13.396 -18.765  1.00  0.00     0.029 A
HETATM   17  C6  UNL     1      -9.459  13.943 -18.516  1.00  0.00     0.026 C
ENDBRANCH   1  12
TORSDOF 3
ENDMDL