MODEL 5
REMARK VINA RESULT: -5.945653422      2.087      3.492
REMARK  3 active torsions:
REMARK  status: ('A' for Active; 'I' for Inactive)
REMARK    1  A    between atoms: C2_2  and  C3_3
REMARK    2  A    between atoms: C5_5  and  C6_6
REMARK    3  A    between atoms: C11_13  and  C13_15
ROOT
HETATM    1  C3  UNL     1     -10.989  13.475 -16.352  1.00  0.00     0.019 C
HETATM    2  C4  UNL     1     -10.879  14.968 -16.134  1.00  0.00     0.002 C
HETATM    3  C5  UNL     1     -10.848  15.431 -17.396  1.00  0.00     0.010 C
HETATM    4  C7  UNL     1     -10.943  14.167 -18.202  1.00  0.00     0.051 C
HETATM    5  C8  UNL     1      -9.964  13.308 -17.434  1.00  0.00    -0.023 C
HETATM    6  C9  UNL     1      -9.658  11.954 -17.944  1.00  0.00     0.017 C
HETATM    7  C10 UNL     1      -8.656  14.070 -17.202  1.00  0.00     0.017 C
HETATM    8  C11 UNL     1     -12.041  13.488 -17.418  1.00  0.00     0.058 C
HETATM    9  C12 UNL     1     -13.167  14.455 -17.029  1.00  0.00     0.027 C
ENDROOT
BRANCH   8  10
HETATM   10  C13 UNL     1     -12.603  12.257 -17.910  1.00  0.00     0.241 C
HETATM   11  N2  UNL     1     -13.291  11.331 -17.086  1.00  0.00    -0.061 NA
HETATM   12  O2  UNL     1     -12.492  11.964 -19.127  1.00  0.00    -0.276 OA
ENDBRANCH   8  10
BRANCH   1  13
HETATM   13  C2  UNL     1     -11.052  12.624 -15.236  1.00  0.00    -0.021 C
HETATM   14  C1  UNL     1     -11.748  12.987 -14.138  1.00  0.00     0.008 C
ENDBRANCH   1  13
BRANCH   3  15
HETATM   15  C6  UNL     1     -10.750  16.786 -17.867  1.00  0.00     0.261 C
HETATM   16  N1  UNL     1     -11.422  17.171 -19.058  1.00  0.00    -0.058 NA
HETATM   17  O1  UNL     1     -10.061  17.598 -17.195  1.00  0.00    -0.271 OA
ENDBRANCH   3  15
TORSDOF 3
ENDMDL