MODEL 2
REMARK VINA RESULT: -6.131126244      2.373      5.935
REMARK  3 active torsions:
REMARK  status: ('A' for Active; 'I' for Inactive)
REMARK    1  A    between atoms: C1_2  and  N1_3
REMARK    2  A    between atoms: C1_2  and  N3_13
REMARK    3  A    between atoms: N1_3  and  N2_5
ROOT
HETATM    1  N1  UNL     1      -9.742  13.109 -17.312  1.00  0.00    -0.276 N
ATOM      2  H1  UNL     1      -8.820  13.487 -17.093  1.00  0.00     0.189 HD
ENDROOT
BRANCH   1   3
HETATM    3  C1  UNL     1     -10.278  12.069 -16.509  1.00  0.00     0.188 C
HETATM    4  S1  UNL     1      -9.629  10.570 -16.700  1.00  0.00    -0.039 SA
BRANCH   3   5
HETATM    5  N3  UNL     1     -11.326  12.300 -15.580  1.00  0.00    -0.357 N
HETATM    6  C8  UNL     1     -11.246  12.422 -14.150  1.00  0.00     0.125 C
HETATM    7  C9  UNL     1     -12.522  13.157 -13.727  1.00  0.00     0.021 C
HETATM    8  C10 UNL     1     -13.108  13.637 -15.045  1.00  0.00     0.021 C
HETATM    9  C11 UNL     1     -12.714  12.458 -15.946  1.00  0.00     0.125 C
ENDBRANCH   3   5
ENDBRANCH   1   3
BRANCH   1  10
HETATM   10  N2  UNL     1     -10.450  13.618 -18.387  1.00  0.00    -0.307 N
HETATM   11  C2  UNL     1     -10.952  14.800 -18.315  1.00  0.00     0.004 C
HETATM   12  C3  UNL     1     -11.693  15.257 -19.521  1.00  0.00     0.054 C
HETATM   13  C7  UNL     1     -10.772  15.591 -17.103  1.00  0.00     0.054 C
HETATM   14  C4  UNL     1     -12.333  16.600 -19.272  1.00  0.00     0.006 C
HETATM   15  C5  UNL     1     -11.239  17.477 -18.650  1.00  0.00     0.001 C
HETATM   16  C6  UNL     1     -11.088  17.038 -17.230  1.00  0.00     0.006 C
ATOM     17  H2  UNL     1     -10.573  13.060 -19.232  1.00  0.00     0.186 HD
ENDBRANCH   1  10
TORSDOF 3
ENDMDL