MODEL 2
REMARK VINA RESULT: -5.448332366      1.464      1.551
REMARK  1 active torsions:
REMARK  status: ('A' for Active; 'I' for Inactive)
REMARK    1  A    between atoms: C2_2  and  N1_3
REMARK       I    between atoms: N1_3  and  C3_5
REMARK       I    between atoms: C3_5  and  N2_7
ROOT
HETATM    1  N1  UNL     1     -12.679  15.481 -21.768  1.00  0.00    -0.343 N
ATOM      2  H1  UNL     1     -12.333  14.554 -21.518  1.00  0.00     0.164 HD
HETATM    3  C3  UNL     1     -12.633  16.502 -20.779  1.00  0.00     0.318 C
HETATM    4  O1  UNL     1     -13.077  17.643 -21.144  1.00  0.00    -0.247 OA
HETATM    5  N2  UNL     1     -12.129  16.281 -19.471  1.00  0.00    -0.329 N
HETATM    6  C4  UNL     1     -12.132  17.390 -18.553  1.00  0.00     0.153 C
HETATM    7  C5  UNL     1     -11.438  16.998 -17.290  1.00  0.00     0.189 C
HETATM    8  O2  UNL     1     -11.943  15.758 -16.913  1.00  0.00    -0.377 OA
HETATM    9  C6  UNL     1     -11.356  14.731 -17.696  1.00  0.00     0.077 C
HETATM   10  C7  UNL     1     -12.015  13.469 -17.244  1.00  0.00     0.040 C
HETATM   11  C8  UNL     1     -11.328  12.211 -17.656  1.00  0.00     0.003 C
HETATM   12  C9  UNL     1      -9.938  12.404 -18.161  1.00  0.00     0.000 C
HETATM   13  C10 UNL     1      -9.250  13.426 -17.288  1.00  0.00     0.003 C
HETATM   14  C11 UNL     1      -9.882  14.786 -17.374  1.00  0.00     0.040 C
HETATM   15  C12 UNL     1     -11.653  14.988 -19.131  1.00  0.00     0.165 C
ENDROOT
BRANCH   1  16
HETATM   16  C2  UNL     1     -13.181  15.677 -23.093  1.00  0.00     0.120 C
HETATM   17  C1  UNL     1     -14.614  15.221 -23.253  1.00  0.00     0.026 C
ENDBRANCH   1  16
TORSDOF 1
ENDMDL