MODEL 3
REMARK VINA RESULT: -5.138661981      4.706      6.306
REMARK  1 active torsions:
REMARK  status: ('A' for Active; 'I' for Inactive)
REMARK    1  A    between atoms: C4_6  and  S1_7
ROOT
HETATM    1  C1  UNL     1     -12.927   9.175 -16.554  1.00  0.00     0.147 C
HETATM    2  N1  UNL     1     -12.331  10.224 -15.832  1.00  0.00    -0.380 N
ATOM      3  H1  UNL     1     -12.377  10.103 -14.820  1.00  0.00     0.160 HD
HETATM    4  C2  UNL     1     -11.751  11.286 -16.189  1.00  0.00     0.105 C
HETATM    5  C3  UNL     1     -11.224  12.203 -15.138  1.00  0.00    -0.005 C
HETATM    6  C4  UNL     1     -10.998  11.761 -13.914  1.00  0.00     0.089 C
HETATM    7  C6  UNL     1     -10.954  13.605 -15.456  1.00  0.00     0.053 C
HETATM    8  C7  UNL     1     -10.770  13.949 -16.882  1.00  0.00    -0.027 C
HETATM    9  C8  UNL     1      -9.296  13.887 -17.279  1.00  0.00     0.016 C
HETATM   10  C9  UNL     1     -11.203  15.398 -17.145  1.00  0.00     0.016 C
HETATM   11  C10 UNL     1     -11.538  13.091 -17.844  1.00  0.00     0.133 C
HETATM   12  N2  UNL     1     -11.542  11.706 -17.519  1.00  0.00    -0.371 N
HETATM   13  C11 UNL     1     -11.327  10.741 -18.564  1.00  0.00     0.151 C
ENDROOT
BRANCH   6  14
HETATM   14  S1  UNL     1     -11.330  10.087 -13.556  1.00  0.00     0.035 S
HETATM   15  C5  UNL     1     -11.842   9.852 -11.878  1.00  0.00     0.132 C
HETATM   16  O1  UNL     1     -10.105   9.066 -14.003  1.00  0.00    -0.254 OA
ENDBRANCH   6  14
TORSDOF 1
ENDMDL