MODEL 4
REMARK VINA RESULT: -5.269530505      2.115      5.063
REMARK  2 active torsions:
REMARK  status: ('A' for Active; 'I' for Inactive)
REMARK    1  A    between atoms: N2_7  and  C4_8
REMARK    2  A    between atoms: N3_12  and  C8_14
ROOT
HETATM    1  C1  UNL     1     -11.008  11.114 -12.896  1.00  0.00     0.072 C
HETATM    2  C2  UNL     1     -11.243  11.940 -14.094  1.00  0.00     0.052 A
HETATM    3  N1  UNL     1     -12.306  12.642 -14.275  1.00  0.00    -0.333 N
ATOM      4  H1  UNL     1     -13.090  12.701 -13.625  1.00  0.00     0.168 HD
HETATM    5  C3  UNL     1     -12.220  13.328 -15.530  1.00  0.00     0.180 A
HETATM    6  S1  UNL     1     -13.370  14.310 -16.103  1.00  0.00    -0.040 SA
HETATM    7  N2  UNL     1     -10.988  13.010 -16.158  1.00  0.00    -0.304 N
HETATM    8  C7  UNL     1     -10.333  12.083 -15.288  1.00  0.00     0.129 A
HETATM    9  N3  UNL     1      -9.719  10.955 -15.753  1.00  0.00    -0.366 N
ATOM     10  H3  UNL     1      -8.701  10.968 -15.708  1.00  0.00     0.162 HD
ENDROOT
BRANCH   7  11
HETATM   11  C4  UNL     1     -10.544  13.580 -17.380  1.00  0.00     0.086 C
HETATM   12  C5  UNL     1     -10.835  12.692 -18.588  1.00  0.00     0.032 C
HETATM   13  C6  UNL     1      -9.041  13.791 -17.479  1.00  0.00     0.032 C
ENDBRANCH   7  11
BRANCH   9  14
HETATM   14  C8  UNL     1     -10.263   9.808 -16.270  1.00  0.00     0.021 C
HETATM   15  C9  UNL     1     -11.767   9.661 -16.335  1.00  0.00     0.037 C
HETATM   16  C10 UNL     1      -9.737   9.310 -17.610  1.00  0.00     0.037 C
HETATM   17  C11 UNL     1      -9.841   8.666 -15.296  1.00  0.00     0.037 C
ENDBRANCH   9  14
TORSDOF 2
ENDMDL