MODEL 3
REMARK VINA RESULT: -5.215029394      1.442      2.178
REMARK  3 active torsions:
REMARK  status: ('A' for Active; 'I' for Inactive)
REMARK    1  A    between atoms: N1_6  and  N2_7
REMARK    2  A    between atoms: N2_7  and  C6_9
REMARK    3  A    between atoms: C6_9  and  N3_11
ROOT
HETATM    1  N2  UNL     1     -10.629  13.457 -16.052  1.00  0.00    -0.295 N
ATOM      2  H2  UNL     1      -9.864  13.651 -15.407  1.00  0.00     0.183 HD
ENDROOT
BRANCH   1   3
HETATM    3  N1  UNL     1     -11.721  12.745 -15.567  1.00  0.00    -0.220 NA
HETATM    4  C2  UNL     1     -11.303  11.546 -14.866  1.00  0.00     0.026 C
HETATM    5  C1  UNL     1     -11.369  11.697 -13.369  1.00  0.00     0.034 C
HETATM    6  C3  UNL     1      -9.987  10.965 -15.305  1.00  0.00     0.034 C
HETATM    7  C4  UNL     1     -12.473  10.816 -15.485  1.00  0.00     0.042 C
HETATM    8  C5  UNL     1     -12.376  11.895 -16.539  1.00  0.00     0.116 C
ENDBRANCH   1   3
BRANCH   1   9
HETATM    9  C6  UNL     1     -10.506  13.931 -17.387  1.00  0.00     0.184 C
HETATM   10  S1  UNL     1      -9.445  13.184 -18.400  1.00  0.00    -0.040 SA
BRANCH   9  11
HETATM   11  N3  UNL     1     -11.251  15.020 -17.892  1.00  0.00    -0.357 N
HETATM   12  C7  UNL     1     -12.131  14.852 -18.992  1.00  0.00     0.125 C
HETATM   13  C8  UNL     1     -12.162  16.008 -19.949  1.00  0.00     0.020 C
HETATM   14  C9  UNL     1     -11.872  17.326 -19.329  1.00  0.00     0.003 C
HETATM   15  C10 UNL     1     -12.155  17.275 -17.829  1.00  0.00     0.020 C
HETATM   16  C11 UNL     1     -11.096  16.325 -17.256  1.00  0.00     0.125 C
ENDBRANCH   9  11
ENDBRANCH   1   9
TORSDOF 3
ENDMDL