MODEL 5
REMARK VINA RESULT: -4.891810522      0.984      3.567
REMARK  5 active torsions:
REMARK  status: ('A' for Active; 'I' for Inactive)
REMARK    1  A    between atoms: C2_2  and  N1_5
REMARK    2  A    between atoms: N1_5  and  C5_6
REMARK    3  A    between atoms: C5_6  and  N2_7
REMARK    4  A    between atoms: C5_6  and  C7_13
REMARK    5  A    between atoms: N2_7  and  S1_9
ROOT
HETATM    1  C5  UNL     1     -10.854  14.451 -17.836  1.00  0.00     0.166 C
ENDROOT
BRANCH   1   2
HETATM    2  N1  UNL     1     -10.832  13.703 -16.913  1.00  0.00    -0.423 NA
BRANCH   2   3
HETATM    3  C2  UNL     1     -10.966  12.650 -16.089  1.00  0.00     0.084 C
HETATM    4  C1  UNL     1     -12.180  11.810 -16.572  1.00  0.00     0.053 C
HETATM    5  C3  UNL     1     -11.337  12.934 -14.622  1.00  0.00     0.053 C
HETATM    6  C4  UNL     1      -9.840  11.636 -16.020  1.00  0.00     0.053 C
ENDBRANCH   2   3
ENDBRANCH   1   2
BRANCH   1   7
HETATM    7  N2  UNL     1     -10.280  14.080 -19.116  1.00  0.00    -0.262 N
ATOM      8  H2  UNL     1      -9.406  14.529 -19.390  1.00  0.00     0.181 HD
BRANCH   7   9
HETATM    9  S1  UNL     1     -10.950  12.958 -20.185  1.00  0.00     0.228 S
HETATM   10  C6  UNL     1     -10.243  11.334 -19.853  1.00  0.00     0.186 C
HETATM   11  O1  UNL     1     -10.545  13.285 -21.591  1.00  0.00    -0.206 OA
HETATM   12  O2  UNL     1     -12.426  12.783 -20.075  1.00  0.00    -0.206 OA
ENDBRANCH   7   9
ENDBRANCH   1   7
BRANCH   1  13
HETATM   13  C7  UNL     1     -11.445  15.803 -17.809  1.00  0.00     0.021 C
HETATM   14  C8  UNL     1     -11.864  16.369 -19.115  1.00  0.00     0.024 C
HETATM   15  C9  UNL     1     -10.485  16.765 -17.083  1.00  0.00     0.024 C
HETATM   16  C10 UNL     1     -12.706  15.823 -16.921  1.00  0.00     0.024 C
ENDBRANCH   1  13
TORSDOF 5
ENDMDL