MODEL 4
REMARK VINA RESULT: -5.591294602      2.261      6.816
REMARK  4 active torsions:
REMARK  status: ('A' for Active; 'I' for Inactive)
REMARK    1  A    between atoms: C6_7  and  O1_8
REMARK    2  A    between atoms: C6_7  and  C7_10
REMARK    3  A    between atoms: C8_11  and  C9_12
REMARK    4  A    between atoms: C9_12  and  N2_13
ROOT
HETATM    1  C1  UNL     1     -11.463  11.062 -14.243  1.00  0.00     0.315 C
HETATM    2  N1  UNL     1     -10.205  10.522 -14.726  1.00  0.00     0.132 N
HETATM    3  C2  UNL     1     -10.042   9.126 -14.382  1.00  0.00     0.277 C
HETATM    4  C3  UNL     1     -11.039   8.234 -15.053  1.00  0.00     0.030 C
HETATM    5  C4  UNL     1     -11.147   8.463 -16.529  1.00  0.00     0.008 C
HETATM    6  C5  UNL     1     -11.288   9.950 -16.814  1.00  0.00     0.086 C
HETATM    7  C6  UNL     1     -10.088  10.623 -16.166  1.00  0.00     0.323 C
ENDROOT
BRANCH   7   8
HETATM    8  O1  UNL     1      -8.971   9.833 -16.523  1.00  0.00    -0.353 OA
ATOM      9  H1  UNL     1      -8.679  10.156 -17.367  1.00  0.00     0.213 HD
ENDBRANCH   7   8
BRANCH   7  10
HETATM   10  C7  UNL     1      -9.919  11.997 -16.606  1.00  0.00    -0.034 C
HETATM   11  C8  UNL     1      -9.801  13.127 -16.965  1.00  0.00    -0.071 C
BRANCH  11  12
HETATM   12  C9  UNL     1      -9.681  14.517 -17.403  1.00  0.00     0.365 C
BRANCH  12  13
HETATM   13  N2  UNL     1     -10.961  15.172 -17.265  1.00  0.00     0.099 N
HETATM   14  C10 UNL     1     -10.759  16.601 -17.297  1.00  0.00     0.273 C
HETATM   15  C11 UNL     1     -11.958  17.338 -17.847  1.00  0.00     0.030 C
HETATM   16  C12 UNL     1     -12.080  16.965 -19.315  1.00  0.00     0.003 C
HETATM   17  C13 UNL     1     -11.890  15.485 -19.519  1.00  0.00     0.030 C
HETATM   18  C14 UNL     1     -11.929  14.714 -18.220  1.00  0.00     0.273 C
ENDBRANCH  12  13
ENDBRANCH  11  12
ENDBRANCH   7  10
TORSDOF 4
ENDMDL