MODEL 2
REMARK VINA RESULT: -6.165612660      2.777      6.270
REMARK  2 active torsions:
REMARK  status: ('A' for Active; 'I' for Inactive)
REMARK    1  A    between atoms: C2_2  and  O1_3
REMARK    2  A    between atoms: C6_8  and  C8_10
REMARK       I    between atoms: C8_10  and  N1_12
ROOT
HETATM    1  C1  UNL     1     -12.132  13.898 -18.927  1.00  0.00     0.047 C
HETATM    2  C2  UNL     1     -12.363  13.851 -17.435  1.00  0.00     0.070 C
HETATM    3  C3  UNL     1     -12.240  15.293 -16.941  1.00  0.00     0.038 C
HETATM    4  C4  UNL     1     -10.759  15.528 -17.017  1.00  0.00     0.004 C
HETATM    5  C5  UNL     1     -10.160  14.234 -16.570  1.00  0.00     0.022 C
HETATM    6  C6  UNL     1     -11.244  13.168 -16.699  1.00  0.00     0.068 C
HETATM    7  C7  UNL     1     -10.739  11.955 -17.437  1.00  0.00     0.028 C
ENDROOT
BRANCH   6   8
HETATM    8  C8  UNL     1     -11.692  12.832 -15.336  1.00  0.00     0.231 C
HETATM    9  O2  UNL     1     -12.678  13.507 -14.858  1.00  0.00    -0.272 OA
HETATM   10  N1  UNL     1     -11.177  11.856 -14.479  1.00  0.00    -0.351 N
HETATM   11  C9  UNL     1     -11.758  11.650 -13.167  1.00  0.00     0.125 C
HETATM   12  C13 UNL     1     -10.065  11.029 -14.827  1.00  0.00     0.125 C
HETATM   13  C10 UNL     1     -10.940  10.635 -12.409  1.00  0.00     0.020 C
HETATM   14  C11 UNL     1     -10.799   9.338 -13.179  1.00  0.00     0.003 C
HETATM   15  C12 UNL     1     -10.451   9.565 -14.632  1.00  0.00     0.020 C
ENDBRANCH   6   8
BRANCH   2  16
HETATM   16  O1  UNL     1     -13.621  13.389 -17.190  1.00  0.00    -0.389 OA
ATOM     17  H1  UNL     1     -13.673  13.079 -16.292  1.00  0.00     0.210 HD
ENDBRANCH   2  16
TORSDOF 2
ENDMDL