MODEL 3
REMARK VINA RESULT: -4.942069153      1.432      5.286
REMARK  4 active torsions:
REMARK  status: ('A' for Active; 'I' for Inactive)
REMARK    1  A    between atoms: C4_6  and  N2_7
REMARK    2  A    between atoms: N2_7  and  C5_9
REMARK    3  A    between atoms: C5_9  and  N3_11
REMARK    4  A    between atoms: N3_11  and  C7_13
ROOT
HETATM    1  N2  UNL     1      -9.838  13.817 -16.875  1.00  0.00    -0.313 N
ATOM      2  H2  UNL     1      -8.858  13.878 -16.596  1.00  0.00     0.170 HD
ENDROOT
BRANCH   1   3
HETATM    3  C4  UNL     1     -10.444  14.847 -17.417  1.00  0.00     0.151 A
HETATM    4  N1  UNL     1     -10.502  16.101 -16.979  1.00  0.00    -0.345 N
HETATM    5  C3  UNL     1     -11.174  16.977 -17.691  1.00  0.00     0.104 A
ATOM      6  H1  UNL     1     -10.037  16.376 -16.114  1.00  0.00     0.167 HD
HETATM    7  C2  UNL     1     -11.771  16.543 -18.838  1.00  0.00    -0.003 A
HETATM    8  C1  UNL     1     -12.590  17.347 -19.818  1.00  0.00     0.058 C
HETATM    9  S2  UNL     1     -11.349  14.889 -18.858  1.00  0.00    -0.058 SA
ENDBRANCH   1   3
BRANCH   1  10
HETATM   10  C5  UNL     1     -10.565  12.628 -16.688  1.00  0.00     0.175 C
HETATM   11  S1  UNL     1     -10.160  11.337 -17.600  1.00  0.00    -0.041 SA
BRANCH  10  12
HETATM   12  N3  UNL     1     -11.605  12.578 -15.736  1.00  0.00    -0.358 N
HETATM   13  C6  UNL     1     -12.976  12.396 -16.145  1.00  0.00     0.152 C
BRANCH  12  14
HETATM   14  C7  UNL     1     -11.321  12.709 -14.311  1.00  0.00     0.078 C
HETATM   15  C8  UNL     1     -10.952  11.404 -13.673  1.00  0.00     0.032 C
HETATM   16  C9  UNL     1     -12.559  13.226 -13.574  1.00  0.00     0.032 C
ENDBRANCH  12  14
ENDBRANCH  10  12
ENDBRANCH   1  10
TORSDOF 4
ENDMDL