MODEL 3
REMARK VINA RESULT: -5.267659880      1.128      2.092
REMARK  4 active torsions:
REMARK  status: ('A' for Active; 'I' for Inactive)
REMARK    1  A    between atoms: C2_2  and  C5_5
REMARK    2  A    between atoms: C5_5  and  N2_8
REMARK    3  A    between atoms: N2_8  and  C7_10
REMARK    4  A    between atoms: C7_10  and  N3_12
ROOT
HETATM    1  C5  UNL     1     -11.531  12.209 -16.344  1.00  0.00     0.198 C
HETATM    2  C6  UNL     1     -12.801  12.969 -16.276  1.00  0.00     0.085 C
HETATM    3  N1  UNL     1     -13.823  13.551 -16.229  1.00  0.00    -0.195 NA
ENDROOT
BRANCH   1   4
HETATM    4  C2  UNL     1     -11.361  11.505 -15.052  1.00  0.00    -0.018 C
HETATM    5  C1  UNL     1     -12.263  10.255 -15.097  1.00  0.00     0.018 C
HETATM    6  C3  UNL     1      -9.958  10.967 -14.848  1.00  0.00     0.018 C
HETATM    7  C4  UNL     1     -11.764  12.229 -13.806  1.00  0.00     0.018 C
ENDBRANCH   1   4
BRANCH   1   8
HETATM    8  N2  UNL     1     -10.511  13.011 -16.853  1.00  0.00    -0.349 N
ATOM      9  H2  UNL     1      -9.676  13.088 -16.274  1.00  0.00     0.163 HD
BRANCH   8  10
HETATM   10  C7  UNL     1     -10.485  13.724 -18.060  1.00  0.00     0.170 C
HETATM   11  S1  UNL     1      -9.813  13.116 -19.416  1.00  0.00    -0.041 SA
BRANCH  10  12
HETATM   12  N3  UNL     1     -11.017  15.061 -18.156  1.00  0.00    -0.358 N
HETATM   13  C8  UNL     1     -11.841  15.494 -19.258  1.00  0.00     0.125 C
HETATM   14  C9  UNL     1     -11.857  16.979 -19.105  1.00  0.00     0.021 C
HETATM   15  C10 UNL     1     -11.833  17.152 -17.598  1.00  0.00     0.021 C
HETATM   16  C11 UNL     1     -10.803  16.095 -17.204  1.00  0.00     0.125 C
ENDBRANCH  10  12
ENDBRANCH   8  10
ENDBRANCH   1   8
TORSDOF 4
ENDMDL