MODEL 1
REMARK VINA RESULT: -5.236189508      0.000      0.000
REMARK  3 active torsions:
REMARK  status: ('A' for Active; 'I' for Inactive)
REMARK    1  A    between atoms: C3_4  and  N1_5
REMARK    2  A    between atoms: C4_10  and  S2_11
REMARK    3  A    between atoms: S2_11  and  C5_12
ROOT
HETATM    1  C1  UNL     1      -9.789  12.563 -17.413  1.00  0.00     0.059 C
HETATM    2  C2  UNL     1     -10.841  13.245 -16.618  1.00  0.00     0.016 A
HETATM    3  S1  UNL     1     -11.553  12.664 -15.182  1.00  0.00    -0.057 SA
HETATM    4  C3  UNL     1     -12.625  13.963 -14.891  1.00  0.00     0.143 A
HETATM    5  N2  UNL     1     -12.379  14.779 -15.915  1.00  0.00    -0.331 N
ATOM      6  H2  UNL     1     -12.886  15.660 -16.003  1.00  0.00     0.168 HD
HETATM    7  C4  UNL     1     -11.489  14.444 -16.798  1.00  0.00     0.085 A
ENDROOT
BRANCH   7   8
HETATM    8  S2  UNL     1     -11.027  15.438 -18.251  1.00  0.00    -0.106 SA
BRANCH   8   9
HETATM    9  C5  UNL     1     -12.345  16.396 -18.901  1.00  0.00     0.054 C
HETATM   10  C6  UNL     1     -12.078  17.824 -19.204  1.00  0.00     0.015 C
HETATM   11  C7  UNL     1     -13.293  18.165 -20.084  1.00  0.00     0.001 C
HETATM   12  C8  UNL     1     -13.242  17.014 -21.064  1.00  0.00     0.001 C
HETATM   13  C9  UNL     1     -12.669  15.844 -20.293  1.00  0.00     0.015 C
ENDBRANCH   8   9
ENDBRANCH   7   8
BRANCH   4  14
HETATM   14  N1  UNL     1     -13.473  14.109 -13.900  1.00  0.00    -0.380 N
ATOM     15  H12 UNL     1     -14.098  13.420 -13.481  1.00  0.00     0.158 HD
ATOM     16  H11 UNL     1     -13.671  14.950 -13.357  1.00  0.00     0.158 HD
ENDBRANCH   4  14
TORSDOF 3
ENDMDL