MODEL 2
REMARK VINA RESULT: -5.544584567      1.787      5.476
REMARK  3 active torsions:
REMARK  status: ('A' for Active; 'I' for Inactive)
REMARK    1  A    between atoms: C4_5  and  C5_6
REMARK    2  A    between atoms: C5_6  and  C6_12
REMARK    3  A    between atoms: N1_7  and  N2_9
ROOT
HETATM    1  C5  UNL     1     -11.666  15.017 -18.608  1.00  0.00     0.046 C
HETATM    2  N1  UNL     1     -10.800  14.255 -19.162  1.00  0.00    -0.310 N
ATOM      3  H1  UNL     1     -10.365  13.537 -18.583  1.00  0.00     0.186 HD
ENDROOT
BRANCH   1   4
HETATM    4  C4  UNL     1     -12.285  16.051 -19.468  1.00  0.00     0.029 A
HETATM    5  S1  UNL     1     -12.263  17.746 -19.298  1.00  0.00    -0.100 SA
HETATM    6  C3  UNL     1     -13.194  18.177 -20.655  1.00  0.00     0.057 A
HETATM    7  C2  UNL     1     -13.506  16.970 -21.218  1.00  0.00    -0.054 A
HETATM    8  C1  UNL     1     -14.355  16.929 -22.490  1.00  0.00     0.048 C
HETATM    9  C12 UNL     1     -13.032  15.862 -20.599  1.00  0.00     0.028 A
ENDBRANCH   1   4
BRANCH   1  10
HETATM   10  C6  UNL     1     -11.993  14.816 -17.207  1.00  0.00     0.038 C
HETATM   11  C7  UNL     1     -13.395  14.369 -16.915  1.00  0.00     0.011 C
HETATM   12  C8  UNL     1     -13.661  14.750 -15.454  1.00  0.00     0.001 C
HETATM   13  C9  UNL     1     -12.727  13.936 -14.615  1.00  0.00     0.000 C
HETATM   14  C10 UNL     1     -11.740  13.119 -15.380  1.00  0.00     0.001 C
HETATM   15  C11 UNL     1     -11.056  13.868 -16.497  1.00  0.00     0.011 C
ENDBRANCH   1  10
BRANCH   2  16
HETATM   16  N2  UNL     1     -10.411  14.329 -20.481  1.00  0.00    -0.345 N
ATOM     17  H22 UNL     1     -11.158  14.420 -21.170  1.00  0.00     0.176 HD
ATOM     18  H21 UNL     1      -9.445  14.298 -20.810  1.00  0.00     0.176 HD
ENDBRANCH   2  16
TORSDOF 3
ENDMDL