MODEL 4
REMARK VINA RESULT: -6.517738494      1.926      3.177
REMARK  1 active torsions:
REMARK  status: ('A' for Active; 'I' for Inactive)
REMARK    1  A    between atoms: C5_5  and  C6_6
ROOT
HETATM    1  C6  UNL     1     -11.060  13.706 -16.991  1.00  0.00     0.131 A
HETATM    2  N1  UNL     1     -11.730  13.934 -15.852  1.00  0.00    -0.336 N
ATOM      3  H1  UNL     1     -12.192  14.810 -15.610  1.00  0.00     0.168 HD
HETATM    4  C7  UNL     1     -11.701  12.837 -15.076  1.00  0.00     0.089 A
HETATM    5  C8  UNL     1     -12.053  12.199 -13.904  1.00  0.00     0.079 A
HETATM    6  C9  UNL     1     -11.559  10.913 -13.898  1.00  0.00     0.120 A
HETATM    7  N2  UNL     1     -11.704   9.932 -12.868  1.00  0.00    -0.083 NA
HETATM    8  N3  UNL     1     -10.906  10.770 -15.067  1.00  0.00    -0.323 N
ATOM      9  H3  UNL     1     -10.426   9.921 -15.364  1.00  0.00     0.169 HD
HETATM   10  C10 UNL     1     -10.977  11.907 -15.791  1.00  0.00     0.178 A
HETATM   11  O1  UNL     1     -10.619  12.472 -16.919  1.00  0.00    -0.278 OA
ENDROOT
BRANCH   1  12
HETATM   12  C5  UNL     1     -10.886  14.694 -18.080  1.00  0.00     0.061 C
HETATM   13  C4  UNL     1     -10.943  16.065 -17.456  1.00  0.00     0.013 C
HETATM   14  C3  UNL     1     -11.141  17.163 -18.458  1.00  0.00     0.005 C
HETATM   15  C2  UNL     1     -12.492  16.897 -19.133  1.00  0.00    -0.019 C
HETATM   16  C1  UNL     1     -12.933  18.035 -19.982  1.00  0.00     0.010 C
HETATM   17  C12 UNL     1     -12.271  15.634 -19.953  1.00  0.00     0.005 C
HETATM   18  C11 UNL     1     -11.977  14.457 -19.085  1.00  0.00     0.013 C
ENDBRANCH   1  12
TORSDOF 1
ENDMDL