MODEL 4
REMARK VINA RESULT: -5.497152799      1.894      3.212
REMARK  5 active torsions:
REMARK  status: ('A' for Active; 'I' for Inactive)
REMARK    1  A    between atoms: C2_2  and  C3_3
REMARK    2  A    between atoms: C3_3  and  C4_4
REMARK    3  A    between atoms: C5_5  and  C6_6
REMARK    4  A    between atoms: C6_6  and  O1_7
REMARK    5  A    between atoms: N1_9  and  O2_11
ROOT
HETATM    1  C3  UNL     1     -11.933  11.176 -16.322  1.00  0.00    -0.049 C
HETATM    2  C7  UNL     1     -12.116  12.482 -16.444  1.00  0.00    -0.006 C
HETATM    3  C8  UNL     1     -12.388  13.344 -15.249  1.00  0.00     0.043 C
HETATM    4  C9  UNL     1     -12.584  14.746 -15.771  1.00  0.00     0.005 C
HETATM    5  C10 UNL     1     -11.314  15.142 -16.537  1.00  0.00     0.008 C
HETATM    6  C11 UNL     1     -11.266  14.373 -17.853  1.00  0.00     0.083 C
HETATM    7  C12 UNL     1     -12.080  13.138 -17.721  1.00  0.00     0.156 C
HETATM    8  O3  UNL     1     -12.718  12.671 -18.681  1.00  0.00    -0.293 OA
ENDROOT
BRANCH   1   9
HETATM    9  C2  UNL     1     -11.658  10.216 -17.399  1.00  0.00     0.035 C
HETATM   10  C1  UNL     1     -10.159   9.889 -17.509  1.00  0.00     0.010 C
ENDBRANCH   1   9
BRANCH   1  11
HETATM   11  C4  UNL     1     -12.024  10.628 -14.973  1.00  0.00     0.012 C
HETATM   12  C5  UNL     1     -12.846   9.676 -14.590  1.00  0.00     0.058 C
BRANCH  12  13
HETATM   13  C6  UNL     1     -12.814   9.237 -13.202  1.00  0.00     0.159 C
HETATM   14  N1  UNL     1     -13.562   8.260 -12.786  1.00  0.00    -0.248 N
ATOM     15  H1  UNL     1     -13.522   7.970 -11.808  1.00  0.00     0.196 HD
BRANCH  13  16
HETATM   16  O1  UNL     1     -11.992   9.829 -12.253  1.00  0.00    -0.345 OA
ATOM     17  H1  UNL     1     -11.331   9.341 -11.777  1.00  0.00     0.219 HD
ENDBRANCH  13  16
BRANCH  14  18
HETATM   18  O2  UNL     1     -14.398   7.621 -13.647  1.00  0.00    -0.288 OA
ATOM     19  H2  UNL     1     -15.317   7.513 -13.431  1.00  0.00     0.244 HD
ENDBRANCH  14  18
ENDBRANCH  12  13
ENDBRANCH   1  11
TORSDOF 5
ENDMDL