MODEL 1
REMARK VINA RESULT: -5.585361608      0.000      0.000
REMARK  4 active torsions:
REMARK  status: ('A' for Active; 'I' for Inactive)
REMARK    1  A    between atoms: C2_2  and  C4_4
REMARK    2  A    between atoms: N1_6  and  C6_8
REMARK    3  A    between atoms: C7_11  and  N3_12
REMARK    4  A    between atoms: C8_16  and  C9_17
ROOT
HETATM    1  C6  UNL     1     -11.347  14.068 -17.812  1.00  0.00     0.121 A
HETATM    2  N2  UNL     1     -10.633  13.143 -18.400  1.00  0.00    -0.322 N
ATOM      3  H2  UNL     1     -10.410  13.223 -19.392  1.00  0.00     0.169 HD
HETATM    4  C7  UNL     1     -10.196  12.090 -17.697  1.00  0.00     0.144 A
HETATM    5  S1  UNL     1     -10.807  12.394 -16.136  1.00  0.00    -0.055 SA
HETATM    6  C8  UNL     1     -11.613  13.871 -16.445  1.00  0.00     0.034 A
ENDROOT
BRANCH   1   7
HETATM    7  N1  UNL     1     -11.640  15.361 -18.355  1.00  0.00    -0.345 N
HETATM    8  C4  UNL     1     -12.226  15.825 -19.337  1.00  0.00     0.012 C
HETATM    9  C5  UNL     1     -12.863  14.977 -20.419  1.00  0.00     0.068 C
ATOM     10  H1  UNL     1     -11.259  16.103 -17.768  1.00  0.00     0.167 HD
BRANCH   8  11
HETATM   11  C2  UNL     1     -12.285  17.305 -19.514  1.00  0.00    -0.049 C
HETATM   12  C1  UNL     1     -11.631  18.142 -18.764  1.00  0.00     0.020 C
HETATM   13  C3  UNL     1     -13.203  17.881 -20.520  1.00  0.00     0.049 C
ENDBRANCH   8  11
ENDBRANCH   1   7
BRANCH   6  14
HETATM   14  C9  UNL     1     -12.571  14.607 -15.562  1.00  0.00     0.021 C
HETATM   15  C10 UNL     1     -12.861  13.807 -14.278  1.00  0.00     0.015 C
HETATM   16  C11 UNL     1     -13.961  14.344 -16.347  1.00  0.00     0.015 C
ENDBRANCH   6  14
BRANCH   4  17
HETATM   17  N3  UNL     1      -9.491  11.049 -18.126  1.00  0.00    -0.380 N
ATOM     18  H32 UNL     1      -8.756  11.024 -18.833  1.00  0.00     0.158 HD
ATOM     19  H31 UNL     1      -9.533  10.082 -17.805  1.00  0.00     0.158 HD
ENDBRANCH   4  17
TORSDOF 4
ENDMDL