MODEL 5
REMARK VINA RESULT: -5.399720392      3.442      5.825
REMARK  2 active torsions:
REMARK  status: ('A' for Active; 'I' for Inactive)
REMARK    1  A    between atoms: C2_2  and  C3_3
REMARK    2  A    between atoms: C4_7  and  C5_8
ROOT
HETATM    1  C3  UNL     1     -11.695  13.926 -16.087  1.00  0.00     0.041 A
HETATM    2  N1  UNL     1     -10.616  13.669 -16.825  1.00  0.00    -0.264 N
ATOM      3  H1  UNL     1      -9.781  13.194 -16.480  1.00  0.00     0.194 HD
HETATM    4  O1  UNL     1     -10.762  14.090 -18.006  1.00  0.00    -0.235 OA
HETATM    5  C4  UNL     1     -11.948  14.665 -18.164  1.00  0.00     0.135 A
HETATM    6  C9  UNL     1     -12.565  14.574 -16.952  1.00  0.00     0.001 A
HETATM    7  C10 UNL     1     -13.910  15.058 -16.577  1.00  0.00     0.053 C
ENDROOT
BRANCH   5   8
HETATM    8  C5  UNL     1     -12.437  15.259 -19.413  1.00  0.00     0.093 A
HETATM    9  N2  UNL     1     -13.015  14.662 -20.453  1.00  0.00    -0.329 N
HETATM   10  C6  UNL     1     -13.320  15.573 -21.414  1.00  0.00     0.176 A
ATOM     11  H2  UNL     1     -13.201  13.662 -20.520  1.00  0.00     0.168 HD
HETATM   12  S1  UNL     1     -14.039  15.294 -22.865  1.00  0.00    -0.041 SA
HETATM   13  N3  UNL     1     -12.914  16.749 -20.934  1.00  0.00    -0.335 N
HETATM   14  C7  UNL     1     -12.368  16.606 -19.711  1.00  0.00     0.037 A
ATOM     15  H3  UNL     1     -13.006  17.637 -21.427  1.00  0.00     0.168 HD
HETATM   16  C8  UNL     1     -11.800  17.688 -18.855  1.00  0.00     0.070 C
ENDBRANCH   5   8
BRANCH   1  17
HETATM   17  C2  UNL     1     -11.864  13.569 -14.664  1.00  0.00     0.055 C
HETATM   18  C1  UNL     1     -11.271  12.194 -14.388  1.00  0.00     0.011 C
ENDBRANCH   1  17
TORSDOF 2
ENDMDL