MODEL 1
REMARK VINA RESULT: -5.635695350      0.000      0.000
REMARK  6 active torsions:
REMARK  status: ('A' for Active; 'I' for Inactive)
REMARK    1  A    between atoms: C4_4  and  C5_5
REMARK    2  A    between atoms: C5_5  and  C6_6
REMARK    3  A    between atoms: C6_6  and  C7_11
REMARK    4  A    between atoms: N1_7  and  O1_9
REMARK    5  A    between atoms: C7_11  and  O2_12
REMARK    6  A    between atoms: C9_15  and  C10_16
ROOT
HETATM    1  C6  UNL     1     -12.816  14.210 -16.760  1.00  0.00     0.048 C
HETATM    2  N1  UNL     1     -13.933  14.518 -16.204  1.00  0.00    -0.274 N
ATOM      3  H1  UNL     1     -14.402  13.798 -15.655  1.00  0.00     0.193 HD
ENDROOT
BRANCH   1   4
HETATM    4  C5  UNL     1     -12.044  15.172 -17.579  1.00  0.00     0.085 C
BRANCH   4   5
HETATM    5  C4  UNL     1     -12.528  15.244 -18.972  1.00  0.00    -0.019 C
HETATM    6  C2  UNL     1     -12.613  16.348 -19.702  1.00  0.00    -0.091 C
HETATM    7  C1  UNL     1     -12.222  17.689 -19.200  1.00  0.00     0.042 C
HETATM    8  C3  UNL     1     -13.125  16.260 -21.109  1.00  0.00     0.042 C
ENDBRANCH   4   5
ENDBRANCH   1   4
BRANCH   1   9
HETATM    9  C7  UNL     1     -12.298  12.843 -16.564  1.00  0.00     0.103 A
HETATM   10  C8  UNL     1     -10.845  12.784 -16.137  1.00  0.00     0.053 A
HETATM   11  C9  UNL     1     -11.985  12.384 -15.201  1.00  0.00     0.036 A
BRANCH   9  12
HETATM   12  O2  UNL     1     -12.646  11.955 -17.575  1.00  0.00    -0.383 OA
ATOM     13  H2  UNL     1     -12.524  11.041 -17.346  1.00  0.00     0.211 HD
ENDBRANCH   9  12
BRANCH  11  14
HETATM   14  C10 UNL     1     -11.957  10.931 -14.823  1.00  0.00    -0.044 C
HETATM   15  C11 UNL     1     -10.821  10.181 -15.472  1.00  0.00     0.015 C
HETATM   16  C12 UNL     1     -13.243  10.224 -15.237  1.00  0.00     0.015 C
HETATM   17  C13 UNL     1     -11.768  10.826 -13.325  1.00  0.00     0.015 C
ENDBRANCH  11  14
ENDBRANCH   1   9
BRANCH   2  18
HETATM   18  O1  UNL     1     -14.535  15.737 -16.293  1.00  0.00    -0.290 OA
ATOM     19  H1  UNL     1     -15.408  15.934 -15.975  1.00  0.00     0.244 HD
ENDBRANCH   2  18
TORSDOF 6
ENDMDL