MODEL 2
REMARK VINA RESULT: -5.749919342      1.160      2.433
REMARK  2 active torsions:
REMARK  status: ('A' for Active; 'I' for Inactive)
REMARK    1  A    between atoms: C4_6  and  N2_7
REMARK    2  A    between atoms: N2_7  and  C5_9
ROOT
HETATM    1  N2  UNL     1     -11.447  11.370 -12.942  1.00  0.00    -0.358 N
ATOM      2  H2  UNL     1     -11.097  11.784 -12.077  1.00  0.00     0.163 HD
ENDROOT
BRANCH   1   3
HETATM    3  C4  UNL     1     -11.837  10.001 -12.990  1.00  0.00     0.171 C
HETATM    4  N1  UNL     1     -11.074   8.994 -13.233  1.00  0.00    -0.360 N
HETATM    5  C3  UNL     1     -11.824   7.758 -13.198  1.00  0.00     0.147 C
ATOM      6  H1  UNL     1     -10.074   9.059 -13.425  1.00  0.00     0.162 HD
HETATM    7  C2  UNL     1     -13.243   8.211 -13.256  1.00  0.00     0.098 C
HETATM    8  C1  UNL     1     -13.658   8.292 -14.718  1.00  0.00     0.034 C
HETATM    9  N3  UNL     1     -13.176   9.570 -12.764  1.00  0.00    -0.357 N
ATOM     10  H3  UNL     1     -13.932  10.109 -12.341  1.00  0.00     0.163 HD
ENDBRANCH   1   3
BRANCH   1  11
HETATM   11  C5  UNL     1     -11.561  12.160 -14.152  1.00  0.00     0.084 C
HETATM   12  C6  UNL     1     -12.968  12.676 -14.359  1.00  0.00     0.025 C
HETATM   13  C7  UNL     1     -13.043  14.162 -14.479  1.00  0.00     0.002 C
HETATM   14  C8  UNL     1     -13.010  14.636 -15.920  1.00  0.00     0.000 C
HETATM   15  C9  UNL     1     -11.623  15.025 -16.317  1.00  0.00     0.000 C
HETATM   16  C10 UNL     1     -11.076  14.275 -17.482  1.00  0.00     0.000 C
HETATM   17  C11 UNL     1     -11.178  12.785 -17.374  1.00  0.00     0.000 C
HETATM   18  C12 UNL     1     -10.289  12.220 -16.283  1.00  0.00     0.002 C
HETATM   19  C13 UNL     1     -11.080  11.345 -15.328  1.00  0.00     0.025 C
ENDBRANCH   1  11
TORSDOF 2
ENDMDL