MODEL 5
REMARK VINA RESULT: -5.622623328      2.552      6.425
REMARK  3 active torsions:
REMARK  status: ('A' for Active; 'I' for Inactive)
REMARK    1  A    between atoms: C4_4  and  C5_5
REMARK    2  A    between atoms: C5_5  and  N1_6
REMARK    3  A    between atoms: N1_6  and  C6_9
ROOT
HETATM    1  C6  UNL     1     -11.802  13.397 -15.291  1.00  0.00     0.231 C
HETATM    2  C7  UNL     1     -10.909  12.452 -16.009  1.00  0.00     0.039 C
HETATM    3  C8  UNL     1     -11.390  12.103 -17.402  1.00  0.00     0.002 C
HETATM    4  C9  UNL     1     -10.360  12.553 -18.374  1.00  0.00     0.000 C
HETATM    5  C10 UNL     1     -10.746  13.813 -19.139  1.00  0.00     0.000 C
HETATM    6  C11 UNL     1     -10.312  15.068 -18.493  1.00  0.00     0.000 C
HETATM    7  C12 UNL     1     -11.071  15.557 -17.317  1.00  0.00     0.006 C
HETATM    8  C13 UNL     1     -12.476  15.127 -17.177  1.00  0.00     0.054 C
HETATM    9  C14 UNL     1     -12.754  14.155 -16.088  1.00  0.00     0.010 C
HETATM   10  N2  UNL     1     -14.002  13.918 -15.772  1.00  0.00    -0.404 N
ATOM     11  H21 UNL     1     -14.669  14.449 -16.331  1.00  0.00     0.155 HD
ATOM     12  H22 UNL     1     -14.193  13.250 -15.025  1.00  0.00     0.155 HD
ENDROOT
BRANCH   1  13
HETATM   13  N1  UNL     1     -12.409  12.795 -14.128  1.00  0.00    -0.063 N
ATOM     14  H12 UNL     1     -13.316  12.396 -14.369  1.00  0.00     0.278 HD
ATOM     15  H11 UNL     1     -12.703  13.516 -13.469  1.00  0.00     0.278 HD
BRANCH  13  16
HETATM   16  C5  UNL     1     -11.589  11.812 -13.464  1.00  0.00     0.260 C
BRANCH  16  17
HETATM   17  C4  UNL     1     -12.435  10.671 -13.077  1.00  0.00     0.002 C
HETATM   18  C2  UNL     1     -12.154   9.457 -13.518  1.00  0.00    -0.090 C
HETATM   19  C1  UNL     1     -13.033   8.299 -13.112  1.00  0.00     0.042 C
HETATM   20  C3  UNL     1     -10.984   9.223 -14.408  1.00  0.00     0.042 C
ENDBRANCH  16  17
ENDBRANCH  13  16
ENDBRANCH   1  13
TORSDOF 3
ENDMDL