MODEL 4
REMARK VINA RESULT: -5.693975609      2.380      5.785
REMARK  2 active torsions:
REMARK  status: ('A' for Active; 'I' for Inactive)
REMARK    1  A    between atoms: C4_6  and  C5_7
REMARK    2  A    between atoms: C5_7  and  O1_8
ROOT
HETATM    1  C5  UNL     1     -11.787  12.735 -15.831  1.00  0.00     0.106 C
HETATM    2  C6  UNL     1     -11.941  14.178 -15.342  1.00  0.00     0.045 C
HETATM    3  C7  UNL     1     -12.058  14.992 -16.593  1.00  0.00     0.007 C
HETATM    4  C8  UNL     1     -10.882  14.918 -17.486  1.00  0.00    -0.018 C
HETATM    5  C9  UNL     1     -11.384  15.212 -18.906  1.00  0.00     0.010 C
HETATM    6  C10 UNL     1     -10.160  13.618 -17.535  1.00  0.00     0.007 C
HETATM    7  C11 UNL     1     -10.380  12.683 -16.413  1.00  0.00     0.045 C
ENDROOT
BRANCH   1   8
HETATM    8  C4  UNL     1     -11.805  11.750 -14.712  1.00  0.00     0.086 A
HETATM    9  N1  UNL     1     -12.232  11.805 -13.469  1.00  0.00    -0.360 N
HETATM   10  C3  UNL     1     -12.134  10.775 -12.698  1.00  0.00     0.102 A
ATOM     11  H1  UNL     1     -12.643  12.668 -13.112  1.00  0.00     0.165 HD
HETATM   12  C2  UNL     1     -11.578   9.632 -13.211  1.00  0.00    -0.004 A
HETATM   13  C1  UNL     1     -11.323   8.308 -12.600  1.00  0.00     0.058 C
HETATM   14  S1  UNL     1     -11.226  10.142 -14.813  1.00  0.00    -0.077 SA
ENDBRANCH   1   8
BRANCH   1  15
HETATM   15  O1  UNL     1     -12.750  12.467 -16.784  1.00  0.00    -0.383 OA
ATOM     16  H1  UNL     1     -13.528  13.000 -16.672  1.00  0.00     0.211 HD
ENDBRANCH   1  15
TORSDOF 2
ENDMDL