MODEL 5
REMARK VINA RESULT: -4.782443335      2.263      4.678
REMARK  3 active torsions:
REMARK  status: ('A' for Active; 'I' for Inactive)
REMARK    1  A    between atoms: C2_2  and  C3_3
REMARK    2  A    between atoms: C3_3  and  C4_4
REMARK    3  A    between atoms: C14_17  and  C15_18
ROOT
HETATM    1  C4  UNL     1      -3.099 168.784 398.853  1.00  0.00     0.045 C
HETATM    2  C5  UNL     1      -4.558 168.875 398.736  1.00  0.00     0.024 A
HETATM    3  C6  UNL     1      -5.140 167.699 398.875  1.00  0.00     0.012 A
HETATM    4  C7  UNL     1      -6.590 167.627 398.785  1.00  0.00     0.127 A
HETATM    5  F1  UNL     1      -7.248 166.423 398.922  1.00  0.00    -0.205 F
HETATM    6  C8  UNL     1      -7.382 168.663 398.570  1.00  0.00     0.071 A
HETATM    7  C9  UNL     1      -6.779 169.977 398.412  1.00  0.00     0.025 A
HETATM    8  C10 UNL     1      -7.484 171.067 398.195  1.00  0.00     0.043 C
HETATM    9  N1  UNL     1      -5.364 170.044 398.500  1.00  0.00    -0.359 N
ATOM     10  H1  UNL     1      -4.904 170.948 398.393  1.00  0.00     0.166 HD
HETATM   11  C11 UNL     1      -4.172 166.616 399.093  1.00  0.00    -0.006 C
HETATM   12  C12 UNL     1      -4.284 165.810 400.337  1.00  0.00     0.021 C
HETATM   13  C13 UNL     1      -3.881 165.760 397.875  1.00  0.00     0.023 C
HETATM   14  C14 UNL     1      -2.909 166.803 397.379  1.00  0.00     0.014 C
HETATM   15  C17 UNL     1      -2.852 167.301 398.826  1.00  0.00     0.016 C
ENDROOT
BRANCH   1  16
HETATM   16  C3  UNL     1      -2.538 169.288 400.161  1.00  0.00     0.037 C
BRANCH  16  17
HETATM   17  C2  UNL     1      -2.884 170.693 400.444  1.00  0.00    -0.036 C
HETATM   18  C1  UNL     1      -3.238 171.040 401.672  1.00  0.00     0.007 C
ENDBRANCH  16  17
ENDBRANCH   1  16
BRANCH  14  19
HETATM   19  C15 UNL     1      -1.572 166.307 396.991  1.00  0.00    -0.032 C
HETATM   20  C16 UNL     1      -0.554 167.086 396.702  1.00  0.00     0.007 C
ENDBRANCH  14  19
TORSDOF 3
ENDMDL