MODEL 3
REMARK VINA RESULT: -6.432994785      1.521      3.001
REMARK  3 active torsions:
REMARK  status: ('A' for Active; 'I' for Inactive)
REMARK    1  A    between atoms: C2_2  and  C4_4
REMARK    2  A    between atoms: C4_4  and  C5_5
REMARK    3  A    between atoms: C5_5  and  C6_6
ROOT
HETATM    1  C4  UNL     1      -5.439 166.919 398.992  1.00  0.00     0.088 C
HETATM    2  C10 UNL     1      -5.853 166.525 397.625  1.00  0.00     0.046 C
HETATM    3  C11 UNL     1      -6.756 167.684 397.239  1.00  0.00     0.047 C
HETATM    4  C12 UNL     1      -6.171 168.805 398.041  1.00  0.00     0.194 C
HETATM    5 BR1  UNL     1      -7.615 169.764 398.912  1.00  0.00    -0.061 Br
HETATM    6  O1  UNL     1      -5.310 168.309 398.989  1.00  0.00    -0.359 OA
ENDROOT
BRANCH   1   7
HETATM    7  C2  UNL     1      -6.421 166.535 400.020  1.00  0.00    -0.059 C
HETATM    8  C1  UNL     1      -6.089 166.429 401.280  1.00  0.00     0.017 C
HETATM    9  C3  UNL     1      -7.855 166.242 399.664  1.00  0.00     0.046 C
ENDBRANCH   1   7
BRANCH   1  10
HETATM   10  C5  UNL     1      -4.110 166.324 399.393  1.00  0.00     0.070 C
BRANCH  10  11
HETATM   11  C6  UNL     1      -2.969 167.251 399.255  1.00  0.00    -0.021 C
HETATM   12  C7  UNL     1      -2.185 167.149 398.192  1.00  0.00    -0.091 C
HETATM   13  C8  UNL     1      -2.434 166.125 397.145  1.00  0.00     0.042 C
HETATM   14  C9  UNL     1      -1.024 168.085 398.044  1.00  0.00     0.042 C
ENDBRANCH  10  11
ENDBRANCH   1  10
TORSDOF 3
ENDMDL