MODEL 2
REMARK VINA RESULT: -5.648848779      1.381      1.585
REMARK  4 active torsions:
REMARK  status: ('A' for Active; 'I' for Inactive)
REMARK    1  A    between atoms: C2_2  and  C3_4
REMARK    2  A    between atoms: C3_4  and  N1_5
REMARK       I    between atoms: N1_5  and  C4_6
REMARK    3  A    between atoms: N1_5  and  C10_15
REMARK       I    between atoms: C4_6  and  N2_8
REMARK    4  A    between atoms: N2_8  and  C5_10
ROOT
HETATM    1  N1  UNL     1      -6.050 167.446 399.491  1.00  0.00    -0.325 N
HETATM    2  C4  UNL     1      -4.625 167.251 399.615  1.00  0.00     0.319 C
HETATM    3  O1  UNL     1      -4.177 166.373 400.386  1.00  0.00    -0.247 OA
HETATM    4  N2  UNL     1      -3.691 168.028 398.884  1.00  0.00    -0.338 N
ATOM      5  H2  UNL     1      -4.028 168.750 398.247  1.00  0.00     0.164 HD
ENDROOT
BRANCH   1   6
HETATM    6  C3  UNL     1      -6.585 168.438 398.632  1.00  0.00     0.148 C
BRANCH   6   7
HETATM    7  C2  UNL     1      -6.863 168.092 397.224  1.00  0.00     0.096 C
HETATM    8  C1  UNL     1      -6.072 166.981 396.609  1.00  0.00     0.028 C
HETATM    9 CL1  UNL     1      -8.587 167.547 397.177  1.00  0.00    -0.124 Cl
ENDBRANCH   6   7
ENDBRANCH   1   6
BRANCH   1  10
HETATM   10  C10 UNL     1      -6.855 166.597 400.331  1.00  0.00     0.026 C
HETATM   11  C11 UNL     1      -7.306 165.359 399.537  1.00  0.00     0.037 C
HETATM   12  C12 UNL     1      -8.168 167.298 400.705  1.00  0.00     0.037 C
HETATM   13  C13 UNL     1      -6.237 166.103 401.592  1.00  0.00     0.037 C
ENDBRANCH   1  10
BRANCH   4  14
HETATM   14  C5  UNL     1      -2.275 167.815 399.027  1.00  0.00     0.094 A
HETATM   15  C6  UNL     1      -1.352 168.419 397.978  1.00  0.00     0.036 A
HETATM   16  C7  UNL     1      -1.529 166.958 398.076  1.00  0.00    -0.025 A
HETATM   17  C8  UNL     1      -0.460 166.077 398.674  1.00  0.00     0.017 C
HETATM   18  C9  UNL     1      -2.248 166.311 396.904  1.00  0.00     0.017 C
ENDBRANCH   4  14
TORSDOF 4
ENDMDL