MODEL 2
REMARK VINA RESULT: -6.990483341      1.447      2.115
REMARK  3 active torsions:
REMARK  status: ('A' for Active; 'I' for Inactive)
REMARK    1  A    between atoms: C2_2  and  C3_3
REMARK    2  A    between atoms: C3_3  and  C4_4
REMARK    3  A    between atoms: C9_9  and  C10_10
ROOT
HETATM    1  C4  UNL     1       0.430 166.296 397.797  1.00  0.00     0.009 A
HETATM    2  C5  UNL     1       0.509 167.381 397.050  1.00  0.00     0.025 A
HETATM    3  C6  UNL     1      -0.699 167.976 396.517  1.00  0.00     0.004 A
HETATM    4  C7  UNL     1      -1.919 167.456 396.761  1.00  0.00     0.029 A
HETATM    5  C8  UNL     1      -2.052 166.267 397.575  1.00  0.00     0.032 A
HETATM    6  C9  UNL     1      -3.241 165.723 397.836  1.00  0.00     0.030 C
HETATM    7  N1  UNL     1      -0.830 165.710 398.081  1.00  0.00    -0.360 N
ATOM      8  H1  UNL     1      -0.869 164.871 398.660  1.00  0.00     0.166 HD
ENDROOT
BRANCH   6   9
HETATM    9  C10 UNL     1      -4.494 166.204 397.380  1.00  0.00     0.008 C
HETATM   10  C11 UNL     1      -5.355 166.845 398.124  1.00  0.00    -0.046 C
HETATM   11  C12 UNL     1      -6.637 167.272 397.434  1.00  0.00     0.037 C
HETATM   12  C17 UNL     1      -5.074 167.119 399.524  1.00  0.00     0.199 C
HETATM   13  C13 UNL     1      -6.621 168.763 397.210  1.00  0.00     0.004 C
HETATM   14  C14 UNL     1      -6.161 169.555 398.394  1.00  0.00     0.000 C
HETATM   15  C15 UNL     1      -4.717 169.475 398.703  1.00  0.00     0.003 C
HETATM   16  C16 UNL     1      -4.297 168.390 399.625  1.00  0.00     0.042 C
HETATM   17  F1  UNL     1      -6.229 167.152 400.304  1.00  0.00    -0.245 F
ENDBRANCH   6   9
BRANCH   1  18
HETATM   18  C3  UNL     1       1.686 165.715 398.323  1.00  0.00     0.056 C
BRANCH  18  19
HETATM   19  C2  UNL     1       2.486 165.014 397.271  1.00  0.00     0.002 C
HETATM   20  C1  UNL     1       3.961 165.226 397.618  1.00  0.00     0.005 C
ENDBRANCH  18  19
ENDBRANCH   1  18
TORSDOF 3
ENDMDL