MODEL 2
REMARK VINA RESULT: -6.776428236      1.442      2.397
REMARK  3 active torsions:
REMARK  status: ('A' for Active; 'I' for Inactive)
REMARK    1  A    between atoms: C1_2  and  C2_3
REMARK    2  A    between atoms: C2_3  and  C3_4
REMARK    3  A    between atoms: C4_5  and  C5_6
ROOT
HETATM    1  C5  UNL     1      -4.230 168.364 398.883  1.00  0.00    -0.013 A
HETATM    2  C6  UNL     1      -5.104 169.338 398.435  1.00  0.00     0.100 A
HETATM    3  N1  UNL     1      -6.370 168.943 398.632  1.00  0.00    -0.368 N
ATOM      4  H1  UNL     1      -7.205 169.476 398.390  1.00  0.00     0.165 HD
HETATM    5  C7  UNL     1      -6.355 167.728 399.202  1.00  0.00     0.016 A
HETATM    6  C8  UNL     1      -5.018 167.350 399.366  1.00  0.00    -0.024 A
HETATM    7  C9  UNL     1      -4.742 166.047 399.974  1.00  0.00     0.041 C
HETATM    8  C10 UNL     1      -5.558 165.978 401.249  1.00  0.00     0.005 C
HETATM    9  C11 UNL     1      -7.014 166.062 400.940  1.00  0.00     0.006 C
HETATM   10  C12 UNL     1      -7.370 166.750 399.668  1.00  0.00     0.057 C
ENDROOT
BRANCH   1  11
HETATM   11  C4  UNL     1      -2.784 168.384 398.861  1.00  0.00     0.009 C
HETATM   12  C3  UNL     1      -2.112 167.683 397.953  1.00  0.00    -0.025 C
BRANCH  12  13
HETATM   13  C2  UNL     1      -0.635 167.696 397.922  1.00  0.00     0.038 C
BRANCH  13  14
HETATM   14  C1  UNL     1      -0.033 166.335 398.211  1.00  0.00     0.089 C
HETATM   15 BR1  UNL     1       1.577 166.083 397.169  1.00  0.00    -0.096 Br
ENDBRANCH  13  14
ENDBRANCH  12  13
ENDBRANCH   1  11
TORSDOF 3
ENDMDL