MODEL 4
REMARK VINA RESULT: -7.145728666      0.732      1.175
REMARK  5 active torsions:
REMARK  status: ('A' for Active; 'I' for Inactive)
REMARK    1  A    between atoms: C3_6  and  C4_7
REMARK    2  A    between atoms: C5_8  and  C6_9
REMARK    3  A    between atoms: C7_10  and  C8_11
REMARK    4  A    between atoms: C8_11  and  C9_12
REMARK    5  A    between atoms: C9_12  and  C12_15
ROOT
HETATM    1  C6  UNL     1      -2.519 168.031 399.007  1.00  0.00    -0.004 C
HETATM    2  C7  UNL     1      -3.734 168.233 399.496  1.00  0.00    -0.026 C
ENDROOT
BRANCH   1   3
HETATM    3  C5  UNL     1      -2.204 168.171 397.616  1.00  0.00     0.002 C
HETATM    4  C4  UNL     1      -1.246 167.730 396.918  1.00  0.00     0.031 C
BRANCH   4   5
HETATM    5  C3  UNL     1      -0.105 166.915 397.282  1.00  0.00     0.048 A
HETATM    6  N2  UNL     1       1.038 166.614 396.675  1.00  0.00    -0.351 N
HETATM    7  C2  UNL     1       1.790 165.782 397.471  1.00  0.00     0.182 A
ATOM      8  H2  UNL     1       1.317 166.952 395.754  1.00  0.00     0.166 HD
HETATM    9  N1  UNL     1       1.132 165.542 398.598  1.00  0.00    -0.355 N
HETATM   10  C1  UNL     1       1.590 164.697 399.720  1.00  0.00     0.156 C
HETATM   11  C16 UNL     1      -0.013 166.210 398.513  1.00  0.00     0.120 A
ENDBRANCH   4   5
ENDBRANCH   1   3
BRANCH   2  12
HETATM   12  C8  UNL     1      -4.887 168.610 398.752  1.00  0.00     0.036 C
BRANCH  12  13
HETATM   13  C9  UNL     1      -6.074 167.692 398.709  1.00  0.00    -0.038 C
HETATM   14  C10 UNL     1      -5.958 166.861 397.451  1.00  0.00     0.016 C
HETATM   15  C11 UNL     1      -5.972 166.685 399.866  1.00  0.00     0.016 C
BRANCH  13  16
HETATM   16  C12 UNL     1      -7.424 168.287 398.767  1.00  0.00    -0.044 C
HETATM   17  C13 UNL     1      -8.188 167.724 397.551  1.00  0.00     0.015 C
HETATM   18  C14 UNL     1      -8.266 167.889 399.953  1.00  0.00     0.015 C
HETATM   19  C15 UNL     1      -7.448 169.787 398.592  1.00  0.00     0.015 C
ENDBRANCH  13  16
ENDBRANCH  12  13
ENDBRANCH   2  12
TORSDOF 5
ENDMDL