MODEL 1
REMARK VINA RESULT: -6.911500077      0.000      0.000
REMARK  3 active torsions:
REMARK  status: ('A' for Active; 'I' for Inactive)
REMARK    1  A    between atoms: C2_2  and  C3_4
REMARK       I    between atoms: C3_4  and  N1_6
REMARK    2  A    between atoms: N1_6  and  C4_8
REMARK    3  A    between atoms: C4_8  and  C5_9
ROOT
HETATM    1  C5  UNL     1      -5.545 167.257 399.050  1.00  0.00    -0.007 C
HETATM    2  C6  UNL     1      -5.801 166.783 397.600  1.00  0.00     0.019 C
HETATM    3  C7  UNL     1      -6.914 167.553 396.996  1.00  0.00    -0.013 C
HETATM    4  C8  UNL     1      -6.677 169.027 396.949  1.00  0.00     0.009 C
HETATM    5  C9  UNL     1      -6.453 169.474 398.389  1.00  0.00    -0.013 C
HETATM    6  C10 UNL     1      -7.645 169.194 399.246  1.00  0.00     0.009 C
HETATM    7  C11 UNL     1      -7.977 167.695 399.185  1.00  0.00    -0.013 C
HETATM    8  C12 UNL     1      -8.199 167.300 397.773  1.00  0.00     0.009 C
HETATM    9  C13 UNL     1      -6.765 167.025 399.836  1.00  0.00     0.019 C
HETATM   10  C14 UNL     1      -5.243 168.755 398.897  1.00  0.00     0.019 C
ENDROOT
BRANCH   1  11
HETATM   11  C4  UNL     1      -4.336 166.564 399.547  1.00  0.00     0.073 C
BRANCH  11  12
HETATM   12  N1  UNL     1      -3.046 166.996 399.197  1.00  0.00    -0.339 N
HETATM   13  C3  UNL     1      -2.217 166.687 398.102  1.00  0.00     0.239 C
HETATM   14  O1  UNL     1      -2.521 165.932 397.168  1.00  0.00    -0.272 OA
ATOM     15  H1  UNL     1      -2.634 167.655 399.858  1.00  0.00     0.167 HD
BRANCH  13  16
HETATM   16  C2  UNL     1      -0.826 167.301 398.007  1.00  0.00     0.170 C
HETATM   17  C1  UNL     1      -0.654 167.786 396.571  1.00  0.00     0.037 C
HETATM   18 CL1  UNL     1       0.308 165.984 398.360  1.00  0.00    -0.115 Cl
ENDBRANCH  13  16
ENDBRANCH  11  12
ENDBRANCH   1  11
TORSDOF 3
ENDMDL