MODEL 4
REMARK VINA RESULT: -6.151023748      1.895      3.846
REMARK  3 active torsions:
REMARK  status: ('A' for Active; 'I' for Inactive)
REMARK    1  A    between atoms: C2_2  and  C3_3
REMARK    2  A    between atoms: C3_3  and  C4_4
REMARK    3  A    between atoms: C4_4  and  C5_5
ROOT
HETATM    1  C5  UNL     1      -4.624 167.747 398.393  1.00  0.00    -0.016 A
HETATM    2  C6  UNL     1      -3.887 168.867 398.683  1.00  0.00     0.086 A
HETATM    3 BR1  UNL     1      -2.025 168.955 399.134  1.00  0.00    -0.031 Br
HETATM    4  N1  UNL     1      -4.748 169.920 398.638  1.00  0.00    -0.353 N
ATOM      5  H1  UNL     1      -4.493 170.892 398.811  1.00  0.00     0.166 HD
HETATM    6  C7  UNL     1      -5.980 169.491 398.335  1.00  0.00     0.017 A
HETATM    7  C8  UNL     1      -5.953 168.128 398.170  1.00  0.00    -0.026 A
HETATM    8  C9  UNL     1      -7.216 167.448 397.829  1.00  0.00     0.041 C
HETATM    9  C10 UNL     1      -8.281 167.913 398.834  1.00  0.00     0.005 C
HETATM   10  C11 UNL     1      -8.321 169.392 399.001  1.00  0.00     0.006 C
HETATM   11  C12 UNL     1      -7.323 170.146 398.144  1.00  0.00     0.057 C
ENDROOT
BRANCH   1  12
HETATM   12  C4  UNL     1      -4.224 166.347 398.249  1.00  0.00     0.042 C
BRANCH  12  13
HETATM   13  C3  UNL     1      -4.199 165.567 399.523  1.00  0.00     0.004 C
BRANCH  13  14
HETATM   14  C2  UNL     1      -4.638 166.279 400.740  1.00  0.00    -0.004 C
HETATM   15  C1  UNL     1      -5.918 165.668 401.326  1.00  0.00     0.005 C
ENDBRANCH  13  14
ENDBRANCH  12  13
ENDBRANCH   1  12
TORSDOF 3
ENDMDL