MODEL 4
REMARK VINA RESULT: -5.704986366      1.633      1.987
REMARK  3 active torsions:
REMARK  status: ('A' for Active; 'I' for Inactive)
REMARK    1  A    between atoms: C4_5  and  C5_6
REMARK    2  A    between atoms: C5_6  and  N1_7
REMARK       I    between atoms: N1_7  and  C6_9
REMARK    3  A    between atoms: C6_9  and  C7_11
ROOT
HETATM    1  N1  UNL     1      -3.751 167.141 399.394  1.00  0.00    -0.360 N
ATOM      2  H1  UNL     1      -3.642 167.998 398.852  1.00  0.00     0.162 HD
HETATM    3  C6  UNL     1      -5.044 166.812 399.852  1.00  0.00     0.222 C
HETATM    4  O1  UNL     1      -5.199 165.767 400.521  1.00  0.00    -0.273 OA
ENDROOT
BRANCH   3   5
HETATM    5  C7  UNL     1      -6.182 167.673 399.552  1.00  0.00     0.087 C
HETATM    6  C8  UNL     1      -7.456 166.825 399.405  1.00  0.00     0.024 C
HETATM    7  C9  UNL     1      -7.873 167.824 398.322  1.00  0.00    -0.039 C
HETATM    8  C10 UNL     1      -8.589 169.018 398.867  1.00  0.00     0.015 C
HETATM    9  C11 UNL     1      -8.501 167.205 397.110  1.00  0.00     0.015 C
HETATM   10  C12 UNL     1      -6.382 168.078 398.115  1.00  0.00    -0.029 C
HETATM   11  C13 UNL     1      -6.157 169.516 397.788  1.00  0.00     0.016 C
HETATM   12  C14 UNL     1      -5.754 167.155 397.101  1.00  0.00     0.016 C
ENDBRANCH   3   5
BRANCH   1  13
HETATM   13  C5  UNL     1      -2.566 166.346 399.643  1.00  0.00     0.129 C
BRANCH  13  14
HETATM   14  C4  UNL     1      -1.717 166.153 398.409  1.00  0.00     0.028 A
HETATM   15  C2  UNL     1      -1.005 167.241 397.762  1.00  0.00     0.039 A
HETATM   16  C1  UNL     1      -1.099 168.675 398.164  1.00  0.00     0.033 C
HETATM   17 CL1  UNL     1       0.545 166.826 396.950  1.00  0.00    -0.119 Cl
HETATM   18  C3  UNL     1      -2.269 166.686 397.122  1.00  0.00     0.034 A
ENDBRANCH  13  14
ENDBRANCH   1  13
TORSDOF 3
ENDMDL