MODEL 5
REMARK VINA RESULT: -6.663418906      1.459      2.551
REMARK  4 active torsions:
REMARK  status: ('A' for Active; 'I' for Inactive)
REMARK    1  A    between atoms: C2_2  and  C3_3
REMARK    2  A    between atoms: C2_2  and  N1_9
REMARK    3  A    between atoms: C12_14  and  O1_15
REMARK    4  A    between atoms: C12_14  and  C13_17
ROOT
HETATM    1  N1  UNL     1      -5.258 167.341 398.712  1.00  0.00    -0.038 N
HETATM    2  C8  UNL     1      -5.701 166.675 397.490  1.00  0.00     0.244 C
HETATM    3  C9  UNL     1      -7.205 166.553 397.552  1.00  0.00     0.038 C
HETATM    4  C10 UNL     1      -7.493 167.481 398.720  1.00  0.00     0.050 C
HETATM    5  C11 UNL     1      -6.345 167.011 399.636  1.00  0.00     0.251 C
HETATM    6  C12 UNL     1      -7.022 168.825 398.309  1.00  0.00     0.087 C
HETATM    7  C15 UNL     1      -5.505 168.756 398.592  1.00  0.00     0.281 C
ENDROOT
BRANCH   1   8
HETATM    8  C2  UNL     1      -3.993 166.942 399.107  1.00  0.00     0.109 C
HETATM    9  C1  UNL     1      -3.893 166.268 400.270  1.00  0.00     0.046 C
BRANCH   8  10
HETATM   10  C3  UNL     1      -2.781 167.159 398.345  1.00  0.00     0.045 C
HETATM   11  C4  UNL     1      -1.697 166.120 398.664  1.00  0.00     0.013 C
HETATM   12  C5  UNL     1      -0.445 166.665 398.054  1.00  0.00     0.038 C
HETATM   13  C6  UNL     1      -0.726 168.091 397.733  1.00  0.00     0.170 C
HETATM   14  F1  UNL     1      -1.090 168.215 396.406  1.00  0.00    -0.249 F
HETATM   15  C7  UNL     1      -1.998 168.410 398.539  1.00  0.00     0.048 C
ENDBRANCH   8  10
ENDBRANCH   1   8
BRANCH   6  16
HETATM   16  O1  UNL     1      -7.200 169.083 396.947  1.00  0.00    -0.388 OA
ATOM     17  H1  UNL     1      -7.847 169.756 396.772  1.00  0.00     0.210 HD
ENDBRANCH   6  16
BRANCH   6  18
HETATM   18  C13 UNL     1      -7.593 169.969 399.077  1.00  0.00     0.035 C
HETATM   19  C14 UNL     1      -7.227 171.250 398.334  1.00  0.00     0.008 C
ENDBRANCH   6  18
TORSDOF 4
ENDMDL