MODEL 5
REMARK VINA RESULT: -4.287895195      2.305      5.206
REMARK  2 active torsions:
REMARK  status: ('A' for Active; 'I' for Inactive)
REMARK    1  A    between atoms: C4_5  and  N1_6
REMARK    2  A    between atoms: N1_6  and  C5_8
ROOT
HETATM    1  C5  UNL     1    -135.855-184.608 297.590  1.00  0.00     0.091 C
HETATM    2  C6  UNL     1    -136.742-185.768 297.526  1.00  0.00     0.026 C
HETATM    3  C7  UNL     1    -136.456-186.801 296.479  1.00  0.00     0.002 C
HETATM    4  C8  UNL     1    -135.444-186.425 295.458  1.00  0.00     0.001 C
HETATM    5  C9  UNL     1    -135.754-184.977 295.087  1.00  0.00     0.018 C
HETATM    6  C10 UNL     1    -135.241-184.177 296.268  1.00  0.00     0.080 C
HETATM    7 BR1  UNL     1    -135.726-182.321 295.842  1.00  0.00    -0.089 Br
ENDROOT
BRANCH   1   8
HETATM    8  N1  UNL     1    -136.609-183.429 298.053  1.00  0.00    -0.409 N
ATOM      9  H1  UNL     1    -136.404-182.485 297.726  1.00  0.00     0.154 HD
BRANCH   8  10
HETATM   10  C4  UNL     1    -137.637-183.706 298.985  1.00  0.00     0.119 A
HETATM   11  C2  UNL     1    -138.763-182.839 299.332  1.00  0.00     0.121 A
HETATM   12  C1  UNL     1    -140.066-183.436 299.839  1.00  0.00     0.054 C
HETATM   13  F1  UNL     1    -138.901-181.535 298.868  1.00  0.00    -0.241 F
HETATM   14  C3  UNL     1    -137.639-183.036 300.323  1.00  0.00     0.073 A
ENDBRANCH   8  10
ENDBRANCH   1   8
TORSDOF 2
ENDMDL