MODEL 3
REMARK VINA RESULT: -5.279530061      3.554      6.487
REMARK  2 active torsions:
REMARK  status: ('A' for Active; 'I' for Inactive)
REMARK    1  A    between atoms: C3_3  and  N1_4
REMARK       I    between atoms: N1_4  and  C4_6
REMARK    2  A    between atoms: C4_6  and  C5_8
ROOT
HETATM    1  C1  UNL     1    -141.285-181.957 302.141  1.00  0.00     0.014 C
HETATM    2  C2  UNL     1    -140.352-181.537 301.504  1.00  0.00    -0.098 C
HETATM    3  C3  UNL     1    -139.204-180.998 300.734  1.00  0.00     0.216 C
ENDROOT
BRANCH   3   4
HETATM    4  N1  UNL     1    -138.568-182.081 300.036  1.00  0.00    -0.348 N
HETATM    5  C4  UNL     1    -138.787-182.378 298.670  1.00  0.00     0.258 C
HETATM    6  O1  UNL     1    -139.575-181.667 298.020  1.00  0.00    -0.270 OA
ATOM      7  H1  UNL     1    -137.919-182.671 300.556  1.00  0.00     0.163 HD
BRANCH   5   8
HETATM    8  C5  UNL     1    -138.090-183.512 298.026  1.00  0.00     0.188 C
HETATM    9  F1  UNL     1    -139.095-184.461 297.759  1.00  0.00    -0.232 F
HETATM   10  C6  UNL     1    -137.152-184.207 298.995  1.00  0.00     0.060 C
HETATM   11  C7  UNL     1    -136.135-184.937 298.143  1.00  0.00     0.008 C
HETATM   12  C8  UNL     1    -135.207-183.830 297.619  1.00  0.00     0.011 C
HETATM   13  C12 UNL     1    -136.767-185.551 296.911  1.00  0.00     0.091 C
HETATM   14  C9  UNL     1    -136.012-183.008 296.671  1.00  0.00    -0.006 C
HETATM   15  C10 UNL     1    -136.052-183.796 295.346  1.00  0.00     0.011 C
HETATM   16  C13 UNL     1    -137.470-183.183 296.725  1.00  0.00     0.045 C
HETATM   17  C11 UNL     1    -137.268-184.504 295.965  1.00  0.00     0.013 C
HETATM   18 CL1  UNL     1    -135.456-186.469 296.085  1.00  0.00    -0.124 Cl
ENDBRANCH   5   8
ENDBRANCH   3   4
TORSDOF 2
ENDMDL