MODEL 1
REMARK VINA RESULT: -4.930038622      0.000      0.000
REMARK  2 active torsions:
REMARK  status: ('A' for Active; 'I' for Inactive)
REMARK    1  A    between atoms: C1_2  and  C2_3
REMARK    2  A    between atoms: C2_3  and  C3_4
ROOT
HETATM    1  C3  UNL     1    -136.632-184.456 298.508  1.00  0.00    -0.008 C
HETATM    2  C4  UNL     1    -136.013-185.779 298.907  1.00  0.00     0.011 C
HETATM    3  C5  UNL     1    -136.199-186.702 297.704  1.00  0.00     0.058 C
HETATM    4  C6  UNL     1    -135.780-186.018 296.469  1.00  0.00     0.016 A
HETATM    5  N1  UNL     1    -135.570-186.533 295.235  1.00  0.00    -0.367 N
ATOM      6  H1  UNL     1    -135.684-187.517 294.994  1.00  0.00     0.165 HD
HETATM    7  C7  UNL     1    -135.195-185.582 294.375  1.00  0.00     0.107 A
HETATM    8  C8  UNL     1    -135.160-184.388 295.084  1.00  0.00     0.034 A
HETATM    9 BR1  UNL     1    -134.680-182.718 294.299  1.00  0.00    -0.049 Br
HETATM   10  C9  UNL     1    -135.524-184.666 296.385  1.00  0.00    -0.017 A
HETATM   11  C10 UNL     1    -135.659-183.785 297.575  1.00  0.00     0.046 C
ENDROOT
BRANCH   1  12
HETATM   12  C2  UNL     1    -136.973-183.607 299.702  1.00  0.00     0.036 C
BRANCH  12  13
HETATM   13  C1  UNL     1    -138.434-183.241 299.751  1.00  0.00     0.222 C
HETATM   14  F1  UNL     1    -138.980-183.877 300.860  1.00  0.00    -0.255 F
ENDBRANCH  12  13
ENDBRANCH   1  12
TORSDOF 2
ENDMDL