MODEL 2
REMARK VINA RESULT: -4.297090168      4.010      4.971
REMARK  2 active torsions:
REMARK  status: ('A' for Active; 'I' for Inactive)
REMARK    1  A    between atoms: C5_6  and  C6_7
REMARK    2  A    between atoms: C6_7  and  C7_8
ROOT
HETATM    1  C7  UNL     1    -136.815-186.977 296.184  1.00  0.00     0.028 C
HETATM    2  C8  UNL     1    -137.751-187.907 296.927  1.00  0.00     0.238 C
HETATM    3  N1  UNL     1    -138.867-188.138 296.010  1.00  0.00    -0.074 N
ATOM      4  H11 UNL     1    -139.615-187.445 296.046  1.00  0.00     0.277 HD
ATOM      5  H12 UNL     1    -139.468-188.929 296.241  1.00  0.00     0.277 HD
HETATM    6  C9  UNL     1    -138.166-188.235 294.745  1.00  0.00     0.248 C
HETATM    7  C10 UNL     1    -137.311-186.989 294.775  1.00  0.00     0.089 C
HETATM    8 BR1  UNL     1    -135.872-187.112 293.485  1.00  0.00    -0.089 Br
ENDROOT
BRANCH   1   9
HETATM    9  C6  UNL     1    -136.812-185.592 296.826  1.00  0.00     0.015 C
BRANCH   9  10
HETATM   10  C5  UNL     1    -135.548-185.466 297.627  1.00  0.00     0.025 C
HETATM   11  C2  UNL     1    -135.106-184.045 297.907  1.00  0.00     0.103 C
HETATM   12  C1  UNL     1    -135.439-183.048 296.832  1.00  0.00     0.052 C
HETATM   13  F1  UNL     1    -133.795-184.004 298.275  1.00  0.00    -0.243 F
HETATM   14  C3  UNL     1    -136.060-184.067 299.082  1.00  0.00     0.044 C
HETATM   15  C4  UNL     1    -135.838-185.566 299.112  1.00  0.00     0.011 C
ENDBRANCH   9  10
ENDBRANCH   1   9
TORSDOF 2
ENDMDL