MODEL 1
REMARK VINA RESULT: -4.180252568      0.000      0.000
REMARK  2 active torsions:
REMARK  status: ('A' for Active; 'I' for Inactive)
REMARK    1  A    between atoms: C2_2  and  C3_3
REMARK    2  A    between atoms: C7_7  and  C8_8
ROOT
HETATM    1  C3  UNL     1    -137.320-184.151 298.200  1.00  0.00    -0.022 C
HETATM    2  C4  UNL     1    -136.240-184.067 299.298  1.00  0.00     0.017 C
HETATM    3  C5  UNL     1    -137.321-185.496 297.536  1.00  0.00     0.005 C
HETATM    4  C6  UNL     1    -136.151-186.384 297.844  1.00  0.00     0.011 C
HETATM    5  C7  UNL     1    -137.279-184.786 296.214  1.00  0.00     0.099 C
HETATM    6  C9  UNL     1    -136.802-183.558 296.926  1.00  0.00     0.034 C
HETATM    7  C10 UNL     1    -137.442-182.322 296.409  1.00  0.00     0.029 C
HETATM    8 BR1  UNL     1    -134.866-183.284 296.937  1.00  0.00    -0.084 Br
ENDROOT
BRANCH   1   9
HETATM    9  C2  UNL     1    -138.578-183.671 298.797  1.00  0.00     0.006 C
HETATM   10  C1  UNL     1    -138.600-183.177 300.186  1.00  0.00     0.006 C
ENDBRANCH   1   9
BRANCH   5  11
HETATM   11  C8  UNL     1    -136.464-185.448 295.230  1.00  0.00     0.237 C
HETATM   12  N1  UNL     1    -135.111-185.300 294.901  1.00  0.00    -0.062 NA
HETATM   13  O1  UNL     1    -137.057-186.345 294.505  1.00  0.00    -0.276 OA
ENDBRANCH   5  11
TORSDOF 2
ENDMDL