MODEL 2
REMARK VINA RESULT: -4.662797837      2.089      2.838
REMARK  2 active torsions:
REMARK  status: ('A' for Active; 'I' for Inactive)
REMARK    1  A    between atoms: C3_3  and  N1_4
REMARK       I    between atoms: N1_4  and  C4_6
REMARK    2  A    between atoms: C4_6  and  C5_8
ROOT
HETATM    1  C1  UNL     1    -140.643-182.337 301.012  1.00  0.00     0.014 C
HETATM    2  C2  UNL     1    -139.490-182.539 300.726  1.00  0.00    -0.098 C
HETATM    3  C3  UNL     1    -138.077-182.812 300.367  1.00  0.00     0.216 C
ENDROOT
BRANCH   3   4
HETATM    4  N1  UNL     1    -137.979-183.599 299.175  1.00  0.00    -0.350 N
HETATM    5  C4  UNL     1    -136.806-184.325 298.863  1.00  0.00     0.228 C
HETATM    6  O1  UNL     1    -135.851-184.250 299.679  1.00  0.00    -0.273 OA
ATOM      7  H1  UNL     1    -138.773-183.636 298.536  1.00  0.00     0.163 HD
BRANCH   5   8
HETATM    8  C5  UNL     1    -136.641-185.151 297.658  1.00  0.00     0.062 C
HETATM    9  C6  UNL     1    -136.239-186.565 298.056  1.00  0.00     0.027 C
HETATM   10  C7  UNL     1    -137.876-185.103 296.789  1.00  0.00     0.049 C
HETATM   11  C8  UNL     1    -137.107-184.290 295.806  1.00  0.00     0.066 A
HETATM   12 CL1  UNL     1    -137.541-182.620 295.476  1.00  0.00    -0.117 Cl
HETATM   13  C9  UNL     1    -135.953-184.943 295.157  1.00  0.00     0.034 A
HETATM   14  C11 UNL     1    -135.786-184.558 296.568  1.00  0.00     0.080 A
HETATM   15  C10 UNL     1    -135.242-184.124 294.118  1.00  0.00     0.014 C
HETATM   16 CL2  UNL     1    -134.744-183.184 296.900  1.00  0.00    -0.115 Cl
ENDBRANCH   5   8
ENDBRANCH   3   4
TORSDOF 2
ENDMDL