MODEL 5
REMARK VINA RESULT: -3.743635978      2.115      2.733
REMARK  2 active torsions:
REMARK  status: ('A' for Active; 'I' for Inactive)
REMARK    1  A    between atoms: C2_2  and  C3_4
REMARK    2  A    between atoms: C7_12  and  C8_13
ROOT
HETATM    1  C3  UNL     1    -136.370-184.546 296.858  1.00  0.00     0.242 C
HETATM    2  N1  UNL     1    -136.008-183.213 297.198  1.00  0.00    -0.059 N
ATOM      3  H11 UNL     1    -135.232-182.749 296.726  1.00  0.00     0.278 HD
ATOM      4  H12 UNL     1    -135.569-183.007 298.096  1.00  0.00     0.278 HD
HETATM    5  C4  UNL     1    -137.346-182.819 296.943  1.00  0.00     0.218 A
HETATM    6  C5  UNL     1    -138.384-183.313 297.904  1.00  0.00     0.055 A
HETATM    7  C6  UNL     1    -138.017-183.523 299.370  1.00  0.00     0.031 C
HETATM    8 BR1  UNL     1    -140.054-182.358 297.722  1.00  0.00    -0.083 Br
HETATM    9  C7  UNL     1    -137.867-184.204 296.871  1.00  0.00     0.042 A
ENDROOT
BRANCH   1  10
HETATM   10  C2  UNL     1    -135.973-185.648 297.730  1.00  0.00     0.034 C
HETATM   11  C1  UNL     1    -136.392-186.871 297.478  1.00  0.00     0.034 C
HETATM   12 CL1  UNL     1    -134.934-185.310 299.100  1.00  0.00    -0.088 Cl
ENDBRANCH   1  10
BRANCH   9  13
HETATM   13  C8  UNL     1    -138.604-184.782 295.739  1.00  0.00     0.011 C
HETATM   14  C9  UNL     1    -139.623-185.823 296.009  1.00  0.00     0.006 C
ENDBRANCH   9  13
TORSDOF 2
ENDMDL