MODEL 3
REMARK VINA RESULT: -4.909039171      7.117      7.906
REMARK  2 active torsions:
REMARK  status: ('A' for Active; 'I' for Inactive)
REMARK       I    between atoms: C1_2  and  N1_3
REMARK    1  A    between atoms: C1_2  and  C6_9
REMARK    2  A    between atoms: N1_3  and  C2_5
ROOT
HETATM    1  C6  UNL     1    -139.653-181.422 300.855  1.00  0.00     0.085 C
HETATM    2  C7  UNL     1    -141.177-181.489 301.082  1.00  0.00     0.022 C
HETATM    3  C8  UNL     1    -141.606-180.419 300.108  1.00  0.00     0.026 C
HETATM    4  C9  UNL     1    -140.741-180.781 298.888  1.00  0.00     0.016 C
HETATM    5  C10 UNL     1    -139.605-180.348 299.827  1.00  0.00     0.038 C
HETATM    6  C11 UNL     1    -140.622-179.299 300.297  1.00  0.00     0.121 C
HETATM    7 CL1  UNL     1    -140.327-178.795 301.955  1.00  0.00    -0.101 Cl
HETATM    8 CL2  UNL     1    -140.833-177.987 299.131  1.00  0.00    -0.101 Cl
ENDROOT
BRANCH   1   9
HETATM    9  C1  UNL     1    -139.136-182.685 300.305  1.00  0.00     0.222 C
HETATM   10  O1  UNL     1    -139.849-183.722 300.272  1.00  0.00    -0.273 OA
HETATM   11  N1  UNL     1    -137.816-182.796 299.790  1.00  0.00    -0.356 N
ATOM     12  H1  UNL     1    -137.216-181.971 299.805  1.00  0.00     0.162 HD
BRANCH  11  13
HETATM   13  C2  UNL     1    -137.290-184.015 299.249  1.00  0.00     0.084 C
HETATM   14  C3  UNL     1    -135.811-184.210 299.330  1.00  0.00     0.025 C
HETATM   15  C4  UNL     1    -135.811-184.452 297.817  1.00  0.00     0.004 C
HETATM   16  C5  UNL     1    -137.228-183.946 297.737  1.00  0.00     0.025 C
ENDBRANCH  11  13
ENDBRANCH   1   9
TORSDOF 2
ENDMDL