MODEL 5
REMARK VINA RESULT: -4.272614415      1.844      4.266
REMARK  2 active torsions:
REMARK  status: ('A' for Active; 'I' for Inactive)
REMARK    1  A    between atoms: C2_2  and  C3_6
REMARK    2  A    between atoms: C6_9  and  N2_10
ROOT
HETATM    1  C3  UNL     1    -136.906-183.512 297.355  1.00  0.00     0.056 C
HETATM    2  C4  UNL     1    -135.966-184.055 296.277  1.00  0.00     0.025 C
HETATM    3  C5  UNL     1    -135.071-182.917 295.841  1.00  0.00     0.013 C
HETATM    4  C6  UNL     1    -136.823-184.555 295.166  1.00  0.00     0.213 C
HETATM    5  C10 UNL     1    -138.151-184.828 295.789  1.00  0.00     0.133 C
HETATM    6 CL1  UNL     1    -138.285-186.342 296.645  1.00  0.00    -0.121 Cl
HETATM    7  C11 UNL     1    -138.250-183.704 296.800  1.00  0.00     0.112 C
HETATM    8 CL2  UNL     1    -139.556-183.968 297.956  1.00  0.00    -0.123 Cl
ENDROOT
BRANCH   1   9
HETATM    9  C2  UNL     1    -136.593-184.093 298.658  1.00  0.00    -0.018 C
HETATM   10  C1  UNL     1    -135.849-185.379 298.710  1.00  0.00     0.063 C
HETATM   11  N1  UNL     1    -136.929-183.540 299.744  1.00  0.00    -0.405 N
ATOM     12  H12 UNL     1    -136.710-183.946 300.653  1.00  0.00     0.155 HD
ATOM     13  H11 UNL     1    -137.440-182.657 299.708  1.00  0.00     0.155 HD
ENDBRANCH   1   9
BRANCH   4  14
HETATM   14  N2  UNL     1    -136.272-185.600 294.382  1.00  0.00    -0.072 N
HETATM   15  C7  UNL     1    -135.344-186.457 295.056  1.00  0.00     0.272 C
HETATM   16  C8  UNL     1    -135.475-184.968 293.311  1.00  0.00     0.272 C
HETATM   17  C9  UNL     1    -137.287-186.371 293.711  1.00  0.00     0.272 C
ENDBRANCH   4  14
TORSDOF 2
ENDMDL