MODEL 2
REMARK VINA RESULT: -3.958252882     11.067     12.242
REMARK  2 active torsions:
REMARK  status: ('A' for Active; 'I' for Inactive)
REMARK    1  A    between atoms: C2_2  and  C3_3
REMARK    2  A    between atoms: C3_3  and  C4_4
ROOT
HETATM    1  C4  UNL     1    -135.862-184.012 297.921  1.00  0.00     0.031 A
HETATM    2  N1  UNL     1    -135.373-182.977 297.233  1.00  0.00    -0.366 N
ATOM      3  H1  UNL     1    -135.247-182.032 297.597  1.00  0.00     0.165 HD
HETATM    4  C5  UNL     1    -135.073-183.376 295.995  1.00  0.00     0.108 A
HETATM    5  C6  UNL     1    -135.370-184.710 295.847  1.00  0.00     0.045 A
HETATM    6 BR1  UNL     1    -135.107-185.700 294.243  1.00  0.00    -0.048 Br
HETATM    7  C7  UNL     1    -135.866-185.095 297.071  1.00  0.00     0.052 A
HETATM    8 BR2  UNL     1    -136.453-186.878 297.462  1.00  0.00    -0.048 Br
ENDROOT
BRANCH   1   9
HETATM    9  C3  UNL     1    -136.326-184.008 299.357  1.00  0.00     0.084 C
BRANCH   9  10
HETATM   10  C2  UNL     1    -137.801-183.745 299.315  1.00  0.00    -0.031 C
HETATM   11  C1  UNL     1    -138.324-182.997 300.264  1.00  0.00     0.007 C
ENDBRANCH   9  10
ENDBRANCH   1   9
TORSDOF 2
ENDMDL