MODEL 3
REMARK VINA RESULT: -5.475664023      4.032      6.005
REMARK  3 active torsions:
REMARK  status: ('A' for Active; 'I' for Inactive)
REMARK    1  A    between atoms: O1_1  and  C1_3
REMARK    2  A    between atoms: C4_7  and  C5_8
REMARK    3  A    between atoms: C6_9  and  C7_10
ROOT
HETATM    1  C1  UNL     1      -3.547  24.926 -25.526  1.00  0.00     0.187 A
HETATM    2  C2  UNL     1      -3.960  26.191 -25.870  1.00  0.00     0.105 A
HETATM    3  C3  UNL     1      -3.271  27.065 -25.039  1.00  0.00     0.133 A
HETATM    4  O2  UNL     1      -3.061  28.310 -24.702  1.00  0.00    -0.289 OA
HETATM    5  C4  UNL     1      -2.202  28.455 -23.749  1.00  0.00     0.150 A
HETATM    6  N1  UNL     1      -1.828  27.150 -23.451  1.00  0.00    -0.315 N
ATOM      7  H1  UNL     1      -1.152  26.888 -22.733  1.00  0.00     0.170 HD
HETATM    8  C11 UNL     1      -2.477  26.285 -24.236  1.00  0.00     0.186 A
HETATM    9  O4  UNL     1      -2.672  25.029 -24.559  1.00  0.00    -0.268 OA
ENDROOT
BRANCH   5  10
HETATM   10  C5  UNL     1      -1.639  29.560 -23.035  1.00  0.00     0.059 C
HETATM   11  C6  UNL     1      -0.555  29.804 -22.436  1.00  0.00     0.041 C
BRANCH  11  12
HETATM   12  C7  UNL     1       0.643  29.061 -22.191  1.00  0.00     0.075 A
HETATM   13  C8  UNL     1       1.915  29.180 -22.660  1.00  0.00     0.039 A
HETATM   14  C9  UNL     1       2.678  28.167 -22.071  1.00  0.00     0.027 A
HETATM   15  C10 UNL     1       1.829  27.479 -21.269  1.00  0.00     0.142 A
HETATM   16  O3  UNL     1       0.654  27.993 -21.337  1.00  0.00    -0.323 OA
ENDBRANCH  11  12
ENDBRANCH   5  10
BRANCH   1  17
HETATM   17  O1  UNL     1      -3.942  23.704 -26.065  1.00  0.00    -0.341 OA
ATOM     18  H1  UNL     1      -3.525  22.855 -25.980  1.00  0.00     0.220 HD
ENDBRANCH   1  17
TORSDOF 3
ENDMDL