MODEL 2
REMARK VINA RESULT: -5.044336234      1.275      1.453
REMARK  5 active torsions:
REMARK  status: ('A' for Active; 'I' for Inactive)
REMARK    1  A    between atoms: N1_1  and  N2_4
REMARK    2  A    between atoms: N3_6  and  O1_7
REMARK    3  A    between atoms: N3_6  and  C1_9
REMARK    4  A    between atoms: C4_12  and  N4_13
REMARK    5  A    between atoms: C5_15  and  C6_16
ROOT
HETATM    1  C1  UNL     1      -5.790  27.830 -25.434  1.00  0.00     0.196 A
HETATM    2  C2  UNL     1      -5.191  27.223 -26.515  1.00  0.00     0.065 A
HETATM    3  C3  UNL     1      -3.844  27.168 -26.214  1.00  0.00     0.061 A
HETATM    4  C4  UNL     1      -3.686  27.744 -24.962  1.00  0.00     0.150 A
HETATM    5  O3  UNL     1      -4.875  28.115 -24.553  1.00  0.00    -0.273 OA
ENDROOT
BRANCH   1   6
HETATM    6  N3  UNL     1      -7.180  28.104 -25.292  1.00  0.00    -0.125 N
HETATM    7  N2  UNL     1      -7.851  27.513 -24.385  1.00  0.00    -0.221 N
ATOM      8  H2  UNL     1      -7.381  26.849 -23.770  1.00  0.00     0.210 HD
BRANCH   7   9
HETATM    9  N1  UNL     1      -9.205  27.751 -24.215  1.00  0.00    -0.329 N
ATOM     10  H12 UNL     1      -9.520  28.718 -24.150  1.00  0.00     0.178 HD
ATOM     11  H11 UNL     1      -9.877  26.986 -24.154  1.00  0.00     0.178 HD
ENDBRANCH   7   9
BRANCH   6  12
HETATM   12  O1  UNL     1      -7.823  28.992 -26.110  1.00  0.00    -0.265 OA
ATOM     13  H1  UNL     1      -8.251  28.664 -26.892  1.00  0.00     0.247 HD
ENDBRANCH   6  12
ENDBRANCH   1   6
BRANCH   4  14
HETATM   14  N4  UNL     1      -2.473  27.909 -24.241  1.00  0.00    -0.344 N
HETATM   15  C5  UNL     1      -2.005  26.969 -23.493  1.00  0.00     0.127 C
ATOM     16  H4  UNL     1      -1.962  28.789 -24.316  1.00  0.00     0.167 HD
BRANCH  15  17
HETATM   17  C6  UNL     1      -0.765  27.137 -22.755  1.00  0.00     0.090 A
HETATM   18  C7  UNL     1      -0.477  26.542 -21.533  1.00  0.00     0.040 A
HETATM   19  C8  UNL     1       0.792  26.945 -21.159  1.00  0.00     0.027 A
HETATM   20  C9  UNL     1       1.209  27.777 -22.195  1.00  0.00     0.142 A
HETATM   21  O2  UNL     1       0.258  27.853 -23.099  1.00  0.00    -0.321 OA
ENDBRANCH  15  17
ENDBRANCH   4  14
TORSDOF 5
ENDMDL