MODEL 1
REMARK VINA RESULT: -6.047187213      0.000      0.000
REMARK  5 active torsions:
REMARK  status: ('A' for Active; 'I' for Inactive)
REMARK    1  A    between atoms: C2_2  and  N1_3
REMARK    2  A    between atoms: C2_2  and  C3_7
REMARK    3  A    between atoms: N2_8  and  N3_10
REMARK    4  A    between atoms: C4_12  and  N5_15
REMARK    5  A    between atoms: N6_17  and  C6_19
ROOT
HETATM    1  N3  UNL     1       5.079  27.345 -24.633  1.00  0.00    -0.276 N
ATOM      2  H3  UNL     1       4.930  26.665 -23.887  1.00  0.00     0.189 HD
HETATM    3  C4  UNL     1       4.155  28.185 -24.953  1.00  0.00     0.217 C
HETATM    4  C5  UNL     1       4.291  29.168 -25.989  1.00  0.00     0.139 C
HETATM    5  N4  UNL     1       4.401  29.949 -26.841  1.00  0.00    -0.188 NA
ENDROOT
BRANCH   3   6
HETATM    6  N5  UNL     1       2.935  28.122 -24.225  1.00  0.00    -0.275 N
HETATM    7  N6  UNL     1       3.010  28.297 -22.971  1.00  0.00    -0.299 N
ATOM      8  H6  UNL     1       3.902  28.474 -22.511  1.00  0.00     0.187 HD
ATOM      9  H5  UNL     1       2.044  27.945 -24.689  1.00  0.00     0.189 HD
BRANCH   7  10
HETATM   10  C6  UNL     1       1.795  28.237 -22.234  1.00  0.00     0.048 A
HETATM   11  C7  UNL     1       1.614  27.161 -21.401  1.00  0.00     0.031 A
HETATM   12  C8  UNL     1       0.446  27.095 -20.686  1.00  0.00     0.002 A
HETATM   13  C9  UNL     1      -0.502  28.087 -20.815  1.00  0.00     0.000 A
HETATM   14  C10 UNL     1      -0.296  29.159 -21.660  1.00  0.00     0.002 A
HETATM   15  C11 UNL     1       0.877  29.248 -22.394  1.00  0.00     0.031 A
ENDBRANCH   7  10
ENDBRANCH   3   6
BRANCH   1  16
HETATM   16  N2  UNL     1       6.286  27.382 -25.328  1.00  0.00    -0.312 N
HETATM   17  C3  UNL     1       6.807  26.288 -25.748  1.00  0.00     0.112 C
ATOM     18  H2  UNL     1       6.752  28.273 -25.503  1.00  0.00     0.185 HD
BRANCH  17  19
HETATM   19  C2  UNL     1       6.141  24.983 -25.504  1.00  0.00     0.219 C
HETATM   20  C1  UNL     1       5.639  24.382 -26.795  1.00  0.00     0.045 C
BRANCH  19  21
HETATM   21  N1  UNL     1       7.127  24.096 -24.920  1.00  0.00    -0.071 N
ATOM     22  H13 UNL     1       7.116  23.169 -25.346  1.00  0.00     0.275 HD
ATOM     23  H12 UNL     1       8.080  24.357 -25.170  1.00  0.00     0.275 HD
ATOM     24  H11 UNL     1       6.986  24.060 -23.910  1.00  0.00     0.275 HD
ENDBRANCH  19  21
ENDBRANCH  17  19
ENDBRANCH   1  16
TORSDOF 5
ENDMDL