MODEL 1
REMARK VINA RESULT: -5.246811677      0.000      0.000
REMARK  4 active torsions:
REMARK  status: ('A' for Active; 'I' for Inactive)
REMARK    1  A    between atoms: N1_2  and  C1_4
REMARK    2  A    between atoms: N2_6  and  N3_7
REMARK    3  A    between atoms: C3_9  and  C4_10
REMARK    4  A    between atoms: C7_13  and  O3_14
ROOT
HETATM    1  N3  UNL     1      -1.041  31.576 -23.029  1.00  0.00    -0.285 N
ATOM      2  H3  UNL     1      -0.095  31.583 -23.410  1.00  0.00     0.188 HD
HETATM    3  C3  UNL     1      -1.433  30.595 -22.289  1.00  0.00     0.120 C
ENDROOT
BRANCH   1   4
HETATM    4  N2  UNL     1      -1.916  32.630 -23.307  1.00  0.00    -0.161 N
HETATM    5  C2  UNL     1      -2.675  32.968 -24.358  1.00  0.00     0.208 A
HETATM    6  C1  UNL     1      -3.118  34.086 -23.681  1.00  0.00     0.257 A
HETATM    7  O4  UNL     1      -2.351  33.690 -22.694  1.00  0.00    -0.190 OA
BRANCH   6   8
HETATM    8  N1  UNL     1      -4.011  35.158 -23.971  1.00  0.00    -0.087 N
HETATM    9  O1  UNL     1      -5.212  35.102 -23.655  1.00  0.00    -0.530 OA
HETATM   10  O2  UNL     1      -3.571  36.287 -24.611  1.00  0.00    -0.530 OA
ENDBRANCH   6   8
ENDBRANCH   1   4
BRANCH   3  11
HETATM   11  C4  UNL     1      -0.558  29.468 -21.968  1.00  0.00    -0.019 A
HETATM   12  C5  UNL     1       0.744  29.422 -22.416  1.00  0.00     0.015 A
HETATM   13  C6  UNL     1       1.567  28.346 -22.104  1.00  0.00     0.037 A
HETATM   14  C7  UNL     1       1.123  27.287 -21.341  1.00  0.00     0.065 A
HETATM   15  C8  UNL     1      -0.180  27.335 -20.893  1.00  0.00     0.037 A
HETATM   16  C9  UNL     1      -1.006  28.411 -21.204  1.00  0.00     0.015 A
BRANCH  14  17
HETATM   17  O3  UNL     1       1.957  26.206 -21.030  1.00  0.00    -0.361 OA
ATOM     18  H3  UNL     1       1.684  25.308 -21.176  1.00  0.00     0.217 HD
ENDBRANCH  14  17
ENDBRANCH   3  11
TORSDOF 4
ENDMDL