MODEL 5
REMARK VINA RESULT: -4.585673009     10.342     11.473
REMARK  4 active torsions:
REMARK  status: ('A' for Active; 'I' for Inactive)
REMARK    1  A    between atoms: O1_1  and  C1_3
REMARK    2  A    between atoms: C3_5  and  C4_6
REMARK    3  A    between atoms: C4_6  and  N1_7
REMARK    4  A    between atoms: N2_9  and  N3_11
ROOT
HETATM    1  N1  UNL     1      -0.735  35.545 -15.204  1.00  0.00    -0.318 N
ATOM      2  H1  UNL     1      -1.321  34.889 -14.687  1.00  0.00     0.182 HD
HETATM    3  N2  UNL     1       0.489  35.287 -15.404  1.00  0.00    -0.249 N
ATOM      4  H2  UNL     1       0.857  34.410 -15.034  1.00  0.00     0.207 HD
ENDROOT
BRANCH   1   5
HETATM    5  C4  UNL     1      -1.296  36.777 -15.711  1.00  0.00     0.181 C
BRANCH   5   6
HETATM    6  C3  UNL     1      -2.212  36.429 -16.835  1.00  0.00    -0.012 A
HETATM    7  C2  UNL     1      -3.206  37.256 -17.293  1.00  0.00     0.074 A
HETATM    8  C1  UNL     1      -3.812  36.568 -18.327  1.00  0.00     0.183 A
HETATM    9  O3  UNL     1      -3.222  35.415 -18.476  1.00  0.00    -0.300 OA
HETATM   10  C10 UNL     1      -2.246  35.279 -17.598  1.00  0.00     0.153 A
BRANCH   8  11
HETATM   11  O1  UNL     1      -4.871  37.017 -19.087  1.00  0.00    -0.341 OA
ATOM     12  H1  UNL     1      -5.503  37.676 -18.827  1.00  0.00     0.220 HD
ENDBRANCH   8  11
ENDBRANCH   5   6
ENDBRANCH   1   5
BRANCH   3  13
HETATM   13  N3  UNL     1       1.363  36.118 -16.095  1.00  0.00    -0.312 N
HETATM   14  C5  UNL     1       2.118  37.057 -15.259  1.00  0.00     0.146 C
HETATM   15  C6  UNL     1       3.563  36.537 -15.298  1.00  0.00     0.048 C
HETATM   16  C7  UNL     1       3.956  36.564 -16.780  1.00  0.00     0.169 C
HETATM   17  O2  UNL     1       3.788  35.331 -17.345  1.00  0.00    -0.389 OA
HETATM   18  C8  UNL     1       2.593  35.116 -17.967  1.00  0.00     0.189 C
HETATM   19  C9  UNL     1       1.482  36.027 -17.519  1.00  0.00     0.170 C
ENDBRANCH   3  13
TORSDOF 4
ENDMDL