MODEL 5
REMARK VINA RESULT: -4.118998984      2.198      2.586
REMARK  4 active torsions:
REMARK  status: ('A' for Active; 'I' for Inactive)
REMARK    1  A    between atoms: N1_2  and  C2_3
REMARK    2  A    between atoms: N1_2  and  N2_8
REMARK    3  A    between atoms: N2_8  and  O1_9
REMARK    4  A    between atoms: N3_11  and  O2_13
ROOT
HETATM    1  C1  UNL     1     -10.042  37.143 -21.467  1.00  0.00     0.176 C
HETATM    2  N1  UNL     1      -8.788  37.503 -20.829  1.00  0.00    -0.273 N
ENDROOT
BRANCH   2   3
HETATM    3  C2  UNL     1      -7.644  37.882 -21.635  1.00  0.00     0.189 C
HETATM    4  C3  UNL     1      -8.183  38.238 -22.997  1.00  0.00     0.125 C
HETATM    5  S1  UNL     1      -6.784  38.717 -24.042  1.00  0.00    -0.083 SA
HETATM    6  S2  UNL     1      -5.403  37.130 -23.548  1.00  0.00    -0.023 SA
HETATM    7  S3  UNL     1      -6.526  36.480 -21.822  1.00  0.00    -0.058 SA
ENDBRANCH   2   3
BRANCH   2   8
HETATM    8  N2  UNL     1      -8.759  37.462 -19.432  1.00  0.00    -0.076 N
HETATM    9  N3  UNL     1      -9.766  37.115 -18.739  1.00  0.00    -0.168 N
ATOM     10  H3  UNL     1     -10.618  36.861 -19.240  1.00  0.00     0.220 HD
BRANCH   8  11
HETATM   11  O1  UNL     1      -7.625  37.799 -18.715  1.00  0.00    -0.252 OA
ATOM     12  H1  UNL     1      -7.433  38.698 -18.474  1.00  0.00     0.248 HD
ENDBRANCH   8  11
BRANCH   9  13
HETATM   13  O2  UNL     1      -9.796  37.057 -17.394  1.00  0.00    -0.271 OA
ATOM     14  H2  UNL     1      -9.778  36.256 -16.883  1.00  0.00     0.246 HD
ENDBRANCH   9  13
ENDBRANCH   2   8
TORSDOF 4
ENDMDL