MODEL 3
REMARK VINA RESULT: -5.366593225      1.304      1.935
REMARK  4 active torsions:
REMARK  status: ('A' for Active; 'I' for Inactive)
REMARK    1  A    between atoms: N2_3  and  O1_4
REMARK    2  A    between atoms: N2_3  and  C2_6
REMARK    3  A    between atoms: C5_9  and  C6_10
REMARK    4  A    between atoms: C9_16  and  O3_17
ROOT
HETATM    1  N1  UNL     1      -1.520  25.920 -21.971  1.00  0.00    -0.176 NA
HETATM    2  C1  UNL     1      -0.883  26.744 -21.440  1.00  0.00     0.184 C
HETATM    3  N2  UNL     1      -0.136  27.720 -20.784  1.00  0.00    -0.063 NA
ENDROOT
BRANCH   3   4
HETATM    4  O1  UNL     1      -0.887  28.592 -20.096  1.00  0.00    -0.294 OA
ATOM      5  H1  UNL     1      -1.815  28.391 -20.121  1.00  0.00     0.238 HD
ENDBRANCH   3   4
BRANCH   3   6
HETATM    6  C2  UNL     1       0.714  28.442 -21.696  1.00  0.00     0.055 A
HETATM    7  C3  UNL     1       1.997  28.008 -21.939  1.00  0.00     0.028 A
HETATM    8  C4  UNL     1       2.769  28.711 -22.802  1.00  0.00     0.019 A
HETATM    9  C5  UNL     1       2.327  29.866 -23.465  1.00  0.00     0.033 A
HETATM   10  C9  UNL     1       1.053  30.280 -23.210  1.00  0.00     0.080 A
HETATM   11  C10 UNL     1       0.231  29.567 -22.318  1.00  0.00     0.064 A
BRANCH   9  12
HETATM   12  C6  UNL     1       3.201  30.564 -24.367  1.00  0.00     0.113 A
HETATM   13  C7  UNL     1       3.774  30.164 -25.534  1.00  0.00     0.059 A
HETATM   14  C8  UNL     1       4.540  31.244 -26.009  1.00  0.00     0.117 A
HETATM   15  N3  UNL     1       4.370  32.208 -25.096  1.00  0.00    -0.272 N
HETATM   16  O2  UNL     1       3.602  31.812 -24.157  1.00  0.00    -0.237 OA
ATOM     17  H3  UNL     1       4.797  33.134 -25.144  1.00  0.00     0.194 HD
ENDBRANCH   9  12
BRANCH  10  18
HETATM   18  O3  UNL     1       0.516  31.406 -23.810  1.00  0.00    -0.360 OA
ATOM     19  H3  UNL     1      -0.011  32.030 -23.325  1.00  0.00     0.217 HD
ENDBRANCH  10  18
ENDBRANCH   3   6
TORSDOF 4
ENDMDL