MODEL 1
REMARK VINA RESULT: -5.423927903      0.000      0.000
REMARK  3 active torsions:
REMARK  status: ('A' for Active; 'I' for Inactive)
REMARK    1  A    between atoms: C3_4  and  N1_5
REMARK    2  A    between atoms: C4_7  and  C5_8
REMARK    3  A    between atoms: C8_11  and  N2_12
ROOT
HETATM    1  N1  UNL     1       1.761  30.309 -23.551  1.00  0.00    -0.342 N
ATOM      2  H1  UNL     1       2.078  31.239 -23.825  1.00  0.00     0.167 HD
HETATM    3  C4  UNL     1       0.642  30.346 -23.022  1.00  0.00     0.127 C
ENDROOT
BRANCH   1   4
HETATM    4  C3  UNL     1       2.691  29.341 -23.867  1.00  0.00     0.175 A
HETATM    5  C2  UNL     1       3.180  29.100 -25.153  1.00  0.00     0.134 A
HETATM    6  C1  UNL     1       4.081  28.064 -25.063  1.00  0.00     0.269 A
HETATM    7  O1  UNL     1       4.754  27.526 -25.977  1.00  0.00    -0.266 OA
HETATM    8  N3  UNL     1       4.098  27.734 -23.771  1.00  0.00    -0.224 N
HETATM    9  O5  UNL     1       3.302  28.465 -23.080  1.00  0.00    -0.217 OA
ATOM     10  H3  UNL     1       4.675  26.990 -23.379  1.00  0.00     0.198 HD
ENDBRANCH   1   4
BRANCH   3  11
HETATM   11  C5  UNL     1      -0.121  29.218 -22.509  1.00  0.00     0.093 A
HETATM   12  C6  UNL     1      -0.436  28.911 -21.213  1.00  0.00     0.043 A
HETATM   13  C7  UNL     1      -1.185  27.729 -21.239  1.00  0.00     0.065 A
HETATM   14  C8  UNL     1      -1.288  27.376 -22.552  1.00  0.00     0.215 A
HETATM   15  O4  UNL     1      -0.659  28.261 -23.269  1.00  0.00    -0.287 OA
BRANCH  14  16
HETATM   16  N2  UNL     1      -1.979  26.216 -23.036  1.00  0.00    -0.090 N
HETATM   17  O2  UNL     1      -2.576  25.439 -22.272  1.00  0.00    -0.530 OA
HETATM   18  O3  UNL     1      -1.991  25.942 -24.378  1.00  0.00    -0.530 OA
ENDBRANCH  14  16
ENDBRANCH   3  11
TORSDOF 3
ENDMDL