MODEL 4
REMARK VINA RESULT: -4.856326648      2.009      2.524
REMARK  4 active torsions:
REMARK  status: ('A' for Active; 'I' for Inactive)
REMARK    1  A    between atoms: N1_1  and  N2_4
REMARK    2  A    between atoms: C1_5  and  N3_6
REMARK    3  A    between atoms: C2_8  and  C3_9
REMARK    4  A    between atoms: C9_16  and  N4_17
ROOT
HETATM    1  N2  UNL     1      -3.171  29.871 -24.859  1.00  0.00    -0.225 N
HETATM    2  C1  UNL     1      -2.763  28.679 -24.391  1.00  0.00     0.128 A
HETATM    3  C7  UNL     1      -3.722  27.728 -24.662  1.00  0.00     0.054 A
HETATM    4  C8  UNL     1      -4.733  28.392 -25.319  1.00  0.00     0.060 A
HETATM    5  C9  UNL     1      -4.394  29.713 -25.439  1.00  0.00     0.196 A
ENDROOT
BRANCH   2   6
HETATM    6  N3  UNL     1      -1.553  28.395 -23.719  1.00  0.00    -0.348 N
HETATM    7  C2  UNL     1      -1.458  27.511 -22.781  1.00  0.00     0.127 C
ATOM      8  H3  UNL     1      -0.715  28.912 -23.986  1.00  0.00     0.167 HD
BRANCH   7   9
HETATM    9  C3  UNL     1      -0.139  27.299 -22.149  1.00  0.00     0.090 A
HETATM   10  C4  UNL     1       0.175  26.371 -21.177  1.00  0.00     0.040 A
HETATM   11  C5  UNL     1       1.504  26.497 -20.859  1.00  0.00     0.027 A
HETATM   12  C6  UNL     1       1.967  27.520 -21.666  1.00  0.00     0.142 A
HETATM   13  O1  UNL     1       0.969  27.951 -22.398  1.00  0.00    -0.321 OA
ENDBRANCH   7   9
ENDBRANCH   2   6
BRANCH   1  14
HETATM   14  N1  UNL     1      -2.507  31.096 -24.797  1.00  0.00    -0.335 N
ATOM     15  H12 UNL     1      -1.732  31.343 -25.413  1.00  0.00     0.177 HD
ATOM     16  H11 UNL     1      -2.684  31.878 -24.166  1.00  0.00     0.177 HD
ENDBRANCH   1  14
BRANCH   5  17
HETATM   17  N4  UNL     1      -5.150  30.763 -26.052  1.00  0.00    -0.096 N
HETATM   18  O2  UNL     1      -5.517  30.658 -27.233  1.00  0.00    -0.530 OA
HETATM   19  O3  UNL     1      -5.445  31.866 -25.289  1.00  0.00    -0.530 OA
ENDBRANCH   5  17
TORSDOF 4
ENDMDL