MODEL 3
REMARK VINA RESULT: -5.119909640      1.625      2.096
REMARK  4 active torsions:
REMARK  status: ('A' for Active; 'I' for Inactive)
REMARK    1  A    between atoms: O1_1  and  N1_3
REMARK    2  A    between atoms: N3_11  and  N4_12
REMARK    3  A    between atoms: N4_12  and  C6_14
REMARK    4  A    between atoms: C6_14  and  C7_15
ROOT
HETATM    1  N1  UNL     1       1.612  27.555 -21.723  1.00  0.00    -0.136 N
HETATM    2  C1  UNL     1       0.591  28.451 -21.785  1.00  0.00     0.131 A
HETATM    3  C2  UNL     1      -0.638  28.944 -21.416  1.00  0.00     0.039 A
HETATM    4  C3  UNL     1      -1.177  30.094 -21.964  1.00  0.00     0.020 A
HETATM    5  C4  UNL     1      -0.412  30.737 -22.916  1.00  0.00     0.090 A
HETATM    6  N2  UNL     1       0.801  30.255 -23.286  1.00  0.00    -0.348 N
ATOM      7  H2  UNL     1       1.334  30.760 -23.994  1.00  0.00     0.167 HD
HETATM    8  C5  UNL     1       1.328  29.136 -22.753  1.00  0.00     0.179 A
HETATM    9  N3  UNL     1       2.293  28.215 -22.638  1.00  0.00    -0.151 N
ENDROOT
BRANCH   9  10
HETATM   10  N4  UNL     1       3.533  28.010 -23.233  1.00  0.00    -0.284 N
ATOM     11  H4  UNL     1       4.296  27.586 -22.704  1.00  0.00     0.188 HD
BRANCH  10  12
HETATM   12  C6  UNL     1       3.703  28.356 -24.443  1.00  0.00     0.146 C
BRANCH  12  13
HETATM   13  C7  UNL     1       4.365  27.419 -25.374  1.00  0.00     0.091 A
HETATM   14  C8  UNL     1       3.823  26.892 -26.527  1.00  0.00     0.040 A
HETATM   15  C9  UNL     1       4.750  26.057 -27.122  1.00  0.00     0.027 A
HETATM   16  C10 UNL     1       5.853  26.119 -26.269  1.00  0.00     0.142 A
HETATM   17  O2  UNL     1       5.575  26.923 -25.271  1.00  0.00    -0.321 OA
ENDBRANCH  12  13
ENDBRANCH  10  12
ENDBRANCH   9  10
BRANCH   1  18
HETATM   18  O1  UNL     1       1.759  26.421 -20.949  1.00  0.00    -0.266 OA
ATOM     19  H1  UNL     1       1.855  26.328 -20.009  1.00  0.00     0.247 HD
ENDBRANCH   1  18
TORSDOF 4
ENDMDL