MODEL 2
REMARK VINA RESULT: -4.878456910      0.683      1.563
REMARK  4 active torsions:
REMARK  status: ('A' for Active; 'I' for Inactive)
REMARK    1  A    between atoms: C2_2  and  N1_4
REMARK    2  A    between atoms: N1_4  and  C4_6
REMARK    3  A    between atoms: C4_6  and  N2_8
REMARK       I    between atoms: N2_8  and  C5_10
REMARK    4  A    between atoms: C5_10  and  C6_12
ROOT
HETATM    1  N2  UNL     1    -135.565-182.280 296.524  1.00  0.00    -0.304 N
ATOM      2  H2  UNL     1    -135.068-181.391 296.459  1.00  0.00     0.171 HD
HETATM    3  C5  UNL     1    -136.486-182.476 297.586  1.00  0.00     0.228 C
HETATM    4  O1  UNL     1    -137.095-183.558 297.673  1.00  0.00    -0.273 OA
ENDROOT
BRANCH   1   5
HETATM    5  C4  UNL     1    -135.312-183.276 295.551  1.00  0.00     0.174 C
HETATM    6  S1  UNL     1    -135.960-183.120 294.067  1.00  0.00    -0.041 SA
BRANCH   5   7
HETATM    7  N1  UNL     1    -134.503-184.395 295.865  1.00  0.00    -0.363 N
ATOM      8  H1  UNL     1    -134.853-185.338 295.693  1.00  0.00     0.162 HD
BRANCH   7   9
HETATM    9  C2  UNL     1    -133.186-184.210 296.427  1.00  0.00     0.075 C
HETATM   10  C1  UNL     1    -132.592-185.543 296.835  1.00  0.00     0.032 C
HETATM   11  C3  UNL     1    -132.325-183.514 295.397  1.00  0.00     0.032 C
ENDBRANCH   7   9
ENDBRANCH   5   7
ENDBRANCH   1   5
BRANCH   3  12
HETATM   12  C6  UNL     1    -136.696-181.399 298.555  1.00  0.00     0.078 C
HETATM   13  C7  UNL     1    -137.179-180.111 297.897  1.00  0.00     0.014 C
HETATM   14  C8  UNL     1    -137.544-179.316 299.158  1.00  0.00     0.001 C
HETATM   15  C9  UNL     1    -138.442-180.341 299.856  1.00  0.00     0.001 C
HETATM   16  C10 UNL     1    -137.828-181.682 299.513  1.00  0.00     0.014 C
ENDBRANCH   3  12
TORSDOF 4
ENDMDL