MODEL 3
REMARK VINA RESULT: -4.889216528      1.438      5.895
REMARK  4 active torsions:
REMARK  status: ('A' for Active; 'I' for Inactive)
REMARK    1  A    between atoms: C1_2  and  N1_3
REMARK    2  A    between atoms: C1_2  and  N2_9
REMARK    3  A    between atoms: N1_3  and  C2_5
REMARK    4  A    between atoms: N2_9  and  C6_11
ROOT
HETATM    1  N2  UNL     1    -137.122-182.852 298.045  1.00  0.00    -0.362 N
ATOM      2  H2  UNL     1    -137.943-183.424 298.247  1.00  0.00     0.162 HD
ENDROOT
BRANCH   1   3
HETATM    3  C1  UNL     1    -136.249-183.225 297.011  1.00  0.00     0.168 C
HETATM    4  S1  UNL     1    -136.865-183.609 295.552  1.00  0.00    -0.041 SA
BRANCH   3   5
HETATM    5  N1  UNL     1    -134.858-183.263 297.258  1.00  0.00    -0.363 N
ATOM      6  H1  UNL     1    -134.459-182.742 298.038  1.00  0.00     0.162 HD
BRANCH   5   7
HETATM    7  C2  UNL     1    -134.006-184.050 296.391  1.00  0.00     0.083 C
HETATM    8  C3  UNL     1    -133.248-183.212 295.396  1.00  0.00     0.025 C
HETATM    9  C4  UNL     1    -132.006-184.003 295.742  1.00  0.00     0.004 C
HETATM   10  C5  UNL     1    -132.694-184.421 297.030  1.00  0.00     0.025 C
ENDBRANCH   5   7
ENDBRANCH   3   5
ENDBRANCH   1   3
BRANCH   1  11
HETATM   11  C6  UNL     1    -136.866-181.671 298.818  1.00  0.00     0.088 C
HETATM   12  C7  UNL     1    -137.941-181.522 299.886  1.00  0.00     0.030 C
HETATM   13  C8  UNL     1    -138.478-180.139 299.660  1.00  0.00    -0.012 C
HETATM   14  C9  UNL     1    -139.268-180.064 298.359  1.00  0.00     0.005 C
HETATM   15  C12 UNL     1    -137.202-179.419 299.190  1.00  0.00     0.011 C
HETATM   16  C10 UNL     1    -138.207-180.309 297.280  1.00  0.00     0.007 C
HETATM   17  C11 UNL     1    -136.922-180.394 298.029  1.00  0.00     0.009 C
ENDBRANCH   1  11
TORSDOF 4
ENDMDL