MODEL 2
REMARK VINA RESULT: -4.286848575      3.191      5.786
REMARK  5 active torsions:
REMARK  status: ('A' for Active; 'I' for Inactive)
REMARK    1  A    between atoms: C2_2  and  C3_4
REMARK    2  A    between atoms: C6_7  and  N1_8
REMARK    3  A    between atoms: N1_8  and  C7_10
REMARK    4  A    between atoms: C7_10  and  N2_12
REMARK    5  A    between atoms: N2_12  and  C8_14
ROOT
HETATM    1  N1  UNL     1    -135.816-182.014 296.271  1.00  0.00    -0.362 N
ATOM      2  H1  UNL     1    -135.188-181.216 296.179  1.00  0.00     0.162 HD
ENDROOT
BRANCH   1   3
HETATM    3  C6  UNL     1    -136.809-181.876 297.266  1.00  0.00     0.090 C
HETATM    4  C3  UNL     1    -136.566-180.866 298.378  1.00  0.00     0.042 C
HETATM    5  C4  UNL     1    -137.466-181.772 299.231  1.00  0.00     0.011 C
HETATM    6  C5  UNL     1    -136.942-182.918 298.345  1.00  0.00     0.026 C
BRANCH   4   7
HETATM    7  C2  UNL     1    -137.237-179.532 298.145  1.00  0.00     0.172 C
HETATM    8  C1  UNL     1    -137.696-178.972 299.471  1.00  0.00     0.045 C
HETATM    9  F1  UNL     1    -136.343-178.641 297.585  1.00  0.00    -0.249 F
ENDBRANCH   4   7
ENDBRANCH   1   3
BRANCH   1  10
HETATM   10  C7  UNL     1    -135.556-183.078 295.385  1.00  0.00     0.168 C
HETATM   11  S1  UNL     1    -136.728-184.086 294.796  1.00  0.00    -0.041 SA
BRANCH  10  12
HETATM   12  N2  UNL     1    -134.242-183.373 294.929  1.00  0.00    -0.359 N
ATOM     13  H2  UNL     1    -133.937-183.023 294.021  1.00  0.00     0.162 HD
BRANCH  12  14
HETATM   14  C8  UNL     1    -133.346-184.149 295.717  1.00  0.00     0.021 C
HETATM   15  C9  UNL     1    -131.924-183.670 295.482  1.00  0.00     0.037 C
HETATM   16  C10 UNL     1    -133.649-184.045 297.193  1.00  0.00     0.037 C
HETATM   17  C11 UNL     1    -133.435-185.620 295.339  1.00  0.00     0.037 C
ENDBRANCH  12  14
ENDBRANCH  10  12
ENDBRANCH   1  10
TORSDOF 5
ENDMDL