MODEL 1
REMARK VINA RESULT: -4.880229009      0.000      0.000
REMARK  4 active torsions:
REMARK  status: ('A' for Active; 'I' for Inactive)
REMARK    1  A    between atoms: C1_2  and  N1_3
REMARK    2  A    between atoms: C1_2  and  N2_10
REMARK    3  A    between atoms: N1_3  and  C2_5
REMARK    4  A    between atoms: N2_10  and  C7_12
ROOT
HETATM    1  S1  UNL     1    -137.001-183.539 295.705  1.00  0.00    -0.041 SA
HETATM    2  C1  UNL     1    -136.234-183.257 297.111  1.00  0.00     0.168 C
ENDROOT
BRANCH   2   3
HETATM    3  N1  UNL     1    -137.002-182.927 298.249  1.00  0.00    -0.363 N
ATOM      4  H1  UNL     1    -137.632-183.639 298.619  1.00  0.00     0.162 HD
BRANCH   3   5
HETATM    5  C2  UNL     1    -136.959-181.649 298.929  1.00  0.00     0.083 C
HETATM    6  C3  UNL     1    -137.009-180.470 298.028  1.00  0.00     0.025 C
HETATM    7  C4  UNL     1    -138.520-180.204 297.950  1.00  0.00     0.002 C
HETATM    8  C5  UNL     1    -138.838-180.210 299.433  1.00  0.00     0.002 C
HETATM    9  C6  UNL     1    -138.153-181.511 299.850  1.00  0.00     0.025 C
ENDBRANCH   3   5
ENDBRANCH   2   3
BRANCH   2  10
HETATM   10  N2  UNL     1    -134.837-183.330 297.166  1.00  0.00    -0.363 N
ATOM     11  H2  UNL     1    -134.372-182.717 297.836  1.00  0.00     0.162 HD
BRANCH  10  12
HETATM   12  C7  UNL     1    -133.995-184.175 296.380  1.00  0.00     0.083 C
HETATM   13  C8  UNL     1    -132.943-184.888 297.193  1.00  0.00     0.025 C
HETATM   14  C9  UNL     1    -131.624-184.660 296.536  1.00  0.00     0.002 C
HETATM   15  C10 UNL     1    -131.817-183.682 295.424  1.00  0.00     0.002 C
HETATM   16  C11 UNL     1    -133.284-183.346 295.337  1.00  0.00     0.025 C
ENDBRANCH  10  12
ENDBRANCH   2  10
TORSDOF 4
ENDMDL