MODEL 5
REMARK VINA RESULT: -4.999877266      1.646      2.058
REMARK  4 active torsions:
REMARK  status: ('A' for Active; 'I' for Inactive)
REMARK    1  A    between atoms: C4_4  and  N1_5
REMARK    2  A    between atoms: N1_5  and  C5_7
REMARK    3  A    between atoms: C5_7  and  N2_9
REMARK    4  A    between atoms: N2_9  and  C6_11
ROOT
HETATM    1  C5  UNL     1    -136.000-182.295 295.710  1.00  0.00     0.168 C
HETATM    2  S1  UNL     1    -137.117-182.776 294.645  1.00  0.00    -0.041 SA
ENDROOT
BRANCH   1   3
HETATM    3  N1  UNL     1    -136.334-181.341 296.691  1.00  0.00    -0.360 N
ATOM      4  H1  UNL     1    -136.703-180.441 296.384  1.00  0.00     0.162 HD
BRANCH   3   5
HETATM    5  C4  UNL     1    -136.179-181.570 298.114  1.00  0.00     0.118 C
HETATM    6  C3  UNL     1    -137.212-182.504 298.708  1.00  0.00     0.035 C
HETATM    7  C2  UNL     1    -138.049-181.270 299.009  1.00  0.00     0.019 C
HETATM    8  C1  UNL     1    -138.726-181.295 300.357  1.00  0.00     0.013 C
HETATM    9  C11 UNL     1    -136.769-180.472 298.973  1.00  0.00     0.196 C
HETATM   10  F1  UNL     1    -136.869-179.248 298.351  1.00  0.00    -0.247 F
ENDBRANCH   3   5
ENDBRANCH   1   3
BRANCH   1  11
HETATM   11  N2  UNL     1    -134.692-182.832 295.655  1.00  0.00    -0.363 N
ATOM     12  H2  UNL     1    -133.937-182.305 295.216  1.00  0.00     0.162 HD
BRANCH  11  13
HETATM   13  C6  UNL     1    -134.431-184.151 296.235  1.00  0.00     0.083 C
HETATM   14  C7  UNL     1    -133.259-184.071 297.197  1.00  0.00     0.025 C
HETATM   15  C8  UNL     1    -132.262-185.104 296.766  1.00  0.00     0.002 C
HETATM   16  C9  UNL     1    -133.102-186.092 295.994  1.00  0.00     0.002 C
HETATM   17  C10 UNL     1    -133.998-185.142 295.190  1.00  0.00     0.025 C
ENDBRANCH  11  13
ENDBRANCH   1  11
TORSDOF 4
ENDMDL