MODEL 3
REMARK VINA RESULT: -5.475721707      3.879      5.829
REMARK  2 active torsions:
REMARK  status: ('A' for Active; 'I' for Inactive)
REMARK    1  A    between atoms: C2_2  and  N1_4
REMARK       I    between atoms: N1_4  and  C4_6
REMARK       I    between atoms: C4_6  and  N2_8
REMARK    2  A    between atoms: N2_8  and  C5_10
ROOT
HETATM    1  C5  UNL     1    -133.519-185.852 295.335  1.00  0.00     0.042 C
HETATM    2  C6  UNL     1    -132.675-185.468 294.117  1.00  0.00     0.036 C
HETATM    3  C7  UNL     1    -132.271-184.026 294.146  1.00  0.00    -0.009 C
HETATM    4  C8  UNL     1    -133.526-183.208 293.827  1.00  0.00     0.042 C
HETATM    5  C9  UNL     1    -134.603-183.665 294.737  1.00  0.00     0.177 C
HETATM    6  F1  UNL     1    -135.162-182.548 295.347  1.00  0.00    -0.249 F
HETATM    7  C10 UNL     1    -134.206-184.616 295.798  1.00  0.00     0.052 C
HETATM    8  C11 UNL     1    -132.915-184.247 296.508  1.00  0.00    -0.003 C
HETATM    9  C12 UNL     1    -131.895-183.655 295.563  1.00  0.00     0.010 C
HETATM   10  C13 UNL     1    -132.660-185.762 296.583  1.00  0.00     0.036 C
ENDROOT
BRANCH   1  11
HETATM   11  N2  UNL     1    -134.267-187.031 295.138  1.00  0.00    -0.333 N
HETATM   12  C4  UNL     1    -135.060-187.318 294.003  1.00  0.00     0.317 C
HETATM   13  N1  UNL     1    -135.791-188.531 293.872  1.00  0.00    -0.339 N
HETATM   14  O1  UNL     1    -135.175-186.519 293.027  1.00  0.00    -0.247 OA
ATOM     15  H1  UNL     1    -135.728-189.206 294.635  1.00  0.00     0.164 HD
ATOM     16  H2  UNL     1    -134.233-187.736 295.875  1.00  0.00     0.165 HD
BRANCH  13  17
HETATM   17  C2  UNL     1    -136.606-188.874 292.752  1.00  0.00     0.078 C
HETATM   18  C1  UNL     1    -138.043-188.454 292.903  1.00  0.00     0.032 C
HETATM   19  C3  UNL     1    -136.603-190.386 292.519  1.00  0.00     0.032 C
ENDBRANCH  13  17
ENDBRANCH   1  11
TORSDOF 2
ENDMDL