MODEL 4
REMARK VINA RESULT: -5.527687055      3.175      4.334
REMARK  2 active torsions:
REMARK  status: ('A' for Active; 'I' for Inactive)
REMARK    1  A    between atoms: C2_2  and  N1_4
REMARK       I    between atoms: N1_4  and  C4_6
REMARK       I    between atoms: C4_6  and  N2_8
REMARK    2  A    between atoms: N2_8  and  C5_10
ROOT
HETATM    1  C5  UNL     1    -134.513-184.394 295.440  1.00  0.00     0.041 C
HETATM    2  C6  UNL     1    -133.984-183.887 296.798  1.00  0.00     0.036 C
HETATM    3  C7  UNL     1    -132.601-184.505 296.772  1.00  0.00    -0.009 C
HETATM    4  C8  UNL     1    -132.977-185.953 296.452  1.00  0.00     0.012 C
HETATM    5  C9  UNL     1    -133.823-185.709 295.193  1.00  0.00     0.017 C
HETATM    6  C10 UNL     1    -132.797-185.448 294.080  1.00  0.00     0.050 C
HETATM    7  C11 UNL     1    -132.503-183.989 294.322  1.00  0.00     0.106 C
HETATM    8  F1  UNL     1    -131.777-183.393 293.352  1.00  0.00    -0.243 F
HETATM    9  C12 UNL     1    -131.817-183.878 295.662  1.00  0.00     0.048 C
HETATM   10  C13 UNL     1    -133.925-183.422 294.438  1.00  0.00     0.075 C
ENDROOT
BRANCH   1  11
HETATM   11  N2  UNL     1    -135.940-184.449 295.439  1.00  0.00    -0.333 N
HETATM   12  C4  UNL     1    -136.651-184.818 294.273  1.00  0.00     0.317 C
HETATM   13  N1  UNL     1    -138.075-184.867 294.296  1.00  0.00    -0.339 N
HETATM   14  O1  UNL     1    -136.066-185.109 293.201  1.00  0.00    -0.247 OA
ATOM     15  H1  UNL     1    -138.584-184.637 295.150  1.00  0.00     0.164 HD
ATOM     16  H2  UNL     1    -136.453-184.220 296.291  1.00  0.00     0.165 HD
BRANCH  13  17
HETATM   17  C2  UNL     1    -138.791-185.245 293.099  1.00  0.00     0.078 C
HETATM   18  C1  UNL     1    -140.095-184.506 292.964  1.00  0.00     0.032 C
HETATM   19  C3  UNL     1    -139.005-186.746 293.072  1.00  0.00     0.032 C
ENDBRANCH  13  17
ENDBRANCH   1  11
TORSDOF 2
ENDMDL