MODEL 4
REMARK VINA RESULT: -4.974622770      2.627      6.390
REMARK  2 active torsions:
REMARK  status: ('A' for Active; 'I' for Inactive)
REMARK    1  A    between atoms: C2_2  and  N1_4
REMARK       I    between atoms: C4_6  and  N3_8
REMARK    2  A    between atoms: N3_8  and  C5_10
ROOT
HETATM    1  C5  UNL     1    -136.583-181.396 297.640  1.00  0.00     0.086 C
HETATM    2  C6  UNL     1    -137.701-180.837 296.822  1.00  0.00     0.025 C
HETATM    3  C7  UNL     1    -137.292-179.475 296.240  1.00  0.00     0.002 C
HETATM    4  C8  UNL     1    -137.986-178.390 297.033  1.00  0.00     0.000 C
HETATM    5  C9  UNL     1    -137.310-178.380 298.409  1.00  0.00     0.003 C
HETATM    6  C10 UNL     1    -138.147-179.114 299.378  1.00  0.00     0.037 C
HETATM    7  C11 UNL     1    -137.743-180.497 299.721  1.00  0.00     0.172 C
HETATM    8  F1  UNL     1    -138.832-181.381 299.703  1.00  0.00    -0.249 F
HETATM    9  C12 UNL     1    -136.539-181.043 299.069  1.00  0.00     0.062 C
ENDROOT
BRANCH   1  10
HETATM   10  N3  UNL     1    -136.546-182.826 297.435  1.00  0.00    -0.360 N
HETATM   11  C4  UNL     1    -135.623-183.494 296.604  1.00  0.00     0.184 C
HETATM   12  N1  UNL     1    -134.381-183.637 296.878  1.00  0.00    -0.361 N
HETATM   13  N2  UNL     1    -136.114-184.041 295.386  1.00  0.00    -0.064 NA
ATOM     14  H1  UNL     1    -134.067-183.232 297.760  1.00  0.00     0.162 HD
ATOM     15  H3  UNL     1    -137.238-183.392 297.926  1.00  0.00     0.162 HD
BRANCH  12  16
HETATM   16  C2  UNL     1    -133.397-184.286 296.111  1.00  0.00     0.076 C
HETATM   17  C1  UNL     1    -132.457-185.174 296.835  1.00  0.00     0.032 C
HETATM   18  C3  UNL     1    -132.584-183.251 295.327  1.00  0.00     0.032 C
ENDBRANCH  12  16
ENDBRANCH   1  10
TORSDOF 2
ENDMDL