MODEL 5
REMARK VINA RESULT: -4.846850788      1.976      5.741
REMARK  4 active torsions:
REMARK  status: ('A' for Active; 'I' for Inactive)
REMARK    1  A    between atoms: C5_6  and  N1_7
REMARK    2  A    between atoms: N1_7  and  C6_9
REMARK    3  A    between atoms: C6_9  and  N2_11
REMARK    4  A    between atoms: N2_11  and  C7_13
ROOT
HETATM    1  C6  UNL     1    -136.217-183.236 297.130  1.00  0.00     0.168 C
HETATM    2  S1  UNL     1    -136.989-183.542 295.688  1.00  0.00    -0.041 SA
ENDROOT
BRANCH   1   3
HETATM    3  N1  UNL     1    -134.806-183.318 297.201  1.00  0.00    -0.360 N
ATOM      4  H1  UNL     1    -134.300-182.860 297.959  1.00  0.00     0.162 HD
BRANCH   3   5
HETATM    5  C5  UNL     1    -134.092-184.058 296.187  1.00  0.00     0.117 C
HETATM    6  C1  UNL     1    -133.325-183.102 295.275  1.00  0.00     0.192 C
HETATM    7  F1  UNL     1    -134.003-182.857 294.103  1.00  0.00    -0.247 F
HETATM    8  C2  UNL     1    -132.063-183.914 294.967  1.00  0.00     0.039 C
HETATM    9  C3  UNL     1    -131.715-184.392 296.360  1.00  0.00     0.005 C
HETATM   10  C4  UNL     1    -133.048-184.914 296.849  1.00  0.00     0.028 C
ENDBRANCH   3   5
ENDBRANCH   1   3
BRANCH   1  11
HETATM   11  N2  UNL     1    -137.063-182.902 298.216  1.00  0.00    -0.363 N
ATOM     12  H2  UNL     1    -137.799-183.566 298.456  1.00  0.00     0.162 HD
BRANCH  11  13
HETATM   13  C7  UNL     1    -136.973-181.696 299.015  1.00  0.00     0.083 C
HETATM   14  C8  UNL     1    -136.933-180.513 298.089  1.00  0.00     0.025 C
HETATM   15  C9  UNL     1    -137.715-179.455 298.879  1.00  0.00     0.002 C
HETATM   16  C10 UNL     1    -138.888-180.267 299.369  1.00  0.00     0.002 C
HETATM   17  C11 UNL     1    -138.169-181.516 299.902  1.00  0.00     0.025 C
ENDBRANCH  11  13
ENDBRANCH   1  11
TORSDOF 4
ENDMDL