MODEL 2
REMARK VINA RESULT: -4.366202094      1.161      1.790
REMARK  3 active torsions:
REMARK  status: ('A' for Active; 'I' for Inactive)
REMARK       I    between atoms: N1_2  and  C2_4
REMARK       I    between atoms: C2_4  and  N3_12
REMARK    1  A    between atoms: N2_5  and  C3_7
REMARK    2  A    between atoms: C3_7  and  S1_10
REMARK    3  A    between atoms: N3_12  and  C6_14
ROOT
HETATM    1  C1  UNL     1    -137.183-182.094 298.583  1.00  0.00     0.165 C
HETATM    2  N1  UNL     1    -136.720-183.318 297.977  1.00  0.00    -0.231 N
ATOM      3  H1  UNL     1    -136.568-184.159 298.535  1.00  0.00     0.177 HD
HETATM    4  C2  UNL     1    -136.482-183.313 296.578  1.00  0.00     0.674 C
HETATM    5  N2  UNL     1    -137.396-183.770 295.803  1.00  0.00    -0.184 N
ATOM      6  H2  UNL     1    -138.253-184.116 296.234  1.00  0.00     0.185 HD
HETATM    7  N3  UNL     1    -135.241-182.799 296.119  1.00  0.00    -0.222 N
ATOM      8  H3  UNL     1    -135.129-181.808 295.906  1.00  0.00     0.178 HD
ENDROOT
BRANCH   5   9
HETATM    9  C3  UNL     1    -137.298-183.827 294.392  1.00  0.00     0.112 C
HETATM   10  C4  UNL     1    -136.926-184.914 293.739  1.00  0.00     0.225 C
HETATM   11  F1  UNL     1    -136.845-184.927 292.393  1.00  0.00    -0.216 F
BRANCH   9  12
HETATM   12  S1  UNL     1    -137.698-182.363 293.466  1.00  0.00    -0.114 SA
HETATM   13  C5  UNL     1    -136.245-181.519 292.842  1.00  0.00     0.097 C
ENDBRANCH   9  12
ENDBRANCH   5   9
BRANCH   7  14
HETATM   14  C6  UNL     1    -134.148-183.719 295.963  1.00  0.00     0.099 C
HETATM   15  C7  UNL     1    -133.411-183.954 297.289  1.00  0.00     0.026 C
HETATM   16  C8  UNL     1    -132.190-184.721 296.759  1.00  0.00     0.002 C
HETATM   17  C9  UNL     1    -131.816-183.951 295.526  1.00  0.00     0.002 C
HETATM   18  C10 UNL     1    -133.023-183.130 295.128  1.00  0.00     0.026 C
ENDBRANCH   7  14
TORSDOF 3
ENDMDL