MODEL 4
REMARK VINA RESULT: -7.466205689      1.350      1.750
REMARK  3 active torsions:
REMARK  status: ('A' for Active; 'I' for Inactive)
REMARK    1  A    between atoms: N1_1  and  N2_4
REMARK       I    between atoms: N2_4  and  C1_6
REMARK       I    between atoms: C1_6  and  N3_8
REMARK    2  A    between atoms: N3_8  and  N4_10
REMARK       I    between atoms: N4_10  and  C2_12
REMARK    3  A    between atoms: C2_12  and  C3_14
ROOT
HETATM    1  N4  UNL     1     -19.774 -29.883  -2.369  1.00  0.00    -0.262 N
ATOM      2  H4  UNL     1     -18.985 -29.518  -1.837  1.00  0.00     0.190 HD
HETATM    3  C2  UNL     1     -21.074 -29.888  -1.801  1.00  0.00     0.270 C
HETATM    4  O2  UNL     1     -22.055 -30.343  -2.490  1.00  0.00    -0.266 OA
ENDROOT
BRANCH   1   5
HETATM    5  N3  UNL     1     -19.580 -30.375  -3.652  1.00  0.00    -0.247 N
HETATM    6  C1  UNL     1     -19.524 -29.463  -4.749  1.00  0.00     0.353 C
HETATM    7  N2  UNL     1     -19.329 -29.993  -6.057  1.00  0.00    -0.257 N
HETATM    8  O1  UNL     1     -19.646 -28.244  -4.535  1.00  0.00    -0.244 OA
ATOM      9  H2  UNL     1     -19.233 -30.998  -6.207  1.00  0.00     0.191 HD
ATOM     10  H3  UNL     1     -19.480 -31.377  -3.809  1.00  0.00     0.192 HD
BRANCH   7  11
HETATM   11  N1  UNL     1     -19.273 -29.101  -7.126  1.00  0.00    -0.341 N
ATOM     12  H12 UNL     1     -19.783 -28.220  -7.081  1.00  0.00     0.177 HD
ATOM     13  H11 UNL     1     -18.714 -29.359  -7.940  1.00  0.00     0.177 HD
ENDBRANCH   7  11
ENDBRANCH   1   5
BRANCH   3  14
HETATM   14  C3  UNL     1     -21.417 -29.415  -0.475  1.00  0.00     0.035 A
HETATM   15  C4  UNL     1     -21.946 -28.166  -0.291  1.00  0.00     0.017 A
HETATM   16  C5  UNL     1     -22.282 -27.698   0.989  1.00  0.00     0.003 A
HETATM   17  C6  UNL     1     -22.075 -28.514   2.078  1.00  0.00     0.026 A
HETATM   18  C7  UNL     1     -21.543 -29.777   1.924  1.00  0.00     0.047 A
HETATM   19  N5  UNL     1     -21.302 -30.668   3.016  1.00  0.00    -0.102 NA
HETATM   20  C8  UNL     1     -21.221 -30.206   0.640  1.00  0.00     0.043 A
ENDBRANCH   3  14
TORSDOF 3
ENDMDL