MODEL 1
REMARK VINA RESULT: -6.182006153      0.000      0.000
REMARK  2 active torsions:
REMARK  status: ('A' for Active; 'I' for Inactive)
REMARK    1  A    between atoms: N1_1  and  C1_4
REMARK    2  A    between atoms: C3_9  and  C4_10
REMARK       I    between atoms: C4_10  and  N4_12
ROOT
HETATM    1  C1  UNL     1     -18.525 -30.753  -4.968  1.00  0.00     0.677 A
HETATM    2  N2  UNL     1     -19.707 -30.878  -5.567  1.00  0.00    -0.177 N
ATOM      3  H2  UNL     1     -19.852 -31.281  -6.493  1.00  0.00     0.185 HD
HETATM    4  C2  UNL     1     -20.675 -30.401  -4.784  1.00  0.00     0.164 A
HETATM    5  N3  UNL     1     -22.079 -30.364  -5.086  1.00  0.00    -0.080 NA
HETATM    6  C3  UNL     1     -20.063 -29.942  -3.608  1.00  0.00     0.158 A
HETATM    7  N6  UNL     1     -18.761 -30.180  -3.774  1.00  0.00    -0.183 N
ATOM      8  H6  UNL     1     -18.039 -29.956  -3.089  1.00  0.00     0.184 HD
ENDROOT
BRANCH   6   9
HETATM    9  C4  UNL     1     -20.744 -29.336  -2.502  1.00  0.00     0.275 C
HETATM   10  O1  UNL     1     -20.931 -28.059  -2.608  1.00  0.00    -0.266 OA
HETATM   11  N4  UNL     1     -21.246 -29.885  -1.319  1.00  0.00    -0.321 N
HETATM   12  C5  UNL     1     -21.317 -31.203  -0.740  1.00  0.00     0.155 C
HETATM   13  C7  UNL     1     -21.882 -29.056  -0.250  1.00  0.00     0.359 C
HETATM   14  C6  UNL     1     -22.761 -31.200  -0.193  1.00  0.00     0.254 C
HETATM   15  N5  UNL     1     -22.832 -29.899   0.406  1.00  0.00    -0.058 N
ATOM     16  H52 UNL     1     -23.775 -29.512   0.396  1.00  0.00     0.279 HD
ATOM     17  H51 UNL     1     -22.705 -29.924   1.418  1.00  0.00     0.279 HD
ENDBRANCH   6   9
BRANCH   1  18
HETATM   18  N1  UNL     1     -17.345 -31.108  -5.425  1.00  0.00    -0.234 N
ATOM     19  H12 UNL     1     -17.124 -31.314  -6.399  1.00  0.00     0.174 HD
ATOM     20  H11 UNL     1     -16.479 -31.234  -4.899  1.00  0.00     0.174 HD
ENDBRANCH   1  18
TORSDOF 2
ENDMDL