MODEL 2
REMARK VINA RESULT: -6.427287284      1.802      1.939
REMARK  5 active torsions:
REMARK  status: ('A' for Active; 'I' for Inactive)
REMARK    1  A    between atoms: N1_1  and  N2_4
REMARK       I    between atoms: N2_4  and  C1_5
REMARK    2  A    between atoms: C1_5  and  C2_7
REMARK    3  A    between atoms: N3_10  and  C5_11
REMARK    4  A    between atoms: C5_11  and  N4_13
REMARK    5  A    between atoms: N4_13  and  N5_15
ROOT
HETATM    1  C2  UNL     1     -20.860 -29.325   0.051  1.00  0.00     0.065 A
HETATM    2  C3  UNL     1     -22.081 -29.101  -0.530  1.00  0.00     0.037 A
HETATM    3  C4  UNL     1     -21.934 -29.360  -1.893  1.00  0.00     0.100 A
HETATM    4  N3  UNL     1     -20.679 -29.726  -2.132  1.00  0.00    -0.308 N
HETATM    5  C6  UNL     1     -20.018 -29.705  -0.941  1.00  0.00     0.117 A
ENDROOT
BRANCH   4   6
HETATM    6  C5  UNL     1     -20.132 -30.073  -3.407  1.00  0.00     0.196 C
HETATM    7  S1  UNL     1     -21.149 -30.574  -4.610  1.00  0.00    -0.039 SA
BRANCH   6   8
HETATM    8  N4  UNL     1     -18.747 -30.007  -3.684  1.00  0.00    -0.282 N
ATOM      9  H4  UNL     1     -18.189 -29.258  -3.276  1.00  0.00     0.189 HD
BRANCH   8  10
HETATM   10  N5  UNL     1     -18.135 -30.947  -4.504  1.00  0.00    -0.343 N
ATOM     11  H52 UNL     1     -18.711 -31.454  -5.176  1.00  0.00     0.176 HD
ATOM     12  H51 UNL     1     -17.134 -31.129  -4.439  1.00  0.00     0.176 HD
ENDBRANCH   8  10
ENDBRANCH   6   8
ENDBRANCH   4   6
BRANCH   1  13
HETATM   13  C1  UNL     1     -20.474 -29.203   1.486  1.00  0.00     0.346 C
HETATM   14  N2  UNL     1     -21.406 -29.167   2.473  1.00  0.00    -0.288 NA
HETATM   15  O1  UNL     1     -19.207 -29.141   1.603  1.00  0.00    -0.249 OA
BRANCH  14  16
HETATM   16  N1  UNL     1     -22.309 -29.133   3.431  1.00  0.00    -0.276 N
ATOM     17  H12 UNL     1     -21.572 -29.141   2.726  1.00  0.00     0.191 HD
ATOM     18  H11 UNL     1     -23.010 -29.106   4.173  1.00  0.00     0.191 HD
ENDBRANCH  14  16
ENDBRANCH   1  13
TORSDOF 5
ENDMDL