MODEL 4
REMARK VINA RESULT: -6.309596988      2.862      4.623
REMARK  2 active torsions:
REMARK  status: ('A' for Active; 'I' for Inactive)
REMARK    1  A    between atoms: C3_6  and  N2_7
REMARK    2  A    between atoms: C4_11  and  N4_12
ROOT
HETATM    1  C1  UNL     1     -17.837 -30.269  -6.693  1.00  0.00     0.211 C
HETATM    2  O1  UNL     1     -18.606 -30.195  -5.679  1.00  0.00    -0.338 OA
HETATM    3  C2  UNL     1     -19.381 -30.164  -4.626  1.00  0.00     0.203 A
HETATM    4  N1  UNL     1     -19.071 -29.833  -3.323  1.00  0.00    -0.166 N
ATOM      5  H1  UNL     1     -18.147 -29.555  -2.993  1.00  0.00     0.186 HD
HETATM    6  C3  UNL     1     -20.159 -29.932  -2.559  1.00  0.00     0.701 A
HETATM    7  N3  UNL     1     -21.212 -30.322  -3.290  1.00  0.00     0.042 N
HETATM    8  C4  UNL     1     -22.510 -30.557  -2.966  1.00  0.00     0.703 A
HETATM    9  N5  UNL     1     -23.368 -30.952  -3.950  1.00  0.00    -0.140 N
ATOM     10  H5  UNL     1     -24.349 -31.139  -3.742  1.00  0.00     0.189 HD
HETATM   11  C5  UNL     1     -22.892 -31.089  -5.193  1.00  0.00     0.340 A
HETATM   12  O2  UNL     1     -23.674 -31.452  -6.108  1.00  0.00    -0.246 OA
HETATM   13  N6  UNL     1     -21.605 -30.854  -5.509  1.00  0.00    -0.289 N
ATOM     14  H6  UNL     1     -21.275 -30.969  -6.468  1.00  0.00     0.172 HD
HETATM   15  C6  UNL     1     -20.758 -30.464  -4.533  1.00  0.00     0.203 A
ENDROOT
BRANCH   6  16
HETATM   16  N2  UNL     1     -20.170 -29.681  -1.287  1.00  0.00    -0.233 N
ATOM     17  H22 UNL     1     -19.349 -29.607  -0.687  1.00  0.00     0.174 HD
ATOM     18  H21 UNL     1     -21.022 -29.529  -0.748  1.00  0.00     0.174 HD
ENDBRANCH   6  16
BRANCH   8  19
HETATM   19  N4  UNL     1     -22.983 -30.435  -1.801  1.00  0.00    -0.233 N
ATOM     20  H42 UNL     1     -22.931 -29.512  -1.371  1.00  0.00     0.174 HD
ATOM     21  H41 UNL     1     -23.410 -31.197  -1.274  1.00  0.00     0.174 HD
ENDBRANCH   8  19
TORSDOF 2
ENDMDL