MODEL 3
REMARK VINA RESULT: -6.244380354      0.392      2.202
REMARK  4 active torsions:
REMARK  status: ('A' for Active; 'I' for Inactive)
REMARK    1  A    between atoms: O1_2  and  C2_3
REMARK    2  A    between atoms: C2_3  and  C3_5
REMARK    3  A    between atoms: C5_10  and  N3_11
REMARK    4  A    between atoms: N3_11  and  N4_13
ROOT
HETATM    1  C3  UNL     1     -21.470 -28.841   0.884  1.00  0.00     0.125 A
HETATM    2  C4  UNL     1     -20.158 -29.262   0.632  1.00  0.00     0.152 A
HETATM    3  N1  UNL     1     -19.222 -29.075   1.686  1.00  0.00    -0.081 NA
HETATM    4  N2  UNL     1     -19.811 -29.811  -0.539  1.00  0.00    -0.176 N
ATOM      5  H2  UNL     1     -18.846 -30.105  -0.686  1.00  0.00     0.185 HD
HETATM    6  C5  UNL     1     -20.703 -29.980  -1.517  1.00  0.00     0.699 A
HETATM    7  N5  UNL     1     -21.964 -29.595  -1.324  1.00  0.00    -0.175 N
ATOM      8  H5  UNL     1     -22.646 -29.723  -2.070  1.00  0.00     0.186 HD
HETATM    9  C6  UNL     1     -22.367 -29.020  -0.122  1.00  0.00     0.134 A
HETATM   10  N6  UNL     1     -23.584 -28.681  -0.021  1.00  0.00    -0.384 N
ATOM     11  H61 UNL     1     -24.257 -28.815  -0.776  1.00  0.00     0.157 HD
ATOM     12  H62 UNL     1     -23.880 -28.259   0.860  1.00  0.00     0.157 HD
ENDROOT
BRANCH   6  13
HETATM   13  N3  UNL     1     -20.368 -30.514  -2.659  1.00  0.00    -0.138 N
ATOM     14  H3  UNL     1     -20.920 -31.295  -3.015  1.00  0.00     0.205 HD
BRANCH  13  15
HETATM   15  N4  UNL     1     -19.293 -30.063  -3.408  1.00  0.00    -0.331 N
ATOM     16  H42 UNL     1     -18.879 -29.167  -3.150  1.00  0.00     0.177 HD
ATOM     17  H41 UNL     1     -18.911 -30.589  -4.194  1.00  0.00     0.177 HD
ENDBRANCH  13  15
ENDBRANCH   6  13
BRANCH   1  18
HETATM   18  C2  UNL     1     -21.773 -28.260   2.164  1.00  0.00     0.300 C
HETATM   19  O2  UNL     1     -21.519 -27.101   2.555  1.00  0.00    -0.259 OA
BRANCH  18  20
HETATM   20  O1  UNL     1     -22.441 -29.033   3.152  1.00  0.00    -0.322 OA
HETATM   21  C1  UNL     1     -22.159 -30.383   3.383  1.00  0.00     0.213 C
ENDBRANCH  18  20
ENDBRANCH   1  18
TORSDOF 4
ENDMDL