MODEL 4
REMARK VINA RESULT: -5.919098346      3.445      6.185
REMARK  3 active torsions:
REMARK  status: ('A' for Active; 'I' for Inactive)
REMARK    1  A    between atoms: O1_3  and  C2_4
REMARK       I    between atoms: C2_4  and  N2_6
REMARK       I    between atoms: N2_6  and  C3_8
REMARK       I    between atoms: C3_8  and  N4_12
REMARK    2  A    between atoms: N4_12  and  N5_14
REMARK    3  A    between atoms: N5_14  and  C4_16
ROOT
HETATM    1  N1  UNL     1     -17.627 -31.608  -5.385  1.00  0.00    -0.163 NA
HETATM    2  C1  UNL     1     -18.476 -30.833  -5.270  1.00  0.00     0.238 C
HETATM    3  O1  UNL     1     -19.465 -29.922  -5.153  1.00  0.00    -0.185 OA
ENDROOT
BRANCH   3   4
HETATM    4  C2  UNL     1     -19.970 -29.502  -3.904  1.00  0.00     0.393 C
HETATM    5  O2  UNL     1     -20.276 -28.294  -3.847  1.00  0.00    -0.236 OA
HETATM    6  N2  UNL     1     -20.089 -30.437  -2.848  1.00  0.00    -0.133 N
HETATM    7  C3  UNL     1     -20.590 -30.047  -1.585  1.00  0.00     0.695 C
ATOM      8  H2  UNL     1     -19.810 -31.406  -3.000  1.00  0.00     0.189 HD
HETATM    9  N3  UNL     1     -20.669 -30.976  -0.665  1.00  0.00    -0.233 N
HETATM   10  N4  UNL     1     -20.999 -28.730  -1.270  1.00  0.00    -0.130 N
ATOM     11  H32 UNL     1     -20.374 -31.925  -0.892  1.00  0.00     0.174 HD
ATOM     12  H31 UNL     1     -21.030 -30.694   0.247  1.00  0.00     0.174 HD
ATOM     13  H4  UNL     1     -20.408 -27.924  -1.473  1.00  0.00     0.205 HD
BRANCH  10  14
HETATM   14  N5  UNL     1     -22.255 -28.583  -0.666  1.00  0.00    -0.264 N
ATOM     15  H5  UNL     1     -23.068 -28.910  -1.189  1.00  0.00     0.189 HD
BRANCH  14  16
HETATM   16  C4  UNL     1     -22.487 -28.021   0.600  1.00  0.00     0.200 C
HETATM   17  N6  UNL     1     -23.564 -27.125   0.789  1.00  0.00    -0.068 NA
HETATM   18  S1  UNL     1     -21.536 -28.384   1.866  1.00  0.00    -0.043 SA
ENDBRANCH  14  16
ENDBRANCH  10  14
ENDBRANCH   3   4
TORSDOF 3
ENDMDL