MODEL 1
REMARK VINA RESULT: -6.997069722      0.000      0.000
REMARK  4 active torsions:
REMARK  status: ('A' for Active; 'I' for Inactive)
REMARK       I    between atoms: C2_2  and  N1_4
REMARK    1  A    between atoms: N1_4  and  C3_5
REMARK    2  A    between atoms: C6_13  and  N5_14
REMARK    3  A    between atoms: N5_14  and  N6_16
REMARK    4  A    between atoms: C7_19  and  N7_20
ROOT
HETATM    1  C3  UNL     1     -20.804 -30.041  -3.636  1.00  0.00     0.179 A
HETATM    2  C4  UNL     1     -21.847 -30.061  -4.500  1.00  0.00     0.172 A
HETATM    3  C5  UNL     1     -23.198 -30.339  -4.046  1.00  0.00     0.122 C
HETATM    4  N2  UNL     1     -24.261 -30.557  -3.662  1.00  0.00    -0.190 NA
HETATM    5  N3  UNL     1     -21.633 -29.800  -5.828  1.00  0.00    -0.286 N
ATOM      6  H3  UNL     1     -22.423 -29.815  -6.473  1.00  0.00     0.188 HD
HETATM    7  N4  UNL     1     -20.442 -29.532  -6.285  1.00  0.00    -0.281 N
ATOM      8  H4  UNL     1     -20.316 -29.342  -7.279  1.00  0.00     0.188 HD
HETATM    9  C6  UNL     1     -19.351 -29.502  -5.448  1.00  0.00     0.164 A
HETATM   10  C7  UNL     1     -19.487 -29.750  -4.115  1.00  0.00     0.117 A
ENDROOT
BRANCH   1  11
HETATM   11  N1  UNL     1     -20.871 -30.286  -2.274  1.00  0.00    -0.365 NA
HETATM   12  C2  UNL     1     -20.936 -30.522  -0.978  1.00  0.00     0.288 C
HETATM   13  C1  UNL     1     -20.422 -29.528   0.089  1.00  0.00     0.135 C
HETATM   14  O1  UNL     1     -21.404 -31.544  -0.407  1.00  0.00    -0.258 OA
ENDBRANCH   1  11
BRANCH  10  15
HETATM   15  N7  UNL     1     -18.611 -29.765  -3.209  1.00  0.00    -0.393 N
ATOM     16  H72 UNL     1     -18.101 -28.988  -2.787  1.00  0.00     0.156 HD
ATOM     17  H71 UNL     1     -18.400 -30.702  -2.867  1.00  0.00     0.156 HD
ENDBRANCH  10  15
BRANCH   9  18
HETATM   18  N5  UNL     1     -18.255 -29.241  -6.011  1.00  0.00    -0.289 N
ATOM     19  H5  UNL     1     -18.120 -28.250  -6.210  1.00  0.00     0.188 HD
BRANCH  18  20
HETATM   20  N6  UNL     1     -17.207 -30.034  -6.409  1.00  0.00    -0.344 N
ATOM     21  H62 UNL     1     -17.215 -30.947  -5.956  1.00  0.00     0.176 HD
ATOM     22  H61 UNL     1     -16.438 -29.880  -7.061  1.00  0.00     0.176 HD
ENDBRANCH  18  20
ENDBRANCH   9  18
TORSDOF 4
ENDMDL