MODEL 1
REMARK VINA RESULT: -6.513891819      0.000      0.000
REMARK  2 active torsions:
REMARK  status: ('A' for Active; 'I' for Inactive)
REMARK    1  A    between atoms: N1_1  and  C1_4
REMARK    2  A    between atoms: C2_7  and  N3_8
ROOT
HETATM    1  C1  UNL     1     -18.395 -30.556  -4.738  1.00  0.00     0.680 A
HETATM    2  N2  UNL     1     -19.399 -30.566  -3.819  1.00  0.00    -0.175 N
ATOM      3  H2  UNL     1     -19.411 -31.283  -3.094  1.00  0.00     0.186 HD
HETATM    4  C2  UNL     1     -20.378 -29.641  -3.854  1.00  0.00     0.149 A
HETATM    5  C7  UNL     1     -20.322 -28.695  -4.852  1.00  0.00     0.159 A
HETATM    6  N5  UNL     1     -21.368 -27.706  -4.897  1.00  0.00    -0.092 NA
HETATM    7  C8  UNL     1     -19.319 -28.660  -5.795  1.00  0.00     0.287 A
HETATM    8  O1  UNL     1     -19.304 -27.778  -6.692  1.00  0.00    -0.265 OA
HETATM    9  N6  UNL     1     -18.376 -29.615  -5.698  1.00  0.00    -0.155 N
ATOM     10  H6  UNL     1     -17.617 -29.625  -6.379  1.00  0.00     0.187 HD
ENDROOT
BRANCH   4  11
HETATM   11  N3  UNL     1     -21.432 -29.608  -2.921  1.00  0.00    -0.362 N
HETATM   12  C3  UNL     1     -21.176 -28.953  -1.655  1.00  0.00     0.152 C
HETATM   13  C4  UNL     1     -21.381 -29.971  -0.546  1.00  0.00     0.252 C
HETATM   14  N4  UNL     1     -22.465 -30.872  -0.795  1.00  0.00    -0.072 N
HETATM   15  C5  UNL     1     -23.402 -30.363  -1.772  1.00  0.00     0.252 C
ATOM     16  H42 UNL     1     -22.120 -31.793  -1.065  1.00  0.00     0.277 HD
ATOM     17  H41 UNL     1     -22.940 -31.121   0.073  1.00  0.00     0.277 HD
HETATM   18  C6  UNL     1     -22.751 -30.167  -3.127  1.00  0.00     0.152 C
ENDBRANCH   4  11
BRANCH   1  19
HETATM   19  N1  UNL     1     -17.440 -31.433  -4.705  1.00  0.00    -0.234 N
ATOM     20  H12 UNL     1     -17.645 -32.368  -4.353  1.00  0.00     0.174 HD
ATOM     21  H11 UNL     1     -16.500 -31.207  -5.029  1.00  0.00     0.174 HD
ENDBRANCH   1  19
TORSDOF 2
ENDMDL