MODEL 2
REMARK VINA RESULT: -5.899521450      0.092      1.270
REMARK  3 active torsions:
REMARK  status: ('A' for Active; 'I' for Inactive)
REMARK    1  A    between atoms: O1_2  and  C2_3
REMARK    2  A    between atoms: C2_3  and  N2_7
REMARK       I    between atoms: N2_7  and  C3_9
REMARK       I    between atoms: C3_9  and  N4_13
REMARK    3  A    between atoms: N4_13  and  S1_15
ROOT
HETATM    1  N2  UNL     1     -20.023 -29.377  -3.004  1.00  0.00    -0.155 N
ATOM      2  H2  UNL     1     -19.689 -28.643  -2.379  1.00  0.00     0.188 HD
HETATM    3  C3  UNL     1     -19.567 -29.371  -4.356  1.00  0.00     0.690 C
HETATM    4  N3  UNL     1     -19.167 -28.267  -4.911  1.00  0.00    -0.234 N
ATOM      5  H31 UNL     1     -18.842 -28.264  -5.877  1.00  0.00     0.174 HD
ATOM      6  H32 UNL     1     -19.200 -27.427  -4.335  1.00  0.00     0.174 HD
HETATM    7  N4  UNL     1     -19.522 -30.529  -5.150  1.00  0.00    -0.098 N
ATOM      8  H4  UNL     1     -20.360 -31.096  -5.281  1.00  0.00     0.200 HD
ENDROOT
BRANCH   1   9
HETATM    9  C2  UNL     1     -20.910 -30.343  -2.484  1.00  0.00     0.231 C
HETATM   10  N1  UNL     1     -20.742 -30.875  -1.308  1.00  0.00    -0.365 N
ATOM     11  H12 UNL     1     -21.383 -31.574  -0.932  1.00  0.00     0.159 HD
ATOM     12  H11 UNL     1     -19.929 -30.550  -0.784  1.00  0.00     0.159 HD
BRANCH   9  13
HETATM   13  O1  UNL     1     -22.016 -30.785  -3.197  1.00  0.00    -0.327 OA
HETATM   14  C1  UNL     1     -22.227 -32.200  -3.302  1.00  0.00     0.213 C
ENDBRANCH   9  13
ENDBRANCH   1   9
BRANCH   7  15
HETATM   15  S1  UNL     1     -18.048 -30.979  -5.896  1.00  0.00     0.223 S
HETATM   16  O2  UNL     1     -17.376 -29.780  -6.524  1.00  0.00    -0.577 OA
HETATM   17  O3  UNL     1     -18.324 -31.932  -7.049  1.00  0.00    -0.577 OA
HETATM   18  O4  UNL     1     -17.013 -31.724  -4.811  1.00  0.00    -0.577 OA
ENDBRANCH   7  15
TORSDOF 3
ENDMDL