MODEL 2
REMARK VINA RESULT: -6.919592827      3.143      4.119
REMARK  2 active torsions:
REMARK  status: ('A' for Active; 'I' for Inactive)
REMARK    1  A    between atoms: N3_7  and  N4_9
REMARK    2  A    between atoms: N4_9  and  C4_11
ROOT
HETATM    1  N1  UNL     1     -32.505 -12.140 -18.548  1.00  0.00    -0.190 NA
HETATM    2  C1  UNL     1     -31.625 -12.818 -18.797  1.00  0.00     0.121 C
HETATM    3  C2  UNL     1     -30.505 -13.663 -19.097  1.00  0.00     0.171 A
HETATM    4  N2  UNL     1     -30.540 -14.886 -19.627  1.00  0.00    -0.177 N
ATOM      5  H2  UNL     1     -31.376 -15.403 -19.899  1.00  0.00     0.185 HD
HETATM    6  C3  UNL     1     -29.274 -15.310 -19.736  1.00  0.00     0.699 A
HETATM    7  N3  UNL     1     -28.910 -16.471 -20.216  1.00  0.00    -0.130 N
ATOM      8  H3  UNL     1     -27.918 -16.705 -20.259  1.00  0.00     0.205 HD
HETATM    9  N6  UNL     1     -28.437 -14.358 -19.276  1.00  0.00    -0.174 N
ATOM     10  H6  UNL     1     -27.420 -14.423 -19.246  1.00  0.00     0.185 HD
HETATM   11  C5  UNL     1     -29.176 -13.297 -18.861  1.00  0.00     0.170 A
HETATM   12  N7  UNL     1     -28.719 -12.076 -18.307  1.00  0.00    -0.079 NA
ENDROOT
BRANCH   7  13
HETATM   13  N4  UNL     1     -29.845 -17.393 -20.668  1.00  0.00    -0.264 N
ATOM     14  H4  UNL     1     -30.791 -17.356 -20.287  1.00  0.00     0.189 HD
BRANCH  13  15
HETATM   15  C4  UNL     1     -29.541 -18.387 -21.641  1.00  0.00     0.200 C
HETATM   16  N5  UNL     1     -29.941 -18.218 -22.995  1.00  0.00    -0.068 NA
HETATM   17  S1  UNL     1     -28.734 -19.729 -21.219  1.00  0.00    -0.043 SA
ENDBRANCH  13  15
ENDBRANCH   7  13
TORSDOF 2
ENDMDL