MODEL 3
REMARK VINA RESULT: -7.337841898      2.047      3.845
REMARK  3 active torsions:
REMARK  status: ('A' for Active; 'I' for Inactive)
REMARK    1  A    between atoms: O1_2  and  N1_3
REMARK    2  A    between atoms: C7_14  and  N4_15
REMARK    3  A    between atoms: C8_20  and  N6_21
ROOT
HETATM    1  N1  UNL     1     -31.009 -15.911 -21.186  1.00  0.00    -0.249 N
ATOM      2  H1  UNL     1     -30.560 -16.743 -21.567  1.00  0.00     0.196 HD
HETATM    3  C2  UNL     1     -30.244 -15.405 -20.343  1.00  0.00     0.153 A
HETATM    4  N2  UNL     1     -28.966 -16.006 -20.054  1.00  0.00    -0.352 N
ATOM      5  H2  UNL     1     -28.761 -16.889 -20.521  1.00  0.00     0.166 HD
HETATM    6  C3  UNL     1     -27.971 -15.502 -19.191  1.00  0.00     0.067 A
HETATM    7  C4  UNL     1     -28.337 -14.320 -18.393  1.00  0.00     0.089 A
HETATM    8  C5  UNL     1     -29.637 -13.728 -18.688  1.00  0.00     0.022 A
HETATM    9  C6  UNL     1     -30.570 -14.187 -19.592  1.00  0.00     0.105 A
HETATM   10  N3  UNL     1     -31.739 -13.530 -19.768  1.00  0.00    -0.188 N
ATOM     11  H3  UNL     1     -32.420 -13.882 -20.442  1.00  0.00     0.184 HD
HETATM   12  C7  UNL     1     -32.012 -12.422 -19.065  1.00  0.00     0.678 A
HETATM   13  N5  UNL     1     -31.118 -11.965 -18.184  1.00  0.00    -0.177 N
ATOM     14  H5  UNL     1     -31.340 -11.121 -17.656  1.00  0.00     0.185 HD
HETATM   15  C8  UNL     1     -29.943 -12.570 -17.967  1.00  0.00     0.123 A
ENDROOT
BRANCH   1  16
HETATM   16  O1  UNL     1     -32.160 -15.774 -21.760  1.00  0.00    -0.284 OA
HETATM   17  C1  UNL     1     -33.352 -16.397 -21.315  1.00  0.00     0.237 C
ENDBRANCH   1  16
BRANCH  15  18
HETATM   18  N6  UNL     1     -29.134 -12.061 -17.091  1.00  0.00    -0.385 N
ATOM     19  H62 UNL     1     -28.218 -11.737 -17.402  1.00  0.00     0.157 HD
ATOM     20  H61 UNL     1     -29.379 -11.972 -16.105  1.00  0.00     0.157 HD
ENDBRANCH  15  18
BRANCH  12  21
HETATM   21  N4  UNL     1     -33.145 -11.834 -19.272  1.00  0.00    -0.234 N
ATOM     22  H42 UNL     1     -33.216 -10.938 -19.754  1.00  0.00     0.174 HD
ATOM     23  H41 UNL     1     -33.992 -12.292 -18.935  1.00  0.00     0.174 HD
ENDBRANCH  12  21
TORSDOF 3
ENDMDL