MODEL 5
REMARK VINA RESULT: -6.719978698      1.617      2.214
REMARK  2 active torsions:
REMARK  status: ('A' for Active; 'I' for Inactive)
REMARK       I    between atoms: C1_2  and  N6_10
REMARK    1  A    between atoms: N2_3  and  N3_5
REMARK    2  A    between atoms: N6_10  and  C3_12
ROOT
HETATM    1  N1  UNL     1     -29.234 -17.631 -20.754  1.00  0.00    -0.062 NA
HETATM    2  C1  UNL     1     -30.408 -16.887 -21.021  1.00  0.00     0.209 C
HETATM    3  N2  UNL     1     -31.510 -17.488 -21.264  1.00  0.00    -0.271 N
ATOM      4  H2  UNL     1     -31.555 -18.507 -21.268  1.00  0.00     0.189 HD
HETATM    5  N6  UNL     1     -30.380 -15.472 -21.025  1.00  0.00    -0.308 N
ATOM      6  H6  UNL     1     -30.719 -14.923 -21.815  1.00  0.00     0.170 HD
ENDROOT
BRANCH   5   7
HETATM    7  C3  UNL     1     -29.886 -14.911 -19.941  1.00  0.00     0.169 A
HETATM    8  N7  UNL     1     -28.798 -15.278 -19.264  1.00  0.00    -0.277 N
HETATM    9  N8  UNL     1     -28.461 -14.617 -18.227  1.00  0.00    -0.278 N
ATOM     10  H7  UNL     1     -28.242 -16.077 -19.572  1.00  0.00     0.189 HD
HETATM   11  C4  UNL     1     -29.206 -13.579 -17.849  1.00  0.00     0.160 A
ATOM     12  H8  UNL     1     -27.633 -14.880 -17.693  1.00  0.00     0.189 HD
HETATM   13  N9  UNL     1     -29.020 -12.785 -16.818  1.00  0.00    -0.379 N
HETATM   14  S1  UNL     1     -30.432 -13.566 -19.041  1.00  0.00    -0.015 SA
ATOM     15  H92 UNL     1     -28.288 -12.792 -16.108  1.00  0.00     0.158 HD
ATOM     16  H91 UNL     1     -29.590 -11.990 -16.530  1.00  0.00     0.158 HD
ENDBRANCH   5   7
BRANCH   3  17
HETATM   17  N3  UNL     1     -32.648 -16.728 -21.523  1.00  0.00    -0.274 N
HETATM   18  C2  UNL     1     -33.287 -16.952 -22.609  1.00  0.00     0.215 C
HETATM   19  N4  UNL     1     -32.878 -17.938 -23.553  1.00  0.00    -0.065 NA
HETATM   20  N5  UNL     1     -34.456 -16.158 -22.858  1.00  0.00    -0.065 NA
ATOM     21  H3  UNL     1     -32.964 -16.015 -20.866  1.00  0.00     0.189 HD
ENDBRANCH   3  17
TORSDOF 2
ENDMDL