MODEL 1
REMARK VINA RESULT: -8.368663107      0.000      0.000
REMARK  1 active torsions:
REMARK  status: ('A' for Active; 'I' for Inactive)
REMARK    1  A    between atoms: C2_3  and  C3_4
ROOT
HETATM    1  C1  UNL     1     -32.209 -13.514 -20.153  1.00  0.00     0.157 C
HETATM    2  N1  UNL     1     -30.918 -13.949 -19.668  1.00  0.00    -0.341 N
HETATM    3  C2  UNL     1     -30.281 -15.049 -20.144  1.00  0.00     0.127 A
HETATM    4  C4  UNL     1     -29.097 -15.182 -19.484  1.00  0.00     0.108 A
HETATM    5  N3  UNL     1     -28.105 -16.185 -19.650  1.00  0.00    -0.097 NA
HETATM    6  C5  UNL     1     -29.023 -14.128 -18.580  1.00  0.00     0.105 A
HETATM    7  N4  UNL     1     -28.296 -13.536 -17.628  1.00  0.00    -0.295 N
ATOM      8  H4  UNL     1     -27.387 -13.879 -17.315  1.00  0.00     0.187 HD
HETATM    9  N5  UNL     1     -28.874 -12.468 -17.140  1.00  0.00    -0.283 N
ATOM     10  H5  UNL     1     -28.512 -11.856 -16.409  1.00  0.00     0.188 HD
HETATM   11  C6  UNL     1     -30.062 -12.336 -17.804  1.00  0.00     0.143 A
HETATM   12  N6  UNL     1     -30.873 -11.387 -17.563  1.00  0.00    -0.383 N
ATOM     13  H61 UNL     1     -31.759 -11.288 -18.059  1.00  0.00     0.157 HD
ATOM     14  H62 UNL     1     -30.789 -10.625 -16.891  1.00  0.00     0.157 HD
HETATM   15  C7  UNL     1     -30.175 -13.362 -18.709  1.00  0.00     0.110 A
ENDROOT
BRANCH   3  16
HETATM   16  C3  UNL     1     -30.759 -15.939 -21.177  1.00  0.00     0.283 C
HETATM   17  N2  UNL     1     -32.104 -16.101 -21.571  1.00  0.00    -0.056 NA
HETATM   18  O1  UNL     1     -29.930 -16.674 -21.829  1.00  0.00    -0.269 OA
ENDBRANCH   3  16
TORSDOF 1
ENDMDL