MODEL 3
REMARK VINA RESULT: -7.044939726      2.240      3.341
REMARK  4 active torsions:
REMARK  status: ('A' for Active; 'I' for Inactive)
REMARK    1  A    between atoms: N1_1  and  C1_4
REMARK    2  A    between atoms: C2_7  and  N3_8
REMARK    3  A    between atoms: N4_11  and  C3_12
REMARK    4  A    between atoms: C3_12  and  C4_13
ROOT
HETATM    1  C1  UNL     1     -32.587 -13.415 -20.406  1.00  0.00     0.145 A
HETATM    2  N2  UNL     1     -33.495 -14.169 -21.039  1.00  0.00    -0.174 N
ATOM      3  H2  UNL     1     -34.401 -13.766 -21.279  1.00  0.00     0.186 HD
HETATM    4  C2  UNL     1     -33.235 -15.446 -21.364  1.00  0.00     0.685 A
HETATM    5  N4  UNL     1     -32.037 -16.018 -21.059  1.00  0.00    -0.138 N
HETATM    6  C5  UNL     1     -31.121 -15.275 -20.426  1.00  0.00     0.163 A
HETATM    7  N5  UNL     1     -29.869 -15.554 -20.000  1.00  0.00    -0.292 N
ATOM      8  H5  UNL     1     -29.391 -16.449 -20.105  1.00  0.00     0.172 HD
HETATM    9  C6  UNL     1     -29.351 -14.446 -19.409  1.00  0.00     0.326 A
HETATM   10  O2  UNL     1     -28.190 -14.376 -18.902  1.00  0.00    -0.247 OA
HETATM   11  N6  UNL     1     -30.256 -13.460 -19.452  1.00  0.00    -0.302 N
ATOM     12  H6  UNL     1     -30.141 -12.515 -19.085  1.00  0.00     0.171 HD
HETATM   13  C7  UNL     1     -31.341 -13.946 -20.067  1.00  0.00     0.126 A
ENDROOT
BRANCH   1  14
HETATM   14  N1  UNL     1     -32.799 -12.175 -20.075  1.00  0.00    -0.383 N
ATOM     15  H12 UNL     1     -32.926 -11.985 -19.081  1.00  0.00     0.157 HD
ATOM     16  H11 UNL     1     -32.841 -11.416 -20.754  1.00  0.00     0.157 HD
ENDBRANCH   1  14
BRANCH   4  17
HETATM   17  N3  UNL     1     -34.101 -16.183 -21.974  1.00  0.00    -0.234 N
ATOM     18  H32 UNL     1     -33.788 -17.098 -22.299  1.00  0.00     0.174 HD
ATOM     19  H31 UNL     1     -35.059 -15.870 -22.126  1.00  0.00     0.174 HD
ENDBRANCH   4  17
BRANCH   5  20
HETATM   20  C3  UNL     1     -31.733 -17.365 -21.389  1.00  0.00     0.158 C
BRANCH  20  21
HETATM   21  C4  UNL     1     -30.870 -17.671 -22.320  1.00  0.00     0.276 C
HETATM   22  O1  UNL     1     -29.781 -17.806 -22.935  1.00  0.00    -0.301 OA
ENDBRANCH  20  21
ENDBRANCH   5  20
TORSDOF 4
ENDMDL