MODEL 3
REMARK VINA RESULT: -7.243879806      1.331      4.001
REMARK  3 active torsions:
REMARK  status: ('A' for Active; 'I' for Inactive)
REMARK    1  A    between atoms: N1_1  and  C1_4
REMARK    2  A    between atoms: C5_15  and  N5_16
REMARK    3  A    between atoms: N6_19  and  C6_20
ROOT
HETATM    1  C1  UNL     1     -32.861 -14.291 -20.906  1.00  0.00     0.680 A
HETATM    2  N2  UNL     1     -32.012 -15.266 -21.263  1.00  0.00    -0.154 N
ATOM      3  H2  UNL     1     -32.277 -15.924 -21.996  1.00  0.00     0.187 HD
HETATM    4  C2  UNL     1     -30.794 -15.387 -20.653  1.00  0.00     0.291 A
HETATM    5  O1  UNL     1     -30.009 -16.302 -20.996  1.00  0.00    -0.265 OA
HETATM    6  C3  UNL     1     -30.489 -14.468 -19.669  1.00  0.00     0.172 A
HETATM    7  C4  UNL     1     -31.371 -13.471 -19.312  1.00  0.00     0.170 A
HETATM    8  N3  UNL     1     -32.553 -13.403 -19.946  1.00  0.00    -0.174 N
ATOM      9  H3  UNL     1     -33.220 -12.674 -19.697  1.00  0.00     0.186 HD
HETATM   10  N4  UNL     1     -30.873 -12.703 -18.346  1.00  0.00    -0.173 N
ATOM     11  H4  UNL     1     -31.321 -11.899 -17.906  1.00  0.00     0.186 HD
HETATM   12  C5  UNL     1     -29.631 -13.213 -18.066  1.00  0.00     0.687 A
HETATM   13  N6  UNL     1     -29.405 -14.275 -18.865  1.00  0.00    -0.114 N
ENDROOT
BRANCH   1  14
HETATM   14  N1  UNL     1     -34.025 -14.188 -21.499  1.00  0.00    -0.234 N
ATOM     15  H12 UNL     1     -34.175 -14.704 -22.366  1.00  0.00     0.174 HD
ATOM     16  H11 UNL     1     -34.754 -13.603 -21.091  1.00  0.00     0.174 HD
ENDBRANCH   1  14
BRANCH  13  17
HETATM   17  C6  UNL     1     -28.248 -15.076 -18.888  1.00  0.00     0.377 C
HETATM   18  O2  UNL     1     -27.387 -15.031 -19.826  1.00  0.00    -0.282 OA
ENDBRANCH  13  17
BRANCH  12  19
HETATM   19  N5  UNL     1     -28.885 -12.690 -17.169  1.00  0.00    -0.234 N
ATOM     20  H52 UNL     1     -29.122 -12.043 -16.417  1.00  0.00     0.174 HD
ATOM     21  H51 UNL     1     -27.886 -12.895 -17.125  1.00  0.00     0.174 HD
ENDBRANCH  12  19
TORSDOF 3
ENDMDL