MODEL 3
REMARK VINA RESULT: -6.371996273      1.894      3.270
REMARK  1 active torsions:
REMARK  status: ('A' for Active; 'I' for Inactive)
REMARK    1  A    between atoms: N1_2  and  N2_3
ROOT
HETATM    1  N2  UNL     1     -32.351 -14.460 -20.388  1.00  0.00    -0.151 N
HETATM    2  N3  UNL     1     -31.450 -15.510 -20.418  1.00  0.00    -0.221 N
ATOM      3  H3  UNL     1     -31.746 -16.463 -20.209  1.00  0.00     0.210 HD
HETATM    4  N4  UNL     1     -30.154 -15.228 -20.736  1.00  0.00    -0.281 N
ATOM      5  H4  UNL     1     -29.910 -14.896 -21.669  1.00  0.00     0.189 HD
HETATM    6  C2  UNL     1     -29.146 -15.402 -19.746  1.00  0.00     0.194 C
HETATM    7  N5  UNL     1     -28.040 -14.496 -19.740  1.00  0.00    -0.383 N
ATOM      8  H5  UNL     1     -27.362 -14.437 -20.500  1.00  0.00     0.160 HD
HETATM    9  C3  UNL     1     -27.972 -13.647 -18.522  1.00  0.00     0.148 C
HETATM   10  C4  UNL     1     -29.331 -13.534 -17.921  1.00  0.00     0.251 C
HETATM   11  N6  UNL     1     -29.778 -12.273 -17.386  1.00  0.00    -0.073 N
ATOM     12  H61 UNL     1     -29.171 -11.505 -17.671  1.00  0.00     0.277 HD
ATOM     13  H62 UNL     1     -29.634 -12.217 -16.378  1.00  0.00     0.277 HD
HETATM   14  C5  UNL     1     -31.192 -12.018 -17.753  1.00  0.00     0.241 C
HETATM   15  C6  UNL     1     -31.966 -13.239 -18.129  1.00  0.00     0.134 C
HETATM   16  C7  UNL     1     -32.378 -13.328 -19.558  1.00  0.00     0.257 C
HETATM   17  O1  UNL     1     -32.798 -12.242 -20.072  1.00  0.00    -0.270 OA
ENDROOT
BRANCH   1  18
HETATM   18  N1  UNL     1     -33.408 -14.534 -21.333  1.00  0.00    -0.118 NA
HETATM   19  C1  UNL     1     -34.049 -15.813 -21.293  1.00  0.00     0.161 C
ENDBRANCH   1  18
TORSDOF 1
ENDMDL