MODEL 2
REMARK VINA RESULT: -6.774484663      2.282      5.050
REMARK  3 active torsions:
REMARK  status: ('A' for Active; 'I' for Inactive)
REMARK    1  A    between atoms: N1_1  and  C1_5
REMARK    2  A    between atoms: C1_5  and  O1_6
REMARK    3  A    between atoms: C1_5  and  C2_8
ROOT
HETATM    1  C2  UNL     1     -29.513 -13.010 -19.020  1.00  0.00     0.069 C
HETATM    2  C3  UNL     1     -28.554 -14.200 -18.785  1.00  0.00     0.030 C
HETATM    3  C4  UNL     1     -28.488 -15.143 -19.935  1.00  0.00     0.119 C
HETATM    4  N2  UNL     1     -29.343 -16.266 -19.877  1.00  0.00    -0.398 N
ATOM      5  H2  UNL     1     -29.717 -16.579 -18.982  1.00  0.00     0.158 HD
HETATM    6  C5  UNL     1     -29.672 -16.944 -21.045  1.00  0.00     0.099 C
HETATM    7  C6  UNL     1     -31.133 -16.881 -21.466  1.00  0.00     0.099 C
HETATM    8  N3  UNL     1     -31.948 -16.068 -20.656  1.00  0.00    -0.396 N
ATOM      9  H3  UNL     1     -32.197 -16.338 -19.704  1.00  0.00     0.158 HD
HETATM   10  C7  UNL     1     -32.414 -14.830 -21.242  1.00  0.00     0.146 C
HETATM   11  C8  UNL     1     -32.926 -13.844 -20.253  1.00  0.00     0.251 C
HETATM   12  N4  UNL     1     -31.948 -12.954 -19.653  1.00  0.00    -0.073 N
ATOM     13  H41 UNL     1     -32.263 -12.558 -18.766  1.00  0.00     0.277 HD
ATOM     14  H42 UNL     1     -31.845 -12.077 -20.162  1.00  0.00     0.277 HD
HETATM   15  C9  UNL     1     -30.737 -13.667 -19.536  1.00  0.00     0.241 C
ENDROOT
BRANCH   1  16
HETATM   16  C1  UNL     1     -29.663 -12.306 -17.711  1.00  0.00     0.321 C
BRANCH  16  17
HETATM   17  N1  UNL     1     -30.087 -13.227 -16.676  1.00  0.00    -0.053 N
ATOM     18  H13 UNL     1     -30.837 -13.851 -16.977  1.00  0.00     0.277 HD
ATOM     19  H12 UNL     1     -29.394 -13.948 -16.472  1.00  0.00     0.277 HD
ATOM     20  H11 UNL     1     -30.335 -12.667 -15.860  1.00  0.00     0.277 HD
ENDBRANCH  16  17
BRANCH  16  21
HETATM   21  O1  UNL     1     -30.642 -11.311 -17.800  1.00  0.00    -0.369 OA
ATOM     22  H1  UNL     1     -30.962 -11.315 -18.695  1.00  0.00     0.212 HD
ENDBRANCH  16  21
ENDBRANCH   1  16
TORSDOF 3
ENDMDL