MODEL 1
REMARK VINA RESULT: -7.039602768      0.000      0.000
REMARK  2 active torsions:
REMARK  status: ('A' for Active; 'I' for Inactive)
REMARK       I    between atoms: C1_4  and  N3_6
REMARK    1  A    between atoms: N3_6  and  N4_8
REMARK    2  A    between atoms: N6_16  and  N7_18
ROOT
HETATM    1  N4  UNL     1     -31.036 -13.259 -19.815  1.00  0.00    -0.277 N
ATOM      2  H4  UNL     1     -31.730 -12.512 -19.814  1.00  0.00     0.189 HD
HETATM    3  C2  UNL     1     -31.393 -14.378 -20.304  1.00  0.00     0.161 C
HETATM    4  N5  UNL     1     -30.483 -15.463 -20.339  1.00  0.00    -0.369 N
ATOM      5  H5  UNL     1     -29.673 -15.494 -19.721  1.00  0.00     0.161 HD
HETATM    6  C3  UNL     1     -30.748 -16.527 -21.287  1.00  0.00     0.128 C
HETATM    7  C4  UNL     1     -32.037 -17.203 -20.861  1.00  0.00     0.086 C
HETATM    8  C5  UNL     1     -33.166 -16.360 -21.316  1.00  0.00     0.070 C
HETATM    9  N6  UNL     1     -34.185 -16.797 -21.928  1.00  0.00    -0.304 N
ATOM     10  H6  UNL     1     -34.902 -16.121 -22.192  1.00  0.00     0.186 HD
HETATM   11  S1  UNL     1     -33.041 -14.600 -20.952  1.00  0.00    -0.038 SA
ENDROOT
BRANCH   1  12
HETATM   12  N3  UNL     1     -29.802 -12.962 -19.287  1.00  0.00    -0.272 N
HETATM   13  C1  UNL     1     -29.704 -12.309 -18.033  1.00  0.00     0.200 C
HETATM   14  N1  UNL     1     -30.542 -11.378 -17.708  1.00  0.00    -0.372 N
HETATM   15  N2  UNL     1     -28.681 -12.666 -17.111  1.00  0.00    -0.062 NA
ATOM     16  H12 UNL     1     -30.471 -10.909 -16.805  1.00  0.00     0.158 HD
ATOM     17  H11 UNL     1     -31.275 -11.122 -18.369  1.00  0.00     0.158 HD
ATOM     18  H3  UNL     1     -28.956 -13.212 -19.798  1.00  0.00     0.189 HD
ENDBRANCH   1  12
BRANCH   9  19
HETATM   19  N7  UNL     1     -34.400 -18.129 -22.267  1.00  0.00    -0.344 N
ATOM     20  H72 UNL     1     -33.667 -18.584 -22.811  1.00  0.00     0.176 HD
ATOM     21  H71 UNL     1     -35.227 -18.670 -22.014  1.00  0.00     0.176 HD
ENDBRANCH   9  19
TORSDOF 2
ENDMDL