MODEL 2
REMARK VINA RESULT: -7.785805293      1.058      3.621
REMARK  3 active torsions:
REMARK  status: ('A' for Active; 'I' for Inactive)
REMARK    1  A    between atoms: N1_1  and  C1_4
REMARK    2  A    between atoms: C5_13  and  N4_14
REMARK    3  A    between atoms: N6_19  and  C6_20
ROOT
HETATM    1  C1  UNL     1     -29.933 -13.343 -19.022  1.00  0.00     0.120 A
HETATM    2  N2  UNL     1     -28.818 -14.123 -18.967  1.00  0.00    -0.294 N
ATOM      3  H2  UNL     1     -28.019 -13.796 -18.424  1.00  0.00     0.172 HD
HETATM    4  C2  UNL     1     -28.729 -15.301 -19.598  1.00  0.00     0.327 A
HETATM    5  O1  UNL     1     -27.658 -15.985 -19.508  1.00  0.00    -0.247 OA
HETATM    6  N3  UNL     1     -29.777 -15.755 -20.324  1.00  0.00    -0.292 N
ATOM      7  H3  UNL     1     -29.700 -16.654 -20.801  1.00  0.00     0.172 HD
HETATM    8  C3  UNL     1     -30.910 -15.056 -20.432  1.00  0.00     0.151 A
HETATM    9  C4  UNL     1     -30.991 -13.832 -19.772  1.00  0.00     0.099 A
HETATM   10  C5  UNL     1     -32.254 -13.379 -20.079  1.00  0.00     0.132 A
HETATM   11  N5  UNL     1     -32.896 -14.267 -20.871  1.00  0.00    -0.274 N
ATOM     12  H5  UNL     1     -33.842 -14.174 -21.240  1.00  0.00     0.189 HD
HETATM   13  N6  UNL     1     -32.082 -15.267 -21.076  1.00  0.00    -0.212 N
ENDROOT
BRANCH   1  14
HETATM   14  N1  UNL     1     -29.978 -12.225 -18.407  1.00  0.00    -0.384 N
ATOM     15  H12 UNL     1     -30.822 -11.874 -17.955  1.00  0.00     0.157 HD
ATOM     16  H11 UNL     1     -29.150 -11.632 -18.344  1.00  0.00     0.157 HD
ENDBRANCH   1  14
BRANCH  10  17
HETATM   17  N4  UNL     1     -32.723 -12.254 -19.649  1.00  0.00    -0.384 N
ATOM     18  H42 UNL     1     -32.506 -11.328 -20.015  1.00  0.00     0.157 HD
ATOM     19  H41 UNL     1     -33.381 -12.186 -18.872  1.00  0.00     0.157 HD
ENDBRANCH  10  17
BRANCH  13  20
HETATM   20  C6  UNL     1     -32.356 -16.431 -21.860  1.00  0.00     0.378 C
HETATM   21  O2  UNL     1     -31.413 -17.015 -22.429  1.00  0.00    -0.281 OA
ENDBRANCH  13  20
TORSDOF 3
ENDMDL