MODEL 3
REMARK VINA RESULT: -6.957493572      1.486      1.668
REMARK  8 active torsions:
REMARK  status: ('A' for Active; 'I' for Inactive)
REMARK    1  A    between atoms: O1_2  and  C2_3
REMARK    2  A    between atoms: C2_3  and  C3_4
REMARK    3  A    between atoms: C2_3  and  C9_16
REMARK    4  A    between atoms: C3_4  and  O2_5
REMARK    5  A    between atoms: O2_5  and  C4_6
REMARK    6  A    between atoms: C4_6  and  C5_7
REMARK       I    between atoms: C5_7  and  N1_9
REMARK    7  A    between atoms: N1_9  and  C6_11
REMARK    8  A    between atoms: C6_11  and  C7_12
ROOT
HETATM    1  C4  UNL     1       4.059  20.401 -11.553  1.00  0.00     0.270 C
ENDROOT
BRANCH   1   2
HETATM    2  O2  UNL     1       5.023  20.117 -10.649  1.00  0.00    -0.379 OA
BRANCH   2   3
HETATM    3  C3  UNL     1       4.686  19.923  -9.352  1.00  0.00     0.209 C
BRANCH   3   4
HETATM    4  C2  UNL     1       3.318  19.318  -9.151  1.00  0.00     0.233 C
BRANCH   4   5
HETATM    5  O1  UNL     1       2.829  19.553  -7.880  1.00  0.00    -0.380 OA
HETATM    6  C1  UNL     1       3.598  20.416  -7.144  1.00  0.00     0.202 C
ENDBRANCH   4   5
BRANCH   4   7
HETATM    7  C9  UNL     1       3.273  17.876  -9.424  1.00  0.00     0.262 C
HETATM    8  N4  UNL     1       2.033  17.275  -9.749  1.00  0.00    -0.060 NA
HETATM    9  O4  UNL     1       4.274  17.114  -9.392  1.00  0.00    -0.274 OA
ENDBRANCH   4   7
ENDBRANCH   3   4
ENDBRANCH   2   3
ENDBRANCH   1   2
BRANCH   1  10
HETATM   10  C5  UNL     1       4.007  19.552 -12.764  1.00  0.00     0.241 C
HETATM   11  O3  UNL     1       4.026  18.313 -12.795  1.00  0.00    -0.271 OA
HETATM   12  N1  UNL     1       3.925  20.235 -14.032  1.00  0.00    -0.354 N
ATOM     13  H1  UNL     1       3.906  21.254 -14.058  1.00  0.00     0.162 HD
BRANCH  12  14
HETATM   14  C6  UNL     1       3.870  19.487 -15.259  1.00  0.00     0.177 C
BRANCH  14  15
HETATM   15  C7  UNL     1       2.536  19.616 -15.863  1.00  0.00     0.055 C
HETATM   16  N2  UNL     1       1.700  20.725 -15.555  1.00  0.00    -0.104 NA
HETATM   17  C8  UNL     1       2.098  18.698 -16.702  1.00  0.00     0.123 C
HETATM   18  N3  UNL     1       0.809  18.780 -17.315  1.00  0.00    -0.113 NA
ENDBRANCH  14  15
ENDBRANCH  12  14
ENDBRANCH   1  10
TORSDOF 8
ENDMDL