MODEL 5
REMARK VINA RESULT: -6.622554948      2.250      7.026
REMARK  10 active torsions:
REMARK  status: ('A' for Active; 'I' for Inactive)
REMARK    1  A    between atoms: C2_2  and  N1_3
REMARK    2  A    between atoms: N1_3  and  C3_6
REMARK    3  A    between atoms: C3_6  and  C4_7
REMARK       I    between atoms: C4_7  and  N2_9
REMARK       I    between atoms: N2_9  and  C5_11
REMARK       I    between atoms: C5_11  and  N3_13
REMARK    4  A    between atoms: N3_13  and  C6_15
REMARK    5  A    between atoms: C6_15  and  C7_16
REMARK    6  A    between atoms: C7_16  and  O3_17
REMARK    7  A    between atoms: C7_16  and  C8_19
REMARK    8  A    between atoms: C7_16  and  C9_24
REMARK    9  A    between atoms: C8_19  and  N4_20
REMARK   10  A    between atoms: C9_24  and  O4_25
ROOT
HETATM    1  C4  UNL     1       3.673  20.495 -13.560  1.00  0.00     0.251 C
HETATM    2  O1  UNL     1       2.582  20.712 -13.007  1.00  0.00    -0.271 OA
HETATM    3  N2  UNL     1       4.895  20.378 -12.922  1.00  0.00    -0.278 N
ATOM      4  H2  UNL     1       5.698  20.198 -13.523  1.00  0.00     0.173 HD
HETATM    5  C5  UNL     1       5.162  20.476 -11.557  1.00  0.00     0.322 C
HETATM    6  O2  UNL     1       6.405  20.326 -11.259  1.00  0.00    -0.247 OA
HETATM    7  N3  UNL     1       4.186  20.714 -10.602  1.00  0.00    -0.340 N
ATOM      8  H3  UNL     1       3.227  20.774 -10.944  1.00  0.00     0.164 HD
ENDROOT
BRANCH   7   9
HETATM    9  C6  UNL     1       4.366  20.886  -9.193  1.00  0.00     0.166 C
BRANCH   9  10
HETATM   10  C7  UNL     1       4.234  19.672  -8.374  1.00  0.00     0.118 C
BRANCH  10  11
HETATM   11  O3  UNL     1       5.487  19.149  -7.974  1.00  0.00    -0.384 OA
ATOM     12  H3  UNL     1       6.074  19.822  -7.650  1.00  0.00     0.210 HD
ENDBRANCH  10  11
BRANCH  10  13
HETATM   13  C8  UNL     1       3.774  20.296  -6.961  1.00  0.00     0.271 C
BRANCH  13  14
HETATM   14  N4  UNL     1       3.100  21.524  -7.190  1.00  0.00    -0.076 N
ATOM     15  H43 UNL     1       2.608  21.534  -8.083  1.00  0.00     0.274 HD
ATOM     16  H42 UNL     1       2.293  21.643  -6.578  1.00  0.00     0.274 HD
ATOM     17  H41 UNL     1       3.766  22.292  -7.106  1.00  0.00     0.274 HD
ENDBRANCH  13  14
ENDBRANCH  10  13
BRANCH  10  18
HETATM   18  C9  UNL     1       3.216  18.694  -8.732  1.00  0.00     0.205 C
BRANCH  18  19
HETATM   19  O4  UNL     1       1.996  19.323  -8.982  1.00  0.00    -0.398 OA
ATOM     20  H4  UNL     1       1.748  19.222  -9.893  1.00  0.00     0.209 HD
ENDBRANCH  18  19
ENDBRANCH  10  18
ENDBRANCH   9  10
ENDBRANCH   7   9
BRANCH   1  21
HETATM   21  C3  UNL     1       3.603  20.352 -15.075  1.00  0.00     0.335 C
BRANCH  21  22
HETATM   22  N1  UNL     1       2.213  20.383 -15.443  1.00  0.00    -0.067 N
ATOM     23  H12 UNL     1       1.891  21.319 -15.693  1.00  0.00     0.277 HD
ATOM     24  H11 UNL     1       1.590  20.233 -14.649  1.00  0.00     0.277 HD
BRANCH  22  25
HETATM   25  C2  UNL     1       2.009  19.410 -16.515  1.00  0.00     0.228 C
HETATM   26  C1  UNL     1       2.739  18.135 -16.199  1.00  0.00     0.034 C
ENDBRANCH  22  25
ENDBRANCH  21  22
ENDBRANCH   1  21
TORSDOF 10
ENDMDL