MODEL 1
REMARK VINA RESULT: -6.427007416      0.000      0.000
REMARK  11 active torsions:
REMARK  status: ('A' for Active; 'I' for Inactive)
REMARK    1  A    between atoms: C2_2  and  N1_3
REMARK    2  A    between atoms: C2_2  and  C7_15
REMARK    3  A    between atoms: N1_3  and  C3_6
REMARK    4  A    between atoms: C3_6  and  C4_7
REMARK    5  A    between atoms: C4_7  and  O1_8
REMARK    6  A    between atoms: O1_8  and  C5_9
REMARK    7  A    between atoms: C5_9  and  C6_10
REMARK    8  A    between atoms: C6_10  and  N2_11
REMARK    9  A    between atoms: C7_15  and  O2_16
REMARK   10  A    between atoms: C7_15  and  C9_20
REMARK   11  A    between atoms: O2_16  and  C8_17
ROOT
HETATM    1  N1  UNL     1       4.648  20.079  -9.070  1.00  0.00    -0.066 N
ATOM      2  H11 UNL     1       4.668  21.093  -9.172  1.00  0.00     0.277 HD
ATOM      3  H12 UNL     1       5.576  19.855  -9.430  1.00  0.00     0.277 HD
ENDROOT
BRANCH   1   4
HETATM    4  C2  UNL     1       3.628  19.503  -9.901  1.00  0.00     0.220 C
HETATM    5  C1  UNL     1       3.567  18.000  -9.767  1.00  0.00     0.043 C
BRANCH   4   6
HETATM    6  C7  UNL     1       3.913  19.863 -11.343  1.00  0.00     0.252 C
BRANCH   6   7
HETATM    7  O2  UNL     1       4.089  18.658 -12.116  1.00  0.00    -0.290 OA
BRANCH   7   8
HETATM    8  C8  UNL     1       3.624  18.527 -13.394  1.00  0.00     0.373 C
HETATM    9  N3  UNL     1       3.214  17.241 -13.834  1.00  0.00    -0.032 NA
HETATM   10  O3  UNL     1       3.577  19.547 -14.127  1.00  0.00    -0.242 OA
ENDBRANCH   7   8
ENDBRANCH   6   7
BRANCH   6  11
HETATM   11  C9  UNL     1       5.129  20.696 -11.505  1.00  0.00     0.262 C
HETATM   12  N4  UNL     1       6.443  20.175 -11.581  1.00  0.00    -0.060 NA
HETATM   13  O4  UNL     1       4.986  21.952 -11.580  1.00  0.00    -0.274 OA
ENDBRANCH   6  11
ENDBRANCH   4   6
ENDBRANCH   1   4
BRANCH   1  14
HETATM   14  C3  UNL     1       4.533  19.704  -7.677  1.00  0.00     0.259 C
BRANCH  14  15
HETATM   15  C4  UNL     1       3.840  20.727  -6.847  1.00  0.00     0.195 C
BRANCH  15  16
HETATM   16  O1  UNL     1       3.955  20.405  -5.507  1.00  0.00    -0.388 OA
BRANCH  16  17
HETATM   17  C5  UNL     1       3.956  21.462  -4.638  1.00  0.00     0.195 C
BRANCH  17  18
HETATM   18  C6  UNL     1       3.328  22.666  -5.360  1.00  0.00     0.255 C
BRANCH  18  19
HETATM   19  N2  UNL     1       2.818  23.629  -4.409  1.00  0.00    -0.077 N
ATOM     20  H23 UNL     1       3.516  24.336  -4.179  1.00  0.00     0.274 HD
ATOM     21  H22 UNL     1       2.114  24.236  -4.829  1.00  0.00     0.274 HD
ATOM     22  H21 UNL     1       2.465  23.162  -3.574  1.00  0.00     0.274 HD
ENDBRANCH  18  19
ENDBRANCH  17  18
ENDBRANCH  16  17
ENDBRANCH  15  16
ENDBRANCH  14  15
ENDBRANCH   1  14
TORSDOF 11
ENDMDL