MODEL 2
REMARK VINA RESULT: -6.681117627      2.265      6.713
REMARK  11 active torsions:
REMARK  status: ('A' for Active; 'I' for Inactive)
REMARK    1  A    between atoms: O1_2  and  C2_3
REMARK    2  A    between atoms: C2_3  and  C3_4
REMARK    3  A    between atoms: C3_4  and  N1_5
REMARK    4  A    between atoms: N1_5  and  C4_8
REMARK    5  A    between atoms: C4_8  and  C5_9
REMARK       I    between atoms: C5_9  and  N2_11
REMARK    6  A    between atoms: N2_11  and  C6_13
REMARK    7  A    between atoms: C6_13  and  C7_14
REMARK    8  A    between atoms: C7_14  and  O3_15
REMARK    9  A    between atoms: C7_14  and  C8_17
REMARK   10  A    between atoms: C7_14  and  C9_22
REMARK   11  A    between atoms: C8_17  and  N3_18
ROOT
HETATM    1  C5  UNL     1       4.078  21.474 -12.223  1.00  0.00     0.243 C
HETATM    2  O2  UNL     1       4.627  22.576 -12.052  1.00  0.00    -0.272 OA
HETATM    3  N2  UNL     1       3.951  20.472 -11.261  1.00  0.00    -0.356 N
ATOM      4  H2  UNL     1       3.466  19.624 -11.554  1.00  0.00     0.162 HD
ENDROOT
BRANCH   3   5
HETATM    5  C6  UNL     1       4.421  20.496  -9.921  1.00  0.00     0.172 C
BRANCH   5   6
HETATM    6  C7  UNL     1       3.732  19.624  -8.921  1.00  0.00     0.175 C
BRANCH   6   7
HETATM    7  O3  UNL     1       2.767  20.310  -8.239  1.00  0.00    -0.377 OA
ATOM      8  H3  UNL     1       3.106  21.117  -7.870  1.00  0.00     0.211 HD
ENDBRANCH   6   7
BRANCH   6   9
HETATM    9  C8  UNL     1       4.778  19.192  -7.898  1.00  0.00     0.278 C
BRANCH   9  10
HETATM   10  N3  UNL     1       4.666  19.851  -6.638  1.00  0.00    -0.076 N
ATOM     11  H33 UNL     1       5.351  20.603  -6.565  1.00  0.00     0.274 HD
ATOM     12  H32 UNL     1       3.805  20.396  -6.595  1.00  0.00     0.274 HD
ATOM     13  H31 UNL     1       4.734  19.226  -5.835  1.00  0.00     0.274 HD
ENDBRANCH   9  10
ENDBRANCH   6   9
BRANCH   6  14
HETATM   14  C9  UNL     1       3.191  18.450  -9.648  1.00  0.00     0.269 C
HETATM   15  N4  UNL     1       1.877  18.497 -10.148  1.00  0.00    -0.059 NA
HETATM   16  O4  UNL     1       3.909  17.447  -9.801  1.00  0.00    -0.273 OA
ENDBRANCH   6  14
ENDBRANCH   5   6
ENDBRANCH   3   5
BRANCH   1  17
HETATM   17  C4  UNL     1       3.512  21.233 -13.599  1.00  0.00     0.334 C
BRANCH  17  18
HETATM   18  N1  UNL     1       3.698  19.845 -13.945  1.00  0.00    -0.065 N
ATOM     19  H12 UNL     1       3.108  19.218 -13.397  1.00  0.00     0.277 HD
ATOM     20  H11 UNL     1       4.601  19.479 -13.642  1.00  0.00     0.277 HD
BRANCH  18  21
HETATM   21  C3  UNL     1       3.487  19.713 -15.375  1.00  0.00     0.259 C
BRANCH  21  22
HETATM   22  C2  UNL     1       2.191  20.436 -15.749  1.00  0.00     0.194 C
BRANCH  22  23
HETATM   23  O1  UNL     1       1.267  19.480 -16.104  1.00  0.00    -0.394 OA
HETATM   24  C1  UNL     1       1.654  18.732 -17.196  1.00  0.00     0.201 C
ENDBRANCH  22  23
ENDBRANCH  21  22
ENDBRANCH  18  21
ENDBRANCH  17  18
ENDBRANCH   1  17
TORSDOF 11
ENDMDL