MODEL 3
REMARK VINA RESULT: -6.997974397      1.712      6.113
REMARK  10 active torsions:
REMARK  status: ('A' for Active; 'I' for Inactive)
REMARK    1  A    between atoms: C1_2  and  O2_4
REMARK    2  A    between atoms: O2_4  and  C2_5
REMARK    3  A    between atoms: C2_5  and  C3_6
REMARK    4  A    between atoms: C3_6  and  C4_7
REMARK    5  A    between atoms: C4_7  and  N3_12
REMARK    6  A    between atoms: C5_8  and  C6_9
REMARK    7  A    between atoms: N3_12  and  C7_14
REMARK    8  A    between atoms: C7_14  and  C8_15
REMARK    9  A    between atoms: C8_15  and  C9_17
REMARK   10  A    between atoms: C9_17  and  N4_18
ROOT
HETATM    1  C4  UNL     1       4.236  19.702  -9.726  1.00  0.00     0.012 C
HETATM    2  C5  UNL     1       3.215  19.108 -10.278  1.00  0.00     0.095 C
ENDROOT
BRANCH   1   3
HETATM    3  C3  UNL     1       4.641  19.677  -8.308  1.00  0.00     0.083 C
BRANCH   3   4
HETATM    4  C2  UNL     1       3.906  20.726  -7.495  1.00  0.00     0.186 C
BRANCH   4   5
HETATM    5  O2  UNL     1       3.902  20.467  -6.118  1.00  0.00    -0.306 OA
BRANCH   5   6
HETATM    6  C1  UNL     1       3.825  21.390  -5.100  1.00  0.00     0.372 C
HETATM    7  N1  UNL     1       3.319  22.724  -5.325  1.00  0.00    -0.032 NA
HETATM    8  O1  UNL     1       4.205  21.043  -3.957  1.00  0.00    -0.242 OA
ENDBRANCH   5   6
ENDBRANCH   4   5
ENDBRANCH   3   4
ENDBRANCH   1   3
BRANCH   1   9
HETATM    9  N3  UNL     1       5.091  20.489 -10.609  1.00  0.00    -0.386 N
ATOM     10  H3  UNL     1       5.994  20.116 -10.903  1.00  0.00     0.159 HD
BRANCH   9  11
HETATM   11  C7  UNL     1       4.672  21.785 -11.068  1.00  0.00     0.199 C
BRANCH  11  12
HETATM   12  C8  UNL     1       4.362  21.766 -12.516  1.00  0.00     0.169 C
HETATM   13  O4  UNL     1       4.295  22.817 -13.117  1.00  0.00    -0.294 OA
BRANCH  12  14
HETATM   14  C9  UNL     1       4.128  20.506 -13.256  1.00  0.00     0.309 C
BRANCH  14  15
HETATM   15  N4  UNL     1       3.117  20.668 -14.253  1.00  0.00    -0.073 N
ATOM     16  H43 UNL     1       3.217  19.983 -15.002  1.00  0.00     0.274 HD
ATOM     17  H42 UNL     1       2.200  20.389 -13.905  1.00  0.00     0.274 HD
ATOM     18  H41 UNL     1       3.105  21.621 -14.617  1.00  0.00     0.274 HD
ENDBRANCH  14  15
ENDBRANCH  12  14
ENDBRANCH  11  12
ENDBRANCH   9  11
ENDBRANCH   1   9
BRANCH   2  19
HETATM   19  C6  UNL     1       2.213  18.276  -9.655  1.00  0.00     0.256 C
HETATM   20  N2  UNL     1       1.100  18.883  -8.959  1.00  0.00    -0.058 NA
HETATM   21  O3  UNL     1       2.204  17.033  -9.654  1.00  0.00    -0.272 OA
ENDBRANCH   2  19
TORSDOF 10
ENDMDL