MODEL 4
REMARK VINA RESULT: -6.680073628      1.456      1.590
REMARK  11 active torsions:
REMARK  status: ('A' for Active; 'I' for Inactive)
REMARK    1  A    between atoms: C1_2  and  C2_4
REMARK    2  A    between atoms: C3_5  and  N2_6
REMARK    3  A    between atoms: C3_5  and  C8_15
REMARK    4  A    between atoms: C4_8  and  C5_10
REMARK    5  A    between atoms: C5_10  and  C6_11
REMARK    6  A    between atoms: C6_11  and  C7_12
REMARK    7  A    between atoms: C7_12  and  O2_13
REMARK    8  A    between atoms: C8_15  and  O3_16
REMARK    9  A    between atoms: C8_15  and  C9_18
REMARK   10  A    between atoms: C9_18  and  O4_19
REMARK   11  A    between atoms: O4_19  and  N4_20
ROOT
HETATM    1  C2  UNL     1       4.699  20.921 -10.256  1.00  0.00     0.098 C
HETATM    2  C3  UNL     1       3.831  20.325  -9.516  1.00  0.00     0.046 C
ENDROOT
BRANCH   2   3
HETATM    3  N2  UNL     1       3.639  20.823  -8.171  1.00  0.00    -0.349 N
HETATM    4  C4  UNL     1       4.248  20.348  -7.164  1.00  0.00     0.093 C
HETATM    5  N3  UNL     1       5.168  19.278  -7.321  1.00  0.00    -0.088 NA
ATOM      6  H2  UNL     1       2.984  21.592  -8.026  1.00  0.00     0.166 HD
BRANCH   4   7
HETATM    7  C5  UNL     1       3.992  20.916  -5.825  1.00  0.00     0.075 C
BRANCH   7   8
HETATM    8  C6  UNL     1       3.380  22.295  -5.888  1.00  0.00     0.033 C
BRANCH   8   9
HETATM    9  C7  UNL     1       3.235  22.802  -4.461  1.00  0.00     0.164 C
BRANCH   9  10
HETATM   10  O2  UNL     1       2.742  24.111  -4.447  1.00  0.00    -0.401 OA
ATOM     11  H2  UNL     1       1.875  24.149  -4.836  1.00  0.00     0.209 HD
ENDBRANCH   9  10
ENDBRANCH   8   9
ENDBRANCH   7   8
ENDBRANCH   4   7
ENDBRANCH   2   3
BRANCH   2  12
HETATM   12  C8  UNL     1       3.013  19.189  -9.885  1.00  0.00     0.194 C
BRANCH  12  13
HETATM   13  O3  UNL     1       2.035  19.664 -10.818  1.00  0.00    -0.387 OA
ATOM     14  H3  UNL     1       1.323  19.036 -10.817  1.00  0.00     0.210 HD
ENDBRANCH  12  13
BRANCH  12  15
HETATM   15  C9  UNL     1       3.794  18.156 -10.703  1.00  0.00     0.238 C
BRANCH  15  16
HETATM   16  O4  UNL     1       3.079  17.789 -11.839  1.00  0.00    -0.284 OA
BRANCH  16  17
HETATM   17  N4  UNL     1       3.822  18.029 -12.935  1.00  0.00    -0.311 N
ATOM     18  H42 UNL     1       4.550  18.741 -12.994  1.00  0.00     0.184 HD
ATOM     19  H41 UNL     1       3.543  17.393 -13.682  1.00  0.00     0.184 HD
ENDBRANCH  16  17
ENDBRANCH  15  16
ENDBRANCH  12  15
ENDBRANCH   2  12
BRANCH   1  20
HETATM   20  C1  UNL     1       5.096  20.648 -11.615  1.00  0.00     0.256 C
HETATM   21  N1  UNL     1       4.308  21.070 -12.748  1.00  0.00    -0.058 NA
HETATM   22  O1  UNL     1       6.136  20.036 -11.905  1.00  0.00    -0.272 OA
ENDBRANCH   1  20
TORSDOF 11
ENDMDL