MODEL 2
REMARK VINA RESULT: -6.710711654      1.488      5.335
REMARK  12 active torsions:
REMARK  status: ('A' for Active; 'I' for Inactive)
REMARK    1  A    between atoms: N1_1  and  C1_5
REMARK    2  A    between atoms: C1_5  and  C2_6
REMARK       I    between atoms: C2_6  and  N2_8
REMARK    3  A    between atoms: N2_8  and  C3_10
REMARK    4  A    between atoms: C3_10  and  O2_11
REMARK    5  A    between atoms: C3_10  and  C4_13
REMARK    6  A    between atoms: C4_13  and  C5_14
REMARK    7  A    between atoms: C5_14  and  N3_15
REMARK    8  A    between atoms: C5_14  and  C6_19
REMARK       I    between atoms: C6_19  and  N4_21
REMARK    9  A    between atoms: N4_21  and  C7_23
REMARK   10  A    between atoms: C7_23  and  C8_24
REMARK   11  A    between atoms: C8_24  and  C9_25
REMARK   12  A    between atoms: C9_25  and  O4_26
ROOT
HETATM    1  C5  UNL     1       2.921  18.332  -9.971  1.00  0.00     0.282 C
ENDROOT
BRANCH   1   2
HETATM    2  C4  UNL     1       2.721  19.443  -8.897  1.00  0.00     0.126 C
BRANCH   2   3
HETATM    3  C3  UNL     1       3.982  19.629  -8.205  1.00  0.00     0.120 C
BRANCH   3   4
HETATM    4  N2  UNL     1       4.142  19.646  -6.810  1.00  0.00    -0.310 N
HETATM    5  C2  UNL     1       3.897  20.699  -5.948  1.00  0.00     0.248 C
HETATM    6  O1  UNL     1       4.083  20.470  -4.691  1.00  0.00    -0.271 OA
ATOM      7  H2  UNL     1       4.476  18.783  -6.383  1.00  0.00     0.170 HD
BRANCH   5   8
HETATM    8  C1  UNL     1       3.453  22.034  -6.338  1.00  0.00     0.332 C
BRANCH   8   9
HETATM    9  N1  UNL     1       3.162  22.818  -5.119  1.00  0.00    -0.071 N
ATOM     10  H13 UNL     1       3.318  22.282  -4.265  1.00  0.00     0.274 HD
ATOM     11  H12 UNL     1       3.852  23.550  -4.955  1.00  0.00     0.274 HD
ATOM     12  H11 UNL     1       2.213  23.186  -5.180  1.00  0.00     0.274 HD
ENDBRANCH   8   9
ENDBRANCH   5   8
ENDBRANCH   3   4
BRANCH   3  13
HETATM   13  O2  UNL     1       5.064  19.792  -8.930  1.00  0.00    -0.349 OA
ATOM     14  H2  UNL     1       5.593  20.560  -8.749  1.00  0.00     0.219 HD
ENDBRANCH   3  13
ENDBRANCH   2   3
ENDBRANCH   1   2
BRANCH   1  15
HETATM   15  N3  UNL     1       3.617  17.262  -9.372  1.00  0.00    -0.066 N
ATOM     16  H33 UNL     1       4.251  17.569  -8.635  1.00  0.00     0.275 HD
ATOM     17  H32 UNL     1       3.014  16.673  -8.798  1.00  0.00     0.275 HD
ATOM     18  H31 UNL     1       4.092  16.741 -10.109  1.00  0.00     0.275 HD
ENDBRANCH   1  15
BRANCH   1  19
HETATM   19  C6  UNL     1       3.514  18.984 -11.142  1.00  0.00     0.248 C
HETATM   20  O3  UNL     1       4.435  18.314 -11.731  1.00  0.00    -0.271 OA
HETATM   21  N4  UNL     1       3.152  20.242 -11.636  1.00  0.00    -0.359 N
ATOM     22  H4  UNL     1       2.420  20.751 -11.141  1.00  0.00     0.162 HD
BRANCH  21  23
HETATM   23  C7  UNL     1       3.746  20.876 -12.805  1.00  0.00     0.125 C
BRANCH  23  24
HETATM   24  C8  UNL     1       3.965  22.328 -12.552  1.00  0.00     0.046 C
BRANCH  24  25
HETATM   25  C9  UNL     1       4.798  22.419 -11.264  1.00  0.00     0.165 C
BRANCH  25  26
HETATM   26  O4  UNL     1       5.831  21.486 -11.348  1.00  0.00    -0.401 OA
ATOM     27  H4  UNL     1       5.656  20.794 -10.722  1.00  0.00     0.209 HD
ENDBRANCH  25  26
ENDBRANCH  24  25
ENDBRANCH  23  24
ENDBRANCH  21  23
ENDBRANCH   1  19
TORSDOF 12
ENDMDL