MODEL 1
REMARK VINA RESULT: -7.173492391      0.000      0.000
REMARK  10 active torsions:
REMARK  status: ('A' for Active; 'I' for Inactive)
REMARK    1  A    between atoms: C1_2  and  C2_4
REMARK    2  A    between atoms: C2_4  and  O2_5
REMARK    3  A    between atoms: O2_5  and  C3_6
REMARK    4  A    between atoms: C3_6  and  C4_7
REMARK    5  A    between atoms: C4_7  and  O3_8
REMARK    6  A    between atoms: O3_8  and  C5_9
REMARK    7  A    between atoms: C5_9  and  C6_10
REMARK    8  A    between atoms: C5_9  and  C7_13
REMARK    9  A    between atoms: C8_15  and  C9_16
REMARK   10  A    between atoms: C9_16  and  N4_17
ROOT
HETATM    1  C5  UNL     1       3.776  19.034  -9.980  1.00  0.00     0.257 C
ENDROOT
BRANCH   1   2
HETATM    2  O3  UNL     1       3.666  20.086 -10.857  1.00  0.00    -0.369 OA
BRANCH   2   3
HETATM    3  C4  UNL     1       4.544  20.103 -11.904  1.00  0.00     0.195 C
BRANCH   3   4
HETATM    4  C3  UNL     1       3.967  20.608 -13.210  1.00  0.00     0.194 C
BRANCH   4   5
HETATM    5  O2  UNL     1       3.559  19.603 -14.042  1.00  0.00    -0.380 OA
BRANCH   5   6
HETATM    6  C2  UNL     1       3.458  19.877 -15.371  1.00  0.00     0.267 C
BRANCH   6   7
HETATM    7  C1  UNL     1       2.607  18.980 -16.152  1.00  0.00     0.254 C
HETATM    8  N1  UNL     1       1.214  19.291 -16.362  1.00  0.00    -0.060 NA
HETATM    9  O1  UNL     1       3.004  17.928 -16.673  1.00  0.00    -0.275 OA
ENDBRANCH   6   7
ENDBRANCH   5   6
ENDBRANCH   4   5
ENDBRANCH   3   4
ENDBRANCH   2   3
ENDBRANCH   1   2
BRANCH   1  10
HETATM   10  C6  UNL     1       2.473  18.357  -9.805  1.00  0.00     0.265 C
HETATM   11  N2  UNL     1       2.408  17.068  -9.200  1.00  0.00    -0.059 NA
HETATM   12  O4  UNL     1       1.400  18.835 -10.153  1.00  0.00    -0.274 OA
ENDBRANCH   1  10
BRANCH   1  13
HETATM   13  C7  UNL     1       4.166  19.642  -8.654  1.00  0.00     0.059 C
HETATM   14  N3  UNL     1       5.409  19.249  -8.096  1.00  0.00    -0.104 NA
HETATM   15  C8  UNL     1       3.429  20.516  -8.009  1.00  0.00     0.025 C
BRANCH  15  16
HETATM   16  C9  UNL     1       3.907  21.052  -6.708  1.00  0.00     0.258 C
BRANCH  16  17
HETATM   17  N4  UNL     1       3.949  20.005  -5.704  1.00  0.00    -0.076 N
ATOM     18  H43 UNL     1       3.830  20.381  -4.763  1.00  0.00     0.274 HD
ATOM     19  H42 UNL     1       3.118  19.414  -5.740  1.00  0.00     0.274 HD
ATOM     20  H41 UNL     1       4.805  19.458  -5.786  1.00  0.00     0.274 HD
ENDBRANCH  16  17
ENDBRANCH  15  16
ENDBRANCH   1  13
TORSDOF 10
ENDMDL