MODEL 2
REMARK VINA RESULT: -5.828107383      3.149      6.564
REMARK  10 active torsions:
REMARK  status: ('A' for Active; 'I' for Inactive)
REMARK    1  A    between atoms: C2_2  and  C3_3
REMARK    2  A    between atoms: C3_3  and  O1_4
REMARK    3  A    between atoms: C3_3  and  C4_8
REMARK    4  A    between atoms: O1_4  and  N1_5
REMARK    5  A    between atoms: C4_8  and  C5_9
REMARK    6  A    between atoms: C4_8  and  N2_12
REMARK    7  A    between atoms: C4_8  and  C9_20
REMARK    8  A    between atoms: C5_9  and  O2_10
REMARK    9  A    between atoms: N2_12  and  C6_14
REMARK   10  A    between atoms: C6_14  and  C7_15
REMARK       I    between atoms: C7_15  and  N3_17
ROOT
HETATM    1  C4  UNL     1       4.437  20.621 -11.923  1.00  0.00     0.159 C
ENDROOT
BRANCH   1   2
HETATM    2  C3  UNL     1       3.722  20.080 -10.679  1.00  0.00     0.190 C
BRANCH   2   3
HETATM    3  C2  UNL     1       3.449  18.639 -10.600  1.00  0.00     0.033 C
HETATM    4  C1  UNL     1       2.176  18.188  -9.968  1.00  0.00     0.007 C
ENDBRANCH   2   3
BRANCH   2   5
HETATM    5  O1  UNL     1       4.551  20.423  -9.551  1.00  0.00    -0.279 OA
BRANCH   5   6
HETATM    6  N1  UNL     1       3.849  20.875  -8.519  1.00  0.00    -0.311 N
ATOM      7  H12 UNL     1       2.878  21.175  -8.600  1.00  0.00     0.184 HD
ATOM      8  H11 UNL     1       4.388  20.888  -7.653  1.00  0.00     0.184 HD
ENDBRANCH   5   6
ENDBRANCH   2   5
ENDBRANCH   1   2
BRANCH   1   9
HETATM    9  C5  UNL     1       5.728  19.987 -12.237  1.00  0.00     0.207 C
BRANCH   9  10
HETATM   10  O2  UNL     1       6.766  20.371 -11.345  1.00  0.00    -0.398 OA
ATOM     11  H2  UNL     1       7.336  21.040 -11.706  1.00  0.00     0.209 HD
ENDBRANCH   9  10
ENDBRANCH   1   9
BRANCH   1  12
HETATM   12  N2  UNL     1       3.444  20.298 -12.971  1.00  0.00    -0.373 N
ATOM     13  H2  UNL     1       2.507  19.971 -12.732  1.00  0.00     0.160 HD
BRANCH  12  14
HETATM   14  C6  UNL     1       3.841  20.458 -14.297  1.00  0.00     0.159 C
BRANCH  14  15
HETATM   15  C7  UNL     1       3.078  19.454 -15.137  1.00  0.00     0.256 C
HETATM   16  O3  UNL     1       3.066  18.259 -14.811  1.00  0.00    -0.267 OA
HETATM   17  N3  UNL     1       2.383  19.920 -16.298  1.00  0.00    -0.361 N
HETATM   18  C8  UNL     1       1.660  18.966 -17.091  1.00  0.00     0.149 C
ATOM     19  H3  UNL     1       2.402  20.906 -16.556  1.00  0.00     0.162 HD
ENDBRANCH  14  15
ENDBRANCH  12  14
ENDBRANCH   1  12
BRANCH   1  20
HETATM   20  C9  UNL     1       4.457  22.089 -11.826  1.00  0.00     0.264 C
HETATM   21  N4  UNL     1       5.586  22.875 -11.464  1.00  0.00    -0.060 NA
HETATM   22  O4  UNL     1       3.426  22.749 -12.069  1.00  0.00    -0.274 OA
ENDBRANCH   1  20
TORSDOF 10
ENDMDL