MODEL 4
REMARK VINA RESULT: -6.310095183      0.976      1.208
REMARK  9 active torsions:
REMARK  status: ('A' for Active; 'I' for Inactive)
REMARK    1  A    between atoms: C1_4  and  O1_6
REMARK    2  A    between atoms: O1_6  and  C2_7
REMARK    3  A    between atoms: C2_7  and  C3_8
REMARK    4  A    between atoms: C4_9  and  O2_10
REMARK    5  A    between atoms: C6_13  and  C7_14
REMARK    6  A    between atoms: C7_14  and  C8_15
REMARK    7  A    between atoms: C9_16  and  C10_17
REMARK    8  A    between atoms: C10_17  and  C11_18
REMARK    9  A    between atoms: N3_19  and  N4_21
ROOT
HETATM    1  C3  UNL     1      19.527  -6.576   0.748  1.00  0.00     0.043 C
HETATM    2  C4  UNL     1      20.777  -7.248   0.314  1.00  0.00     0.125 C
HETATM    3  C5  UNL     1      21.121  -5.907  -0.414  1.00  0.00     0.037 C
HETATM    4  C6  UNL     1      19.613  -5.709  -0.489  1.00  0.00    -0.000 C
ENDROOT
BRANCH   4   5
HETATM    5  C7  UNL     1      19.074  -6.304  -1.763  1.00  0.00     0.032 C
BRANCH   5   6
HETATM    6  C8  UNL     1      19.209  -5.251  -2.798  1.00  0.00    -0.030 C
HETATM    7  C9  UNL     1      19.089  -5.421  -4.077  1.00  0.00    -0.026 C
BRANCH   7   8
HETATM    8  C10 UNL     1      18.798  -6.698  -4.729  1.00  0.00     0.073 C
BRANCH   8   9
HETATM    9  C11 UNL     1      19.940  -7.085  -5.614  1.00  0.00     0.083 C
HETATM   10  N3  UNL     1      20.515  -8.217  -5.428  1.00  0.00    -0.322 N
ATOM     11  H3  UNL     1      20.188  -8.834  -4.684  1.00  0.00     0.185 HD
BRANCH  10  12
HETATM   12  N4  UNL     1      21.583  -8.612  -6.233  1.00  0.00    -0.346 N
ATOM     13  H42 UNL     1      21.404  -9.255  -7.005  1.00  0.00     0.176 HD
ATOM     14  H41 UNL     1      22.525  -8.264  -6.054  1.00  0.00     0.176 HD
ENDBRANCH  10  12
ENDBRANCH   8   9
ENDBRANCH   7   8
ENDBRANCH   5   6
ENDBRANCH   4   5
BRANCH   1  15
HETATM   15  C2  UNL     1      18.290  -7.332   0.963  1.00  0.00     0.186 C
BRANCH  15  16
HETATM   16  O1  UNL     1      18.351  -8.213   2.022  1.00  0.00    -0.324 OA
BRANCH  16  17
HETATM   17  C1  UNL     1      17.717  -8.123   3.220  1.00  0.00     0.225 C
HETATM   18  N1  UNL     1      16.459  -7.849   3.193  1.00  0.00    -0.368 N
ATOM     19  H12 UNL     1      15.982  -7.782   4.092  1.00  0.00     0.159 HD
ATOM     20  H11 UNL     1      15.978  -7.713   2.304  1.00  0.00     0.159 HD
HETATM   21  N2  UNL     1      18.400  -8.316   4.482  1.00  0.00    -0.057 NA
ENDBRANCH  16  17
ENDBRANCH  15  16
ENDBRANCH   1  15
BRANCH   2  22
HETATM   22  O2  UNL     1      21.785  -7.410   1.283  1.00  0.00    -0.395 OA
ATOM     23  H2  UNL     1      22.677  -7.226   1.011  1.00  0.00     0.210 HD
ENDBRANCH   2  22
TORSDOF 9
ENDMDL