MODEL 5
REMARK VINA RESULT: -4.849862169      1.562      7.591
REMARK  7 active torsions:
REMARK  status: ('A' for Active; 'I' for Inactive)
REMARK       I    between atoms: C1_4  and  N3_6
REMARK    1  A    between atoms: N4_9  and  C4_10
REMARK    2  A    between atoms: C4_10  and  C5_11
REMARK    3  A    between atoms: C5_11  and  N5_12
REMARK    4  A    between atoms: N5_12  and  C6_15
REMARK    5  A    between atoms: C6_15  and  C7_16
REMARK    6  A    between atoms: C7_16  and  C8_17
REMARK    7  A    between atoms: C8_17  and  N6_18
ROOT
HETATM    1  C4  UNL     1      18.507  -7.457   1.753  1.00  0.00     0.149 C
ENDROOT
BRANCH   1   2
HETATM    2  N4  UNL     1      18.627  -7.199   0.366  1.00  0.00    -0.389 N
HETATM    3  C3  UNL     1      17.517  -7.229  -0.438  1.00  0.00     0.078 C
HETATM    4  C2  UNL     1      17.399  -6.192  -1.522  1.00  0.00     0.169 C
HETATM    5  N3  UNL     1      18.681  -5.899  -2.086  1.00  0.00    -0.350 N
HETATM    6  C1  UNL     1      18.798  -5.710  -3.520  1.00  0.00     0.184 C
HETATM    7  C10 UNL     1      19.826  -5.778  -1.236  1.00  0.00     0.145 C
HETATM    8  N1  UNL     1      19.471  -4.678  -3.935  1.00  0.00    -0.374 N
HETATM    9  N2  UNL     1      18.203  -6.618  -4.433  1.00  0.00    -0.064 NA
ATOM     10  H12 UNL     1      19.553  -4.545  -4.943  1.00  0.00     0.158 HD
ATOM     11  H11 UNL     1      19.899  -4.026  -3.279  1.00  0.00     0.158 HD
HETATM   12  C9  UNL     1      19.652  -6.236   0.162  1.00  0.00     0.141 C
ENDBRANCH   1   2
BRANCH   1  13
HETATM   13  C5  UNL     1      17.138  -7.617   2.284  1.00  0.00     0.252 C
BRANCH  13  14
HETATM   14  N5  UNL     1      16.933  -8.313   3.491  1.00  0.00    -0.074 N
ATOM     15  H52 UNL     1      16.081  -7.986   3.948  1.00  0.00     0.277 HD
ATOM     16  H51 UNL     1      16.671  -9.280   3.301  1.00  0.00     0.277 HD
BRANCH  14  17
HETATM   17  C6  UNL     1      18.047  -8.264   4.411  1.00  0.00     0.234 C
BRANCH  17  18
HETATM   18  C7  UNL     1      17.517  -7.892   5.776  1.00  0.00     0.055 C
BRANCH  18  19
HETATM   19  C8  UNL     1      16.428  -6.837   5.666  1.00  0.00     0.231 C
BRANCH  19  20
HETATM   20  N6  UNL     1      16.854  -5.664   6.390  1.00  0.00    -0.079 N
ATOM     21  H63 UNL     1      16.569  -5.684   7.369  1.00  0.00     0.274 HD
ATOM     22  H62 UNL     1      17.862  -5.640   6.539  1.00  0.00     0.274 HD
ATOM     23  H61 UNL     1      16.511  -4.839   5.899  1.00  0.00     0.274 HD
ENDBRANCH  19  20
ENDBRANCH  18  19
ENDBRANCH  17  18
ENDBRANCH  14  17
ENDBRANCH  13  14
ENDBRANCH   1  13
TORSDOF 7
ENDMDL