MODEL 4
REMARK VINA RESULT: -6.388724971      1.542      6.674
REMARK  7 active torsions:
REMARK  status: ('A' for Active; 'I' for Inactive)
REMARK    1  A    between atoms: C2_3  and  C3_4
REMARK    2  A    between atoms: C3_4  and  C4_5
REMARK    3  A    between atoms: C4_5  and  N2_6
REMARK    4  A    between atoms: N5_11  and  C6_13
REMARK    5  A    between atoms: C6_13  and  C7_14
REMARK    6  A    between atoms: C7_14  and  C8_15
REMARK    7  A    between atoms: C8_15  and  N6_16
ROOT
HETATM    1  N1  UNL     1      19.488  -6.668  -7.111  1.00  0.00    -0.197 NA
HETATM    2  C1  UNL     1      19.641  -6.825  -5.958  1.00  0.00     0.059 C
HETATM    3  C2  UNL     1      19.825  -7.047  -4.524  1.00  0.00     0.131 C
ENDROOT
BRANCH   3   4
HETATM    4  C3  UNL     1      19.597  -5.773  -3.732  1.00  0.00     0.090 C
BRANCH   4   5
HETATM    5  C4  UNL     1      19.379  -6.018  -2.292  1.00  0.00     0.079 C
HETATM    6  N5  UNL     1      20.174  -5.547  -1.433  1.00  0.00    -0.380 N
ATOM      7  H5  UNL     1      20.954  -5.000  -1.795  1.00  0.00     0.160 HD
BRANCH   5   8
HETATM    8  N2  UNL     1      18.265  -6.791  -1.893  1.00  0.00    -0.323 N
HETATM    9  C5  UNL     1      17.065  -6.349  -1.863  1.00  0.00     0.202 C
HETATM   10  N3  UNL     1      16.773  -5.026  -2.238  1.00  0.00    -0.066 NA
HETATM   11  N4  UNL     1      16.028  -7.211  -1.446  1.00  0.00    -0.066 NA
ATOM     12  H2  UNL     1      18.428  -7.758  -1.612  1.00  0.00     0.169 HD
ENDBRANCH   5   8
BRANCH   6  13
HETATM   13  C6  UNL     1      20.109  -5.689  -0.014  1.00  0.00     0.122 C
BRANCH  13  14
HETATM   14  C7  UNL     1      20.859  -6.978   0.342  1.00  0.00     0.039 C
BRANCH  14  15
HETATM   15  C8  UNL     1      20.096  -7.731   1.425  1.00  0.00     0.123 C
BRANCH  15  16
HETATM   16  N6  UNL     1      18.679  -7.508   1.308  1.00  0.00    -0.367 N
HETATM   17  C9  UNL     1      17.865  -7.755   2.285  1.00  0.00     0.196 C
HETATM   18  N7  UNL     1      16.474  -7.510   2.095  1.00  0.00    -0.067 NA
HETATM   19  N8  UNL     1      18.361  -8.261   3.514  1.00  0.00    -0.067 NA
ATOM     20  H6  UNL     1      18.306  -7.145   0.431  1.00  0.00     0.161 HD
ENDBRANCH  15  16
ENDBRANCH  14  15
ENDBRANCH  13  14
ENDBRANCH   6  13
ENDBRANCH   4   5
ENDBRANCH   3   4
TORSDOF 7
ENDMDL