MODEL 5
REMARK VINA RESULT: -6.184109328      2.151      4.789
REMARK  7 active torsions:
REMARK  status: ('A' for Active; 'I' for Inactive)
REMARK    1  A    between atoms: N1_1  and  S1_4
REMARK    2  A    between atoms: S1_4  and  C1_6
REMARK    3  A    between atoms: S1_4  and  N5_13
REMARK    4  A    between atoms: C1_6  and  C2_7
REMARK    5  A    between atoms: C2_7  and  N2_8
REMARK    6  A    between atoms: N5_13  and  C4_15
REMARK    7  A    between atoms: C4_15  and  C5_16
ROOT
HETATM    1  S1  UNL     1      16.985  -6.581  -2.009  1.00  0.00     0.101 S
HETATM    2  O1  UNL     1      15.523  -6.366  -2.254  1.00  0.00    -0.229 OA
ENDROOT
BRANCH   1   3
HETATM    3  N1  UNL     1      17.470  -7.893  -2.687  1.00  0.00    -0.345 N
ATOM      4  H12 UNL     1      16.887  -8.723  -2.799  1.00  0.00     0.167 HD
ATOM      5  H11 UNL     1      18.437  -7.803  -2.997  1.00  0.00     0.167 HD
ENDBRANCH   1   3
BRANCH   1   6
HETATM    6  C1  UNL     1      17.885  -5.214  -2.700  1.00  0.00     0.158 C
BRANCH   6   7
HETATM    7  C2  UNL     1      19.158  -5.673  -3.337  1.00  0.00     0.137 C
BRANCH   7   8
HETATM    8  N2  UNL     1      19.145  -5.588  -4.767  1.00  0.00    -0.366 N
HETATM    9  C3  UNL     1      19.582  -6.565  -5.472  1.00  0.00     0.196 C
HETATM   10  N3  UNL     1      20.075  -7.728  -4.836  1.00  0.00    -0.067 NA
HETATM   11  N4  UNL     1      19.592  -6.533  -6.890  1.00  0.00    -0.067 NA
ATOM     12  H2  UNL     1      18.788  -4.749  -5.225  1.00  0.00     0.161 HD
ENDBRANCH   7   8
ENDBRANCH   6   7
ENDBRANCH   1   6
BRANCH   1  13
HETATM   13  N5  UNL     1      17.223  -6.694  -0.313  1.00  0.00    -0.336 N
ATOM     14  H5  UNL     1      16.617  -6.298   0.406  1.00  0.00     0.170 HD
BRANCH  13  15
HETATM   15  C4  UNL     1      18.438  -7.452  -0.082  1.00  0.00     0.135 C
BRANCH  15  16
HETATM   16  C5  UNL     1      19.570  -6.601   0.406  1.00  0.00     0.004 A
HETATM   17  C6  UNL     1      20.874  -6.737  -0.345  1.00  0.00     0.007 A
HETATM   18  C7  UNL     1      20.760  -7.201   1.060  1.00  0.00     0.007 A
ENDBRANCH  15  16
ENDBRANCH  13  15
ENDBRANCH   1  13
TORSDOF 7
ENDMDL