MODEL 1
REMARK VINA RESULT: -6.339851306      0.000      0.000
REMARK  8 active torsions:
REMARK  status: ('A' for Active; 'I' for Inactive)
REMARK    1  A    between atoms: N1_3  and  S1_5
REMARK    2  A    between atoms: S1_5  and  N2_6
REMARK    3  A    between atoms: S1_5  and  C3_10
REMARK    4  A    between atoms: C3_10  and  C4_11
REMARK    5  A    between atoms: C4_11  and  C5_12
REMARK    6  A    between atoms: C5_12  and  C6_13
REMARK    7  A    between atoms: C6_13  and  C7_14
REMARK    8  A    between atoms: C7_14  and  N3_15
ROOT
HETATM    1  C1  UNL     1      20.229  -7.433  -5.182  1.00  0.00     0.037 C
HETATM    2  C2  UNL     1      19.503  -6.635  -4.637  1.00  0.00     0.008 C
HETATM    3  N1  UNL     1      18.669  -5.694  -4.019  1.00  0.00    -0.260 N
ATOM      4  H1  UNL     1      18.410  -4.824  -4.485  1.00  0.00     0.187 HD
ENDROOT
BRANCH   3   5
HETATM    5  S1  UNL     1      18.152  -6.038  -2.580  1.00  0.00     0.111 S
HETATM    6  O1  UNL     1      17.092  -5.038  -2.238  1.00  0.00    -0.228 OA
BRANCH   5   7
HETATM    7  N2  UNL     1      17.490  -7.642  -2.665  1.00  0.00    -0.344 N
ATOM      8  H22 UNL     1      17.507  -8.338  -1.920  1.00  0.00     0.167 HD
ATOM      9  H21 UNL     1      17.089  -7.742  -3.598  1.00  0.00     0.167 HD
ENDBRANCH   5   7
BRANCH   5  10
HETATM   10  C3  UNL     1      19.465  -6.049  -1.395  1.00  0.00     0.140 C
BRANCH  10  11
HETATM   11  C4  UNL     1      18.958  -5.864   0.012  1.00  0.00     0.015 C
BRANCH  11  12
HETATM   12  C5  UNL     1      18.908  -7.227   0.661  1.00  0.00     0.002 C
BRANCH  12  13
HETATM   13  C6  UNL     1      17.622  -7.391   1.479  1.00  0.00     0.020 C
BRANCH  13  14
HETATM   14  C7  UNL     1      17.942  -8.275   2.677  1.00  0.00     0.122 C
BRANCH  14  15
HETATM   15  N3  UNL     1      17.057  -7.982   3.775  1.00  0.00    -0.367 N
HETATM   16  C8  UNL     1      17.405  -8.108   5.003  1.00  0.00     0.196 C
HETATM   17  N4  UNL     1      18.698  -8.548   5.388  1.00  0.00    -0.067 NA
HETATM   18  N5  UNL     1      16.471  -7.799   6.017  1.00  0.00    -0.067 NA
ATOM     19  H3  UNL     1      16.111  -7.660   3.566  1.00  0.00     0.161 HD
ENDBRANCH  14  15
ENDBRANCH  13  14
ENDBRANCH  12  13
ENDBRANCH  11  12
ENDBRANCH  10  11
ENDBRANCH   5  10
ENDBRANCH   3   5
TORSDOF 8
ENDMDL