MODEL 4
REMARK VINA RESULT: -5.001297260      1.879      4.941
REMARK  8 active torsions:
REMARK  status: ('A' for Active; 'I' for Inactive)
REMARK    1  A    between atoms: N1_1  and  C1_5
REMARK    2  A    between atoms: C1_5  and  C2_6
REMARK    3  A    between atoms: C2_6  and  N2_7
REMARK    4  A    between atoms: N2_7  and  C3_9
REMARK    5  A    between atoms: C3_9  and  N3_11
REMARK    6  A    between atoms: N3_11  and  C4_13
REMARK    7  A    between atoms: C4_13  and  C5_14
REMARK    8  A    between atoms: C5_14  and  N4_15
ROOT
HETATM    1  N3  UNL     1      17.491  -5.936  -0.963  1.00  0.00    -0.366 N
ATOM      2  H3  UNL     1      16.952  -5.073  -0.895  1.00  0.00     0.161 HD
ENDROOT
BRANCH   1   3
HETATM    3  C3  UNL     1      18.418  -6.225   0.038  1.00  0.00     0.167 C
HETATM    4  S1  UNL     1      18.024  -7.466   1.071  1.00  0.00    -0.041 SA
BRANCH   3   5
HETATM    5  N2  UNL     1      19.653  -5.575   0.265  1.00  0.00    -0.366 N
ATOM      6  H2  UNL     1      19.786  -4.970   1.075  1.00  0.00     0.161 HD
BRANCH   5   7
HETATM    7  C2  UNL     1      20.733  -5.793  -0.694  1.00  0.00     0.149 C
BRANCH   7   8
HETATM    8  C1  UNL     1      21.480  -7.061  -0.445  1.00  0.00     0.249 C
BRANCH   8   9
HETATM    9  N1  UNL     1      21.786  -7.088   0.995  1.00  0.00    -0.078 N
ATOM     10  H13 UNL     1      22.780  -6.982   1.199  1.00  0.00     0.274 HD
ATOM     11  H12 UNL     1      21.466  -6.256   1.491  1.00  0.00     0.274 HD
ATOM     12  H11 UNL     1      21.388  -7.954   1.357  1.00  0.00     0.274 HD
ENDBRANCH   8   9
ENDBRANCH   7   8
ENDBRANCH   5   7
ENDBRANCH   3   5
ENDBRANCH   1   3
BRANCH   1  13
HETATM   13  C4  UNL     1      17.263  -6.806  -2.088  1.00  0.00     0.141 C
BRANCH  13  14
HETATM   14  C5  UNL     1      17.403  -6.028  -3.351  1.00  0.00     0.136 C
BRANCH  14  15
HETATM   15  N4  UNL     1      18.379  -6.553  -4.272  1.00  0.00    -0.408 N
HETATM   16  C6  UNL     1      19.267  -7.529  -3.741  1.00  0.00     0.144 C
HETATM   17  C7  UNL     1      20.515  -7.508  -4.638  1.00  0.00     0.251 C
HETATM   18  N5  UNL     1      20.062  -7.540  -6.036  1.00  0.00    -0.072 N
HETATM   19  C8  UNL     1      19.497  -6.243  -6.357  1.00  0.00     0.251 C
ATOM     20  H52 UNL     1      20.800  -7.818  -6.683  1.00  0.00     0.277 HD
ATOM     21  H51 UNL     1      19.417  -8.308  -6.225  1.00  0.00     0.277 HD
HETATM   22  C9  UNL     1      18.979  -5.557  -5.103  1.00  0.00     0.144 C
ENDBRANCH  14  15
ENDBRANCH  13  14
ENDBRANCH   1  13
TORSDOF 8
ENDMDL