MODEL 2
REMARK VINA RESULT: -5.625039570      2.323      7.292
REMARK  6 active torsions:
REMARK  status: ('A' for Active; 'I' for Inactive)
REMARK       I    between atoms: C2_5  and  N4_7
REMARK    1  A    between atoms: N4_7  and  C3_9
REMARK    2  A    between atoms: C3_9  and  C4_10
REMARK    3  A    between atoms: C4_10  and  S1_11
REMARK    4  A    between atoms: S1_11  and  C5_12
REMARK    5  A    between atoms: C5_12  and  C6_13
REMARK    6  A    between atoms: C6_13  and  N5_14
ROOT
HETATM    1  N1  UNL     1      19.486  -6.691  -6.334  1.00  0.00    -0.172 NA
HETATM    2  C1  UNL     1      19.641  -6.881  -5.193  1.00  0.00     0.184 C
HETATM    3  N2  UNL     1      19.842  -7.095  -3.816  1.00  0.00    -0.268 N
ATOM      4  H2  UNL     1      20.187  -7.995  -3.481  1.00  0.00     0.180 HD
HETATM    5  C2  UNL     1      19.585  -6.144  -2.979  1.00  0.00     0.197 C
HETATM    6  N3  UNL     1      19.099  -4.872  -3.415  1.00  0.00    -0.063 NA
HETATM    7  N4  UNL     1      19.791  -6.367  -1.581  1.00  0.00    -0.363 N
ATOM      8  H4  UNL     1      20.660  -6.764  -1.221  1.00  0.00     0.162 HD
ENDROOT
BRANCH   7   9
HETATM    9  C3  UNL     1      18.708  -6.001  -0.711  1.00  0.00     0.132 C
BRANCH   9  10
HETATM   10  C4  UNL     1      17.629  -7.030  -0.598  1.00  0.00     0.093 C
BRANCH  10  11
HETATM   11  S1  UNL     1      16.950  -7.137   1.057  1.00  0.00    -0.166 SA
BRANCH  11  12
HETATM   12  C5  UNL     1      18.211  -7.622   2.236  1.00  0.00     0.093 C
BRANCH  12  13
HETATM   13  C6  UNL     1      17.664  -8.566   3.286  1.00  0.00     0.132 C
BRANCH  13  14
HETATM   14  N5  UNL     1      16.870  -7.805   4.217  1.00  0.00    -0.366 N
HETATM   15  C7  UNL     1      17.227  -7.746   5.443  1.00  0.00     0.196 C
HETATM   16  N6  UNL     1      18.393  -8.434   5.850  1.00  0.00    -0.067 NA
HETATM   17  N7  UNL     1      16.439  -6.994   6.357  1.00  0.00    -0.067 NA
ATOM     18  H5  UNL     1      16.032  -7.318   3.900  1.00  0.00     0.161 HD
ENDBRANCH  13  14
ENDBRANCH  12  13
ENDBRANCH  11  12
ENDBRANCH  10  11
ENDBRANCH   9  10
ENDBRANCH   7   9
TORSDOF 6
ENDMDL