MODEL 2
REMARK VINA RESULT: -4.942252129      1.445      4.958
REMARK  6 active torsions:
REMARK  status: ('A' for Active; 'I' for Inactive)
REMARK    1  A    between atoms: C3_3  and  N1_4
REMARK    2  A    between atoms: N1_4  and  C4_7
REMARK    3  A    between atoms: C5_8  and  N2_9
REMARK    4  A    between atoms: C9_16  and  C10_17
REMARK    5  A    between atoms: C10_17  and  N5_18
REMARK    6  A    between atoms: C10_17  and  C11_22
ROOT
HETATM    1  C1  UNL     1      21.294  -7.749   0.445  1.00  0.00     0.013 C
HETATM    2  C2  UNL     1      20.911  -6.673   0.073  1.00  0.00    -0.090 C
HETATM    3  C3  UNL     1      20.458  -5.334  -0.371  1.00  0.00     0.325 C
ENDROOT
BRANCH   3   4
HETATM    4  N1  UNL     1      19.038  -5.443  -0.602  1.00  0.00    -0.059 N
ATOM      5  H12 UNL     1      18.530  -5.464   0.281  1.00  0.00     0.278 HD
ATOM      6  H11 UNL     1      18.669  -4.575  -0.991  1.00  0.00     0.278 HD
BRANCH   4   7
HETATM    7  C4  UNL     1      18.676  -6.551  -1.416  1.00  0.00     0.215 C
HETATM    8  C5  UNL     1      17.543  -7.382  -0.857  1.00  0.00     0.115 C
HETATM    9  C7  UNL     1      16.723  -7.843  -2.025  1.00  0.00     0.028 C
HETATM   10  C8  UNL     1      17.576  -7.513  -3.215  1.00  0.00     0.011 C
HETATM   11  C9  UNL     1      18.192  -6.186  -2.804  1.00  0.00     0.052 C
BRANCH   8  12
HETATM   12  N2  UNL     1      16.677  -6.607   0.005  1.00  0.00    -0.360 N
HETATM   13  C6  UNL     1      16.678  -6.885   1.258  1.00  0.00     0.197 C
HETATM   14  N3  UNL     1      15.850  -6.168   2.187  1.00  0.00    -0.067 NA
HETATM   15  N4  UNL     1      17.498  -7.918   1.783  1.00  0.00    -0.067 NA
ATOM     16  H2  UNL     1      16.086  -5.866  -0.370  1.00  0.00     0.162 HD
ENDBRANCH   8  12
BRANCH  11  17
HETATM   17  C10 UNL     1      19.342  -5.810  -3.717  1.00  0.00     0.211 C
BRANCH  17  18
HETATM   18  N5  UNL     1      20.408  -6.748  -3.501  1.00  0.00    -0.071 N
ATOM     19  H53 UNL     1      20.070  -7.682  -3.271  1.00  0.00     0.275 HD
ATOM     20  H52 UNL     1      20.901  -6.988  -4.360  1.00  0.00     0.275 HD
ATOM     21  H51 UNL     1      21.027  -6.365  -2.786  1.00  0.00     0.275 HD
ENDBRANCH  17  18
BRANCH  17  22
HETATM   22  C11 UNL     1      18.842  -5.847  -5.103  1.00  0.00    -0.004 C
HETATM   23  C12 UNL     1      19.492  -6.509  -6.031  1.00  0.00     0.009 C
ENDBRANCH  17  22
ENDBRANCH  11  17
ENDBRANCH   4   7
ENDBRANCH   3   4
TORSDOF 6
ENDMDL