MODEL 1
REMARK VINA RESULT: -6.886764349      0.000      0.000
REMARK  7 active torsions:
REMARK  status: ('A' for Active; 'I' for Inactive)
REMARK    1  A    between atoms: N2_4  and  N3_6
REMARK    2  A    between atoms: C1_8  and  N4_9
REMARK    3  A    between atoms: N4_9  and  C2_11
REMARK    4  A    between atoms: C2_11  and  C3_12
REMARK    5  A    between atoms: C5_17  and  C6_18
REMARK    6  A    between atoms: C6_18  and  N6_19
REMARK    7  A    between atoms: N6_19  and  C7_21
ROOT
HETATM    1  C3  UNL     1       3.055  18.846 -12.306  1.00  0.00     0.120 C
HETATM    2  C4  UNL     1       2.475  18.638 -10.958  1.00  0.00     0.225 C
HETATM    3  O1  UNL     1       1.418  18.757 -10.313  1.00  0.00    -0.273 OA
HETATM    4  N5  UNL     1       3.756  18.171 -10.569  1.00  0.00    -0.354 N
ATOM      5  H5  UNL     1       4.120  17.481  -9.912  1.00  0.00     0.163 HD
HETATM    6  C5  UNL     1       4.320  19.115 -11.525  1.00  0.00     0.116 C
ENDROOT
BRANCH   1   7
HETATM    7  C2  UNL     1       2.489  19.949 -13.123  1.00  0.00     0.136 C
BRANCH   7   8
HETATM    8  N4  UNL     1       2.989  19.982 -14.482  1.00  0.00    -0.384 N
ATOM      9  H4  UNL     1       3.977  20.200 -14.617  1.00  0.00     0.160 HD
BRANCH   8  10
HETATM   10  C1  UNL     1       2.214  19.739 -15.629  1.00  0.00     0.194 C
HETATM   11  N3  UNL     1       1.415  18.747 -15.776  1.00  0.00    -0.283 N
ATOM     12  H3  UNL     1       1.319  18.074 -15.015  1.00  0.00     0.189 HD
BRANCH  11  13
HETATM   13  N2  UNL     1       0.672  18.558 -16.940  1.00  0.00    -0.248 N
HETATM   14  N1  UNL     1       1.112  17.854 -17.899  1.00  0.00    -0.331 N
ATOM     15  H12 UNL     1       2.032  17.423 -17.800  1.00  0.00     0.178 HD
ATOM     16  H11 UNL     1       0.568  17.715 -18.750  1.00  0.00     0.178 HD
ATOM     17  H2  UNL     1      -0.246  18.995 -17.022  1.00  0.00     0.207 HD
ENDBRANCH  11  13
ENDBRANCH   8  10
ENDBRANCH   7   8
ENDBRANCH   1   7
BRANCH   6  18
HETATM   18  C6  UNL     1       4.390  20.479 -10.889  1.00  0.00     0.148 C
BRANCH  18  19
HETATM   19  N6  UNL     1       5.308  21.316 -11.661  1.00  0.00    -0.366 N
ATOM     20  H6  UNL     1       6.278  21.026 -11.786  1.00  0.00     0.161 HD
BRANCH  19  21
HETATM   21  C7  UNL     1       4.857  22.520 -12.229  1.00  0.00     0.348 C
HETATM   22  O2  UNL     1       4.416  22.669 -13.382  1.00  0.00    -0.284 OA
ENDBRANCH  19  21
ENDBRANCH  18  19
ENDBRANCH   6  18
TORSDOF 7
ENDMDL