MODEL 3
REMARK VINA RESULT: -6.508194004      1.750      7.050
REMARK  7 active torsions:
REMARK  status: ('A' for Active; 'I' for Inactive)
REMARK    1  A    between atoms: C4_8  and  C5_9
REMARK    2  A    between atoms: C5_9  and  N3_10
REMARK    3  A    between atoms: N3_10  and  C6_13
REMARK    4  A    between atoms: C6_13  and  C7_14
REMARK    5  A    between atoms: C7_14  and  N4_15
REMARK    6  A    between atoms: C8_17  and  N5_18
REMARK    7  A    between atoms: N5_18  and  N6_20
ROOT
HETATM    1  N3  UNL     1       5.188  20.162 -12.159  1.00  0.00    -0.070 N
ATOM      2  H31 UNL     1       5.929  19.524 -11.867  1.00  0.00     0.277 HD
ATOM      3  H32 UNL     1       5.751  20.851 -12.659  1.00  0.00     0.277 HD
ENDROOT
BRANCH   1   4
HETATM    4  C5  UNL     1       4.547  20.747 -11.033  1.00  0.00     0.295 C
BRANCH   4   5
HETATM    5  C4  UNL     1       4.108  19.717 -10.064  1.00  0.00     0.415 C
HETATM    6  N1  UNL     1       3.949  19.877  -8.697  1.00  0.00    -0.020 N
HETATM    7  C1  UNL     1       4.991  19.226  -7.867  1.00  0.00     0.276 C
HETATM    8  C2  UNL     1       3.520  21.047  -8.034  1.00  0.00     0.276 C
HETATM    9  C3  UNL     1       2.793  18.927  -8.795  1.00  0.00     0.472 C
HETATM   10  N2  UNL     1       2.685  19.336 -10.172  1.00  0.00    -0.020 N
ATOM     11  H22 UNL     1       2.354  18.699 -10.897  1.00  0.00     0.281 HD
ATOM     12  H21 UNL     1       1.975  19.999 -10.481  1.00  0.00     0.281 HD
ENDBRANCH   4   5
ENDBRANCH   1   4
BRANCH   1  13
HETATM   13  C6  UNL     1       4.255  19.499 -13.061  1.00  0.00     0.252 C
BRANCH  13  14
HETATM   14  C7  UNL     1       3.342  20.446 -13.762  1.00  0.00     0.148 C
BRANCH  14  15
HETATM   15  N4  UNL     1       2.589  19.698 -14.765  1.00  0.00    -0.383 N
HETATM   16  C8  UNL     1       2.495  18.423 -14.609  1.00  0.00     0.194 C
ATOM     17  H4  UNL     1       2.154  20.167 -15.558  1.00  0.00     0.160 HD
BRANCH  16  18
HETATM   18  N5  UNL     1       1.745  17.741 -15.615  1.00  0.00    -0.283 N
ATOM     19  H5  UNL     1       1.902  16.756 -15.827  1.00  0.00     0.189 HD
BRANCH  18  20
HETATM   20  N6  UNL     1       0.778  18.501 -16.298  1.00  0.00    -0.248 N
HETATM   21  N7  UNL     1       0.451  18.192 -17.493  1.00  0.00    -0.331 N
ATOM     22  H72 UNL     1       0.901  17.392 -17.938  1.00  0.00     0.178 HD
ATOM     23  H71 UNL     1      -0.250  18.743 -17.988  1.00  0.00     0.178 HD
ATOM     24  H6  UNL     1       0.338  19.298 -15.838  1.00  0.00     0.207 HD
ENDBRANCH  18  20
ENDBRANCH  16  18
ENDBRANCH  14  15
ENDBRANCH  13  14
ENDBRANCH   1  13
TORSDOF 7
ENDMDL