MODEL 2
REMARK VINA RESULT: -6.577892350      1.011      1.368
REMARK  7 active torsions:
REMARK  status: ('A' for Active; 'I' for Inactive)
REMARK    1  A    between atoms: N1_2  and  C3_4
REMARK    2  A    between atoms: N1_2  and  C4_9
REMARK    3  A    between atoms: C3_4  and  N2_5
REMARK    4  A    between atoms: C4_9  and  C5_10
REMARK    5  A    between atoms: C5_10  and  N3_11
REMARK    6  A    between atoms: N3_11  and  N4_13
REMARK    7  A    between atoms: N5_15  and  N6_17
ROOT
HETATM    1  N3  UNL     1       2.877  18.482 -12.213  1.00  0.00    -0.319 N
ATOM      2  H3  UNL     1       2.714  17.509 -11.956  1.00  0.00     0.181 HD
ENDROOT
BRANCH   1   3
HETATM    3  C5  UNL     1       3.243  18.847 -13.569  1.00  0.00     0.169 C
BRANCH   3   4
HETATM    4  C4  UNL     1       2.451  17.949 -14.502  1.00  0.00     0.259 C
BRANCH   4   5
HETATM    5  N1  UNL     1       2.218  18.548 -15.781  1.00  0.00    -0.050 N
HETATM    6  C1  UNL     1       2.860  17.816 -16.870  1.00  0.00     0.274 C
HETATM    7  C2  UNL     1       2.829  19.872 -15.776  1.00  0.00     0.274 C
BRANCH   5   8
HETATM    8  C3  UNL     1       0.807  18.627 -16.126  1.00  0.00     0.464 C
BRANCH   8   9
HETATM    9  N2  UNL     1       0.561  18.244 -17.481  1.00  0.00    -0.055 N
ATOM     10  H23 UNL     1       0.210  17.288 -17.537  1.00  0.00     0.276 HD
ATOM     11  H22 UNL     1      -0.246  18.736 -17.864  1.00  0.00     0.276 HD
ATOM     12  H21 UNL     1       1.383  18.370 -18.071  1.00  0.00     0.276 HD
ENDBRANCH   8   9
ENDBRANCH   5   8
ENDBRANCH   4   5
ENDBRANCH   3   4
ENDBRANCH   1   3
BRANCH   1  13
HETATM   13  N4  UNL     1       2.755  19.508 -11.272  1.00  0.00    -0.233 N
HETATM   14  N5  UNL     1       3.688  19.723 -10.445  1.00  0.00    -0.227 N
ATOM     15  H5  UNL     1       4.532  19.150 -10.460  1.00  0.00     0.210 HD
ATOM     16  H4  UNL     1       1.913  20.084 -11.251  1.00  0.00     0.209 HD
BRANCH  14  17
HETATM   17  N6  UNL     1       3.553  20.750  -9.512  1.00  0.00    -0.274 N
HETATM   18  C6  UNL     1       3.843  20.543  -8.280  1.00  0.00     0.094 C
HETATM   19  C7  UNL     1       4.335  19.365  -7.530  1.00  0.00     0.097 C
HETATM   20  N7  UNL     1       3.831  21.323  -7.091  1.00  0.00    -0.378 N
HETATM   21  C8  UNL     1       4.117  20.147  -6.271  1.00  0.00     0.128 C
ATOM     22  H7  UNL     1       3.682  22.312  -6.890  1.00  0.00     0.160 HD
ATOM     23  H6  UNL     1       3.223  21.669  -9.809  1.00  0.00     0.190 HD
ENDBRANCH  14  17
ENDBRANCH   1  13
TORSDOF 7
ENDMDL