MODEL 1
REMARK VINA RESULT: -6.745359388      0.000      0.000
REMARK  8 active torsions:
REMARK  status: ('A' for Active; 'I' for Inactive)
REMARK    1  A    between atoms: O1_1  and  N1_3
REMARK    2  A    between atoms: C1_5  and  N2_6
REMARK    3  A    between atoms: N2_6  and  C2_8
REMARK    4  A    between atoms: C2_8  and  C3_9
REMARK    5  A    between atoms: C3_9  and  N3_10
REMARK    6  A    between atoms: N3_10  and  C4_13
REMARK    7  A    between atoms: C4_13  and  C5_14
REMARK    8  A    between atoms: C5_14  and  N4_15
ROOT
HETATM    1  N3  UNL     1       3.825  18.588 -11.775  1.00  0.00    -0.072 N
ATOM      2  H31 UNL     1       4.807  18.730 -12.012  1.00  0.00     0.277 HD
ATOM      3  H32 UNL     1       3.816  17.579 -11.918  1.00  0.00     0.277 HD
ENDROOT
BRANCH   1   4
HETATM    4  C3  UNL     1       2.890  19.321 -12.644  1.00  0.00     0.251 C
BRANCH   4   5
HETATM    5  C2  UNL     1       2.699  18.720 -13.976  1.00  0.00     0.148 C
BRANCH   5   6
HETATM    6  N2  UNL     1       2.293  19.678 -14.968  1.00  0.00    -0.383 N
ATOM      7  H2  UNL     1       2.398  20.670 -14.756  1.00  0.00     0.160 HD
BRANCH   6   8
HETATM    8  C1  UNL     1       1.761  19.316 -16.213  1.00  0.00     0.199 C
HETATM    9  N1  UNL     1       0.711  18.601 -16.371  1.00  0.00    -0.265 N
ATOM     10  H1  UNL     1       0.216  18.269 -15.544  1.00  0.00     0.194 HD
BRANCH   9  11
HETATM   11  O1  UNL     1       0.221  18.263 -17.619  1.00  0.00    -0.289 OA
ATOM     12  H1  UNL     1       0.327  17.396 -17.992  1.00  0.00     0.244 HD
ENDBRANCH   9  11
ENDBRANCH   6   8
ENDBRANCH   5   6
ENDBRANCH   4   5
ENDBRANCH   1   4
BRANCH   1  13
HETATM   13  C4  UNL     1       3.482  18.994 -10.424  1.00  0.00     0.252 C
BRANCH  13  14
HETATM   14  C5  UNL     1       4.219  20.146  -9.872  1.00  0.00     0.156 C
BRANCH  14  15
HETATM   15  N4  UNL     1       4.067  20.409  -8.470  1.00  0.00    -0.350 N
HETATM   16  C6  UNL     1       4.536  19.532  -7.516  1.00  0.00     0.108 A
HETATM   17  C7  UNL     1       4.255  20.053  -6.280  1.00  0.00     0.106 A
HETATM   18  N5  UNL     1       3.628  21.220  -6.443  1.00  0.00    -0.361 N
HETATM   19  C8  UNL     1       3.531  21.403  -7.793  1.00  0.00     0.182 A
ATOM     20  H5  UNL     1       3.291  21.846  -5.710  1.00  0.00     0.166 HD
ENDBRANCH  14  15
ENDBRANCH  13  14
ENDBRANCH   1  13
TORSDOF 8
ENDMDL