MODEL 4
REMARK VINA RESULT: -6.376458396      2.115      2.357
REMARK  7 active torsions:
REMARK  status: ('A' for Active; 'I' for Inactive)
REMARK    1  A    between atoms: C1_2  and  N1_3
REMARK    2  A    between atoms: N1_3  and  C2_5
REMARK    3  A    between atoms: C2_5  and  C3_6
REMARK    4  A    between atoms: C4_7  and  C5_8
REMARK    5  A    between atoms: C7_10  and  O2_11
REMARK    6  A    between atoms: C10_15  and  N2_16
REMARK    7  A    between atoms: N2_16  and  C11_18
ROOT
HETATM    1  C5  UNL     1       3.694  19.756 -12.889  1.00  0.00    -0.033 A
HETATM    2  C6  UNL     1       3.798  20.970 -13.354  1.00  0.00     0.018 A
HETATM    3  C7  UNL     1       4.438  22.276 -12.503  1.00  0.00     0.164 A
HETATM    4  C8  UNL     1       4.645  21.443 -11.471  1.00  0.00     0.007 A
HETATM    5  C9  UNL     1       4.561  20.624 -11.153  1.00  0.00     0.002 A
HETATM    6  C10 UNL     1       4.117  19.323 -11.369  1.00  0.00     0.139 A
ENDROOT
BRANCH   1   7
HETATM    7  C4  UNL     1       3.147  18.671 -13.654  1.00  0.00     0.007 C
HETATM    8  C3  UNL     1       2.395  18.812 -14.698  1.00  0.00    -0.007 C
BRANCH   8   9
HETATM    9  C2  UNL     1       1.914  17.576 -15.379  1.00  0.00     0.149 C
BRANCH   9  10
HETATM   10  N1  UNL     1       1.903  16.485 -14.437  1.00  0.00    -0.365 N
ATOM     11  H1  UNL     1       2.710  15.867 -14.357  1.00  0.00     0.162 HD
BRANCH  10  12
HETATM   12  C1  UNL     1       0.764  16.279 -13.623  1.00  0.00     0.348 C
HETATM   13  O1  UNL     1       0.770  16.573 -12.412  1.00  0.00    -0.284 OA
ENDBRANCH  10  12
ENDBRANCH   9  10
ENDBRANCH   8   9
ENDBRANCH   1   7
BRANCH   6  14
HETATM   14  N2  UNL     1       2.914  19.114 -10.628  1.00  0.00    -0.356 N
ATOM     15  H2  UNL     1       2.068  19.608 -10.912  1.00  0.00     0.162 HD
BRANCH  14  16
HETATM   16  C11 UNL     1       2.855  18.251  -9.522  1.00  0.00     0.349 C
HETATM   17  O3  UNL     1       2.398  17.088  -9.613  1.00  0.00    -0.284 OA
ENDBRANCH  14  16
ENDBRANCH   6  14
BRANCH   3  18
HETATM   18  O2  UNL     1       3.391  23.145 -12.444  1.00  0.00    -0.388 OA
ATOM     19  H2  UNL     1       2.636  22.571 -12.441  1.00  0.00     0.210 HD
ENDBRANCH   3  18
TORSDOF 7
ENDMDL