MODEL 4
REMARK VINA RESULT: -6.058163199      3.384      7.111
REMARK  7 active torsions:
REMARK  status: ('A' for Active; 'I' for Inactive)
REMARK    1  A    between atoms: C4_7  and  C5_8
REMARK    2  A    between atoms: C5_8  and  N3_9
REMARK    3  A    between atoms: N3_9  and  C6_12
REMARK    4  A    between atoms: C6_12  and  C7_13
REMARK    5  A    between atoms: C7_13  and  N4_14
REMARK    6  A    between atoms: N4_14  and  C8_17
REMARK    7  A    between atoms: C8_17  and  N5_18
ROOT
HETATM    1  N3  UNL     1       2.946  17.752 -13.786  1.00  0.00    -0.068 N
ATOM      2  H31 UNL     1       2.703  17.062 -13.075  1.00  0.00     0.277 HD
ATOM      3  H32 UNL     1       3.952  17.584 -13.812  1.00  0.00     0.277 HD
ENDROOT
BRANCH   1   4
HETATM    4  C5  UNL     1       2.618  19.127 -13.366  1.00  0.00     0.290 C
BRANCH   4   5
HETATM    5  C4  UNL     1       3.448  19.570 -12.230  1.00  0.00     0.053 A
HETATM    6  N1  UNL     1       3.360  19.259 -10.939  1.00  0.00    -0.348 N
HETATM    7  C1  UNL     1       2.302  18.474 -10.377  1.00  0.00     0.157 C
HETATM    8  C2  UNL     1       4.425  19.842 -10.329  1.00  0.00     0.182 A
HETATM    9  N2  UNL     1       5.149  20.492 -11.246  1.00  0.00    -0.360 N
HETATM   10  C3  UNL     1       4.584  20.364 -12.436  1.00  0.00     0.115 A
ATOM     11  H2  UNL     1       6.007  21.010 -11.057  1.00  0.00     0.166 HD
ENDBRANCH   4   5
ENDBRANCH   1   4
BRANCH   1  12
HETATM   12  C6  UNL     1       2.317  17.483 -15.043  1.00  0.00     0.260 C
BRANCH  12  13
HETATM   13  C7  UNL     1       1.856  18.716 -15.725  1.00  0.00     0.261 C
BRANCH  13  14
HETATM   14  N4  UNL     1       0.841  18.397 -16.754  1.00  0.00    -0.057 N
ATOM     15  H42 UNL     1       0.572  17.414 -16.757  1.00  0.00     0.279 HD
ATOM     16  H41 UNL     1      -0.077  18.786 -16.540  1.00  0.00     0.279 HD
BRANCH  14  17
HETATM   17  C8  UNL     1       1.361  18.843 -18.018  1.00  0.00     0.370 C
BRANCH  17  18
HETATM   18  N5  UNL     1       1.827  17.662 -18.723  1.00  0.00    -0.318 N
HETATM   19  N6  UNL     1       3.023  17.631 -19.036  1.00  0.00    -0.348 N
ATOM     20  H62 UNL     1       3.641  18.409 -18.802  1.00  0.00     0.176 HD
ATOM     21  H61 UNL     1       3.351  16.802 -19.531  1.00  0.00     0.176 HD
ATOM     22  H5  UNL     1       1.196  16.893 -18.950  1.00  0.00     0.181 HD
ENDBRANCH  17  18
ENDBRANCH  14  17
ENDBRANCH  13  14
ENDBRANCH  12  13
ENDBRANCH   1  12
TORSDOF 7
ENDMDL