MODEL 2
REMARK VINA RESULT: -5.599744712      1.248      1.547
REMARK  8 active torsions:
REMARK  status: ('A' for Active; 'I' for Inactive)
REMARK    1  A    between atoms: N1_2  and  C4_5
REMARK    2  A    between atoms: C4_5  and  C5_6
REMARK    3  A    between atoms: N2_7  and  C6_8
REMARK    4  A    between atoms: C6_8  and  C7_9
REMARK    5  A    between atoms: C7_9  and  N3_10
REMARK    6  A    between atoms: N3_10  and  C8_13
REMARK    7  A    between atoms: C8_13  and  C9_14
REMARK    8  A    between atoms: C9_14  and  N4_15
ROOT
HETATM    1  C6  UNL     1       2.407  18.589 -10.456  1.00  0.00     0.178 C
ENDROOT
BRANCH   1   2
HETATM    2  N2  UNL     1       3.164  18.897 -11.665  1.00  0.00    -0.275 N
HETATM    3  C5  UNL     1       3.179  19.404 -12.909  1.00  0.00     0.139 A
HETATM    4  N5  UNL     1       4.372  18.881 -12.355  1.00  0.00    -0.283 N
ATOM      5  H5  UNL     1       5.366  18.660 -12.416  1.00  0.00     0.188 HD
BRANCH   3   6
HETATM    6  C4  UNL     1       2.418  20.046 -14.015  1.00  0.00     0.315 C
BRANCH   6   7
HETATM    7  N1  UNL     1       2.466  19.144 -15.148  1.00  0.00    -0.072 N
HETATM    8  C1  UNL     1       1.372  19.441 -16.046  1.00  0.00     0.272 C
HETATM    9  C2  UNL     1       2.385  17.764 -14.770  1.00  0.00     0.272 C
HETATM   10  C3  UNL     1       3.724  19.419 -15.843  1.00  0.00     0.272 C
ENDBRANCH   6   7
ENDBRANCH   3   6
ENDBRANCH   1   2
BRANCH   1  11
HETATM   11  C7  UNL     1       3.250  19.009  -9.287  1.00  0.00     0.254 C
BRANCH  11  12
HETATM   12  N3  UNL     1       3.589  20.404  -9.290  1.00  0.00    -0.072 N
ATOM     13  H32 UNL     1       4.461  20.597  -9.782  1.00  0.00     0.277 HD
ATOM     14  H31 UNL     1       2.972  20.959  -9.883  1.00  0.00     0.277 HD
BRANCH  12  15
HETATM   15  C8  UNL     1       3.607  20.861  -7.920  1.00  0.00     0.259 C
BRANCH  15  16
HETATM   16  C9  UNL     1       4.296  19.898  -6.993  1.00  0.00     0.257 C
BRANCH  16  17
HETATM   17  N4  UNL     1       4.316  20.322  -5.634  1.00  0.00    -0.078 N
ATOM     18  H43 UNL     1       4.479  21.327  -5.573  1.00  0.00     0.274 HD
ATOM     19  H42 UNL     1       3.382  20.275  -5.228  1.00  0.00     0.274 HD
ATOM     20  H41 UNL     1       4.985  19.815  -5.053  1.00  0.00     0.274 HD
ENDBRANCH  16  17
ENDBRANCH  15  16
ENDBRANCH  12  15
ENDBRANCH  11  12
ENDBRANCH   1  11
TORSDOF 8
ENDMDL