MODEL 5
REMARK VINA RESULT: -6.574991590      3.033      6.101
REMARK  7 active torsions:
REMARK  status: ('A' for Active; 'I' for Inactive)
REMARK    1  A    between atoms: N2_4  and  N3_6
REMARK    2  A    between atoms: N3_6  and  C1_8
REMARK    3  A    between atoms: C1_8  and  C2_9
REMARK    4  A    between atoms: C2_9  and  N5_13
REMARK    5  A    between atoms: C6_17  and  C7_18
REMARK    6  A    between atoms: C7_18  and  N6_19
REMARK    7  A    between atoms: N6_19  and  C8_21
ROOT
HETATM    1  C2  UNL     1       3.148  19.020 -11.320  1.00  0.00     0.092 C
HETATM    2  N4  UNL     1       2.311  18.181 -11.809  1.00  0.00    -0.388 N
ATOM      3  H41 UNL     1       2.029  18.254 -12.786  1.00  0.00     0.157 HD
ATOM      4  H42 UNL     1       1.910  17.421 -11.260  1.00  0.00     0.157 HD
ENDROOT
BRANCH   1   5
HETATM    5  C1  UNL     1       3.557  18.914  -9.904  1.00  0.00     0.216 C
BRANCH   5   6
HETATM    6  N3  UNL     1       2.931  19.798  -8.992  1.00  0.00    -0.316 N
ATOM      7  H3  UNL     1       1.964  19.637  -8.711  1.00  0.00     0.182 HD
BRANCH   6   8
HETATM    8  N2  UNL     1       3.633  20.888  -8.478  1.00  0.00    -0.253 N
HETATM    9  N1  UNL     1       3.227  21.510  -7.453  1.00  0.00    -0.331 N
ATOM     10  H12 UNL     1       2.366  21.195  -7.006  1.00  0.00     0.178 HD
ATOM     11  H11 UNL     1       3.741  22.308  -7.077  1.00  0.00     0.178 HD
ATOM     12  H2  UNL     1       4.492  21.190  -8.938  1.00  0.00     0.207 HD
ENDBRANCH   6   8
ENDBRANCH   5   6
ENDBRANCH   1   5
BRANCH   1  13
HETATM   13  N5  UNL     1       3.704  20.074 -12.082  1.00  0.00    -0.363 N
HETATM   14  C3  UNL     1       5.013  20.708 -11.772  1.00  0.00     0.125 C
HETATM   15  C4  UNL     1       4.679  22.166 -12.028  1.00  0.00     0.022 C
HETATM   16  C5  UNL     1       3.857  22.105 -13.276  1.00  0.00     0.028 C
HETATM   17  C6  UNL     1       3.177  20.749 -13.233  1.00  0.00     0.103 C
BRANCH  17  18
HETATM   18  C7  UNL     1       3.350  20.042 -14.536  1.00  0.00     0.147 C
BRANCH  18  19
HETATM   19  N6  UNL     1       2.075  19.706 -15.103  1.00  0.00    -0.366 N
ATOM     20  H6  UNL     1       1.268  19.619 -14.486  1.00  0.00     0.161 HD
BRANCH  19  21
HETATM   21  C8  UNL     1       1.899  19.487 -16.512  1.00  0.00     0.348 C
HETATM   22  O1  UNL     1       1.692  20.488 -17.246  1.00  0.00    -0.284 OA
ENDBRANCH  19  21
ENDBRANCH  18  19
ENDBRANCH  17  18
ENDBRANCH   1  13
TORSDOF 7
ENDMDL