MODEL 4
REMARK VINA RESULT: -6.168956545      1.107      1.196
REMARK  7 active torsions:
REMARK  status: ('A' for Active; 'I' for Inactive)
REMARK    1  A    between atoms: N3_10  and  C5_11
REMARK    2  A    between atoms: C5_11  and  C6_12
REMARK    3  A    between atoms: C6_12  and  O1_13
REMARK    4  A    between atoms: O1_13  and  C7_14
REMARK    5  A    between atoms: C7_14  and  C8_15
REMARK    6  A    between atoms: C8_15  and  N4_16
REMARK    7  A    between atoms: N4_16  and  N5_17
ROOT
HETATM    1  N1  UNL     1       1.933  16.655 -14.355  1.00  0.00    -0.234 N
ATOM      2  H11 UNL     1       2.184  16.625 -13.367  1.00  0.00     0.174 HD
ATOM      3  H12 UNL     1       1.629  15.812 -14.844  1.00  0.00     0.174 HD
HETATM    4  C1  UNL     1       2.014  17.782 -14.974  1.00  0.00     0.677 A
HETATM    5  N2  UNL     1       1.675  17.821 -16.309  1.00  0.00    -0.202 N
ATOM      6  H2  UNL     1       1.377  16.964 -16.772  1.00  0.00     0.183 HD
HETATM    7  C2  UNL     1       1.728  18.960 -17.013  1.00  0.00     0.107 A
HETATM    8  C3  UNL     1       2.133  20.100 -16.372  1.00  0.00     0.035 A
HETATM    9  C4  UNL     1       2.470  20.050 -15.040  1.00  0.00     0.110 A
HETATM   10  N3  UNL     1       2.410  18.882 -14.336  1.00  0.00    -0.192 N
ENDROOT
BRANCH  10  11
HETATM   11  C5  UNL     1       2.785  18.873 -12.936  1.00  0.00     0.173 C
BRANCH  11  12
HETATM   12  C6  UNL     1       4.212  19.334 -12.743  1.00  0.00     0.188 C
BRANCH  12  13
HETATM   13  O1  UNL     1       4.613  19.154 -11.461  1.00  0.00    -0.388 OA
BRANCH  13  14
HETATM   14  C7  UNL     1       3.582  18.867 -10.618  1.00  0.00     0.185 C
BRANCH  14  15
HETATM   15  C8  UNL     1       4.095  18.502  -9.210  1.00  0.00     0.160 C
BRANCH  15  16
HETATM   16  N4  UNL     1       4.578  19.750  -8.632  1.00  0.00    -0.146 NA
BRANCH  16  17
HETATM   17  N5  UNL     1       3.793  20.837  -8.960  1.00  0.00    -0.348 N
ATOM     18  H52 UNL     1       2.923  20.748  -9.483  1.00  0.00     0.172 HD
ATOM     19  H51 UNL     1       4.175  21.722  -8.624  1.00  0.00     0.172 HD
ENDBRANCH  16  17
ENDBRANCH  15  16
ENDBRANCH  14  15
ENDBRANCH  13  14
ENDBRANCH  12  13
ENDBRANCH  11  12
ENDBRANCH  10  11
TORSDOF 7
ENDMDL