MODEL 4
REMARK VINA RESULT: -6.659699285      1.807      3.371
REMARK  8 active torsions:
REMARK  status: ('A' for Active; 'I' for Inactive)
REMARK    1  A    between atoms: N2_4  and  N3_6
REMARK    2  A    between atoms: N5_13  and  C4_14
REMARK    3  A    between atoms: C4_14  and  C5_15
REMARK    4  A    between atoms: C5_15  and  N6_16
REMARK    5  A    between atoms: N6_16  and  C6_19
REMARK    6  A    between atoms: C6_19  and  C7_20
REMARK    7  A    between atoms: C7_20  and  C8_21
REMARK    8  A    between atoms: C8_21  and  N7_22
ROOT
HETATM    1  N3  UNL     1       3.537  21.165 -12.307  1.00  0.00    -0.273 N
ATOM      2  H3  UNL     1       3.457  21.070 -11.295  1.00  0.00     0.190 HD
HETATM    3  C1  UNL     1       3.183  20.173 -13.045  1.00  0.00     0.118 A
HETATM    4  C2  UNL     1       3.230  20.128 -14.520  1.00  0.00     0.198 A
HETATM    5  N4  UNL     1       2.738  18.835 -14.849  1.00  0.00    -0.379 N
ATOM      6  H4  UNL     1       2.638  18.475 -15.798  1.00  0.00     0.160 HD
HETATM    7  C3  UNL     1       2.437  18.182 -13.784  1.00  0.00     0.180 A
HETATM    8  N5  UNL     1       2.675  18.916 -12.601  1.00  0.00    -0.329 N
ENDROOT
BRANCH   8   9
HETATM    9  C4  UNL     1       2.486  18.618 -11.219  1.00  0.00     0.158 C
BRANCH   9  10
HETATM   10  C5  UNL     1       3.712  18.417 -10.405  1.00  0.00     0.252 C
BRANCH  10  11
HETATM   11  N6  UNL     1       3.543  18.477  -8.998  1.00  0.00    -0.074 N
ATOM     12  H62 UNL     1       2.562  18.623  -8.761  1.00  0.00     0.277 HD
ATOM     13  H61 UNL     1       3.685  17.557  -8.581  1.00  0.00     0.277 HD
BRANCH  11  14
HETATM   14  C6  UNL     1       4.366  19.455  -8.354  1.00  0.00     0.234 C
BRANCH  14  15
HETATM   15  C7  UNL     1       3.641  20.744  -8.110  1.00  0.00     0.055 C
BRANCH  15  16
HETATM   16  C8  UNL     1       3.758  21.231  -6.699  1.00  0.00     0.231 C
BRANCH  16  17
HETATM   17  N7  UNL     1       4.295  20.254  -5.794  1.00  0.00    -0.079 N
ATOM     18  H73 UNL     1       4.307  19.331  -6.227  1.00  0.00     0.274 HD
ATOM     19  H72 UNL     1       5.297  20.394  -5.665  1.00  0.00     0.274 HD
ATOM     20  H71 UNL     1       3.817  20.223  -4.894  1.00  0.00     0.274 HD
ENDBRANCH  16  17
ENDBRANCH  15  16
ENDBRANCH  14  15
ENDBRANCH  11  14
ENDBRANCH  10  11
ENDBRANCH   9  10
ENDBRANCH   8   9
BRANCH   1  21
HETATM   21  N2  UNL     1       4.023  22.357 -12.823  1.00  0.00    -0.248 N
HETATM   22  N1  UNL     1       5.106  22.822 -12.380  1.00  0.00    -0.331 N
ATOM     23  H12 UNL     1       5.608  22.316 -11.650  1.00  0.00     0.178 HD
ATOM     24  H11 UNL     1       5.463  23.699 -12.759  1.00  0.00     0.178 HD
ATOM     25  H2  UNL     1       3.508  22.850 -13.552  1.00  0.00     0.207 HD
ENDBRANCH   1  21
TORSDOF 8
ENDMDL