MODEL 3
REMARK VINA RESULT: -5.661832794      1.913      5.593
REMARK  6 active torsions:
REMARK  status: ('A' for Active; 'I' for Inactive)
REMARK    1  A    between atoms: C2_2  and  C3_3
REMARK    2  A    between atoms: C3_3  and  N1_4
REMARK    3  A    between atoms: C5_6  and  C6_7
REMARK    4  A    between atoms: C5_6  and  C8_15
REMARK    5  A    between atoms: C6_7  and  N2_8
REMARK       I    between atoms: N2_8  and  C7_10
REMARK    6  A    between atoms: C8_15  and  N5_16
ROOT
HETATM    1  N1  UNL     1     -41.349 -19.126  -3.985  1.00  0.00     0.109 N
HETATM    2  C4  UNL     1     -42.804 -19.048  -4.070  1.00  0.00     0.319 A
HETATM    3  C5  UNL     1     -42.051 -19.684  -2.889  1.00  0.00     0.218 A
ENDROOT
BRANCH   3   4
HETATM    4  C6  UNL     1     -42.321 -18.909  -1.628  1.00  0.00     0.167 C
BRANCH   4   5
HETATM    5  N2  UNL     1     -41.212 -18.300  -0.983  1.00  0.00    -0.362 N
HETATM    6  C7  UNL     1     -40.639 -18.786   0.211  1.00  0.00     0.181 C
HETATM    7  N3  UNL     1     -39.935 -17.983   0.954  1.00  0.00    -0.374 N
HETATM    8  N4  UNL     1     -40.786 -20.117   0.657  1.00  0.00    -0.064 NA
ATOM      9  H32 UNL     1     -39.830 -17.021   0.631  1.00  0.00     0.158 HD
ATOM     10  H31 UNL     1     -39.521 -18.334   1.817  1.00  0.00     0.158 HD
ATOM     11  H2  UNL     1     -40.806 -17.465  -1.406  1.00  0.00     0.162 HD
ENDBRANCH   4   5
ENDBRANCH   3   4
BRANCH   3  12
HETATM   12  C8  UNL     1     -42.284 -21.188  -2.830  1.00  0.00     0.184 C
BRANCH  12  13
HETATM   13  N5  UNL     1     -41.908 -21.762  -1.595  1.00  0.00    -0.340 N
HETATM   14  N6  UNL     1     -42.712 -22.230  -0.761  1.00  0.00    -0.349 N
ATOM     15  H62 UNL     1     -43.701 -22.188  -1.004  1.00  0.00     0.176 HD
ATOM     16  H61 UNL     1     -42.440 -22.644   0.130  1.00  0.00     0.176 HD
ATOM     17  H5  UNL     1     -40.914 -21.796  -1.369  1.00  0.00     0.179 HD
ENDBRANCH  12  13
ENDBRANCH   3  12
BRANCH   1  18
HETATM   18  C3  UNL     1     -40.814 -19.900  -5.078  1.00  0.00     0.300 C
BRANCH  18  19
HETATM   19  C2  UNL     1     -40.637 -19.187  -6.330  1.00  0.00    -0.007 C
HETATM   20  C1  UNL     1     -41.489 -19.111  -7.321  1.00  0.00     0.008 C
ENDBRANCH  18  19
ENDBRANCH   1  18
TORSDOF 6
ENDMDL