MODEL 3
REMARK VINA RESULT: -4.005011406      1.584      5.235
REMARK  7 active torsions:
REMARK  status: ('A' for Active; 'I' for Inactive)
REMARK    1  A    between atoms: N1_2  and  N2_3
REMARK    2  A    between atoms: N2_3  and  C3_5
REMARK    3  A    between atoms: N2_3  and  C7_12
REMARK    4  A    between atoms: C4_6  and  C5_7
REMARK    5  A    between atoms: C5_7  and  N3_8
REMARK    6  A    between atoms: C7_12  and  C8_13
REMARK    7  A    between atoms: C8_13  and  N5_14
ROOT
HETATM    1  N2  UNL     1     -42.227 -19.899  -3.680  1.00  0.00     0.029 N
HETATM    2  C2  UNL     1     -41.202 -20.913  -3.811  1.00  0.00     0.303 C
ENDROOT
BRANCH   1   3
HETATM    3  N1  UNL     1     -43.460 -20.536  -3.503  1.00  0.00    -0.047 NA
HETATM    4  C1  UNL     1     -43.405 -21.957  -3.605  1.00  0.00     0.167 C
ENDBRANCH   1   3
BRANCH   1   5
HETATM    5  C3  UNL     1     -41.983 -19.103  -2.543  1.00  0.00     0.222 C
HETATM    6  C4  UNL     1     -41.880 -19.464  -1.298  1.00  0.00     0.021 C
BRANCH   6   7
HETATM    7  C5  UNL     1     -41.986 -20.801  -0.700  1.00  0.00     0.178 C
BRANCH   7   8
HETATM    8  N3  UNL     1     -41.367 -20.774   0.636  1.00  0.00    -0.282 N
HETATM    9  C6  UNL     1     -40.737 -20.042   1.569  1.00  0.00     0.217 A
HETATM   10  N4  UNL     1     -40.986 -21.380   1.838  1.00  0.00    -0.291 N
ATOM     11  H4  UNL     1     -40.932 -22.193   2.451  1.00  0.00     0.188 HD
ENDBRANCH   7   8
ENDBRANCH   6   7
ENDBRANCH   1   5
BRANCH   1  12
HETATM   12  C7  UNL     1     -42.342 -19.129  -4.897  1.00  0.00     0.293 C
BRANCH  12  13
HETATM   13  C8  UNL     1     -41.216 -19.225  -5.851  1.00  0.00     0.259 C
BRANCH  13  14
HETATM   14  N5  UNL     1     -41.531 -19.129  -7.243  1.00  0.00    -0.078 N
ATOM     15  H53 UNL     1     -42.463 -18.731  -7.353  1.00  0.00     0.274 HD
ATOM     16  H52 UNL     1     -40.962 -18.398  -7.671  1.00  0.00     0.274 HD
ATOM     17  H51 UNL     1     -41.459 -19.984  -7.795  1.00  0.00     0.274 HD
ENDBRANCH  13  14
ENDBRANCH  12  13
ENDBRANCH   1  12
TORSDOF 7
ENDMDL