MODEL 2
REMARK VINA RESULT: -5.594269302      2.689      7.061
REMARK  6 active torsions:
REMARK  status: ('A' for Active; 'I' for Inactive)
REMARK    1  A    between atoms: N2_4  and  N3_6
REMARK    2  A    between atoms: N3_6  and  C1_8
REMARK    3  A    between atoms: C2_9  and  N4_10
REMARK    4  A    between atoms: N4_10  and  C3_12
REMARK    5  A    between atoms: C3_12  and  C4_13
REMARK    6  A    between atoms: C4_13  and  N5_14
ROOT
HETATM    1  N4  UNL     1     -42.640 -20.616  -4.288  1.00  0.00    -0.396 N
ATOM      2  H4  UNL     1     -43.302 -21.227  -4.765  1.00  0.00     0.158 HD
ENDROOT
BRANCH   1   3
HETATM    3  C2  UNL     1     -41.557 -20.135  -5.027  1.00  0.00     0.101 C
HETATM    4  C1  UNL     1     -41.746 -19.456  -6.134  1.00  0.00     0.125 C
BRANCH   4   5
HETATM    5  N3  UNL     1     -40.618 -18.966  -6.889  1.00  0.00    -0.297 N
ATOM      6  H3  UNL     1     -40.725 -18.619  -7.842  1.00  0.00     0.187 HD
BRANCH   5   7
HETATM    7  N2  UNL     1     -39.383 -18.985  -6.262  1.00  0.00    -0.250 N
HETATM    8  N1  UNL     1     -38.348 -18.655  -6.895  1.00  0.00    -0.331 N
ATOM      9  H12 UNL     1     -38.436 -18.374  -7.872  1.00  0.00     0.178 HD
ATOM     10  H11 UNL     1     -37.439 -18.670  -6.433  1.00  0.00     0.178 HD
ATOM     11  H2  UNL     1     -39.313 -19.269  -5.285  1.00  0.00     0.207 HD
ENDBRANCH   5   7
ENDBRANCH   4   5
ENDBRANCH   1   3
BRANCH   1  12
HETATM   12  C3  UNL     1     -42.892 -20.314  -2.899  1.00  0.00     0.147 C
BRANCH  12  13
HETATM   13  C4  UNL     1     -42.043 -19.168  -2.390  1.00  0.00     0.261 C
BRANCH  13  14
HETATM   14  N5  UNL     1     -41.623 -19.426  -1.098  1.00  0.00    -0.011 N
HETATM   15  C5  UNL     1     -41.677 -20.737  -0.531  1.00  0.00     0.272 C
HETATM   16  C6  UNL     1     -40.976 -20.431   0.806  1.00  0.00     0.304 C
HETATM   17  N6  UNL     1     -40.907 -18.961   0.676  1.00  0.00     0.142 N
HETATM   18  C7  UNL     1     -40.335 -18.871  -0.668  1.00  0.00     0.512 C
HETATM   19  C8  UNL     1     -42.184 -18.643   0.012  1.00  0.00     0.512 C
ENDBRANCH  13  14
ENDBRANCH  12  13
ENDBRANCH   1  12
TORSDOF 6
ENDMDL