MODEL 4
REMARK VINA RESULT: -4.891389600      1.789      2.587
REMARK  7 active torsions:
REMARK  status: ('A' for Active; 'I' for Inactive)
REMARK    1  A    between atoms: N1_2  and  C2_3
REMARK    2  A    between atoms: C2_3  and  C3_4
REMARK    3  A    between atoms: C3_4  and  N2_5
REMARK    4  A    between atoms: C5_10  and  C6_11
REMARK    5  A    between atoms: C6_11  and  N3_12
REMARK    6  A    between atoms: N3_12  and  C7_14
REMARK    7  A    between atoms: N4_15  and  N5_17
ROOT
HETATM    1  C6  UNL     1     -42.338 -20.330  -1.422  1.00  0.00     0.155 C
ENDROOT
BRANCH   1   2
HETATM    2  C5  UNL     1     -41.926 -20.936  -2.699  1.00  0.00     0.233 A
HETATM    3  N1  UNL     1     -42.135 -20.247  -3.963  1.00  0.00    -0.060 N
HETATM    4  C1  UNL     1     -42.978 -19.105  -4.041  1.00  0.00     0.273 C
HETATM    5  C4  UNL     1     -42.828 -21.494  -3.717  1.00  0.00     0.272 A
BRANCH   3   6
HETATM    6  C2  UNL     1     -40.977 -20.230  -4.815  1.00  0.00     0.264 C
BRANCH   6   7
HETATM    7  C3  UNL     1     -40.952 -19.171  -5.851  1.00  0.00     0.257 C
BRANCH   7   8
HETATM    8  N2  UNL     1     -39.581 -18.978  -6.339  1.00  0.00    -0.078 N
ATOM      9  H23 UNL     1     -39.136 -18.165  -5.913  1.00  0.00     0.274 HD
ATOM     10  H22 UNL     1     -38.947 -19.696  -5.989  1.00  0.00     0.274 HD
ATOM     11  H21 UNL     1     -39.577 -18.926  -7.357  1.00  0.00     0.274 HD
ENDBRANCH   7   8
ENDBRANCH   6   7
ENDBRANCH   3   6
ENDBRANCH   1   2
BRANCH   1  12
HETATM   12  N3  UNL     1     -41.329 -19.743  -0.606  1.00  0.00    -0.383 N
ATOM     13  H3  UNL     1     -40.754 -19.012  -1.023  1.00  0.00     0.160 HD
BRANCH  12  14
HETATM   14  C7  UNL     1     -41.065 -20.096   0.737  1.00  0.00     0.194 C
HETATM   15  N4  UNL     1     -41.126 -21.291   1.197  1.00  0.00    -0.283 N
ATOM     16  H4  UNL     1     -41.381 -22.057   0.574  1.00  0.00     0.189 HD
BRANCH  15  17
HETATM   17  N5  UNL     1     -40.850 -21.555   2.533  1.00  0.00    -0.248 N
HETATM   18  N6  UNL     1     -41.308 -22.631   3.029  1.00  0.00    -0.331 N
ATOM     19  H62 UNL     1     -41.857 -23.268   2.453  1.00  0.00     0.178 HD
ATOM     20  H61 UNL     1     -41.105 -22.825   4.010  1.00  0.00     0.178 HD
ATOM     21  H5  UNL     1     -40.299 -20.907   3.095  1.00  0.00     0.207 HD
ENDBRANCH  15  17
ENDBRANCH  12  14
ENDBRANCH   1  12
TORSDOF 7
ENDMDL