MODEL 4
REMARK VINA RESULT: -5.078921949      1.816      2.397
REMARK  6 active torsions:
REMARK  status: ('A' for Active; 'I' for Inactive)
REMARK    1  A    between atoms: N1_2  and  C2_5
REMARK    2  A    between atoms: C2_5  and  C3_6
REMARK    3  A    between atoms: C3_6  and  N2_7
REMARK    4  A    between atoms: C6_10  and  N3_11
REMARK    5  A    between atoms: N3_11  and  C7_13
REMARK    6  A    between atoms: N4_14  and  N5_16
ROOT
HETATM    1  N2  UNL     1     -41.977 -20.840  -1.041  1.00  0.00    -0.043 N
HETATM    2  C4  UNL     1     -42.462 -22.192  -1.210  1.00  0.00     0.275 C
HETATM    3  C5  UNL     1     -43.041 -19.817  -1.118  1.00  0.00     0.294 A
HETATM    4  C6  UNL     1     -42.070 -20.033  -2.222  1.00  0.00     0.315 A
ENDROOT
BRANCH   4   5
HETATM    5  N3  UNL     1     -42.593 -20.522  -3.453  1.00  0.00    -0.356 N
ATOM      6  H3  UNL     1     -43.356 -21.199  -3.471  1.00  0.00     0.162 HD
BRANCH   5   7
HETATM    7  C7  UNL     1     -42.012 -20.033  -4.661  1.00  0.00     0.196 C
HETATM    8  N4  UNL     1     -40.769 -19.701  -4.606  1.00  0.00    -0.283 N
ATOM      9  H4  UNL     1     -40.273 -19.803  -3.721  1.00  0.00     0.189 HD
BRANCH   8  10
HETATM   10  N5  UNL     1     -40.079 -19.208  -5.708  1.00  0.00    -0.248 N
HETATM   11  N6  UNL     1     -40.733 -19.035  -6.781  1.00  0.00    -0.331 N
ATOM     12  H62 UNL     1     -41.729 -19.253  -6.817  1.00  0.00     0.178 HD
ATOM     13  H61 UNL     1     -40.226 -18.674  -7.588  1.00  0.00     0.178 HD
ATOM     14  H5  UNL     1     -39.084 -18.994  -5.656  1.00  0.00     0.207 HD
ENDBRANCH   8  10
ENDBRANCH   5   7
ENDBRANCH   4   5
BRANCH   1  15
HETATM   15  C3  UNL     1     -40.991 -20.536  -0.046  1.00  0.00     0.267 C
BRANCH  15  16
HETATM   16  C2  UNL     1     -41.152 -19.167   0.562  1.00  0.00     0.259 C
BRANCH  16  17
HETATM   17  N1  UNL     1     -40.047 -18.302   0.270  1.00  0.00    -0.077 N
HETATM   18  C1  UNL     1     -40.171 -17.559  -0.947  1.00  0.00     0.267 C
ATOM     19  H12 UNL     1     -39.174 -18.829   0.274  1.00  0.00     0.276 HD
ATOM     20  H11 UNL     1     -39.875 -17.671   1.053  1.00  0.00     0.276 HD
ENDBRANCH  16  17
ENDBRANCH  15  16
ENDBRANCH   1  15
TORSDOF 6
ENDMDL