MODEL 1
REMARK VINA RESULT: -5.199730046      0.000      0.000
REMARK  7 active torsions:
REMARK  status: ('A' for Active; 'I' for Inactive)
REMARK    1  A    between atoms: N1_2  and  C2_5
REMARK    2  A    between atoms: C2_5  and  N2_6
REMARK    3  A    between atoms: N2_6  and  C3_7
REMARK    4  A    between atoms: C3_7  and  C4_8
REMARK    5  A    between atoms: C4_8  and  N3_9
REMARK    6  A    between atoms: N3_9  and  C5_11
REMARK    7  A    between atoms: C5_11  and  N4_12
ROOT
HETATM    1  N2  UNL     1     -41.835 -19.680  -1.250  1.00  0.00    -0.017 N
HETATM    2  C6  UNL     1     -40.793 -19.489  -0.266  1.00  0.00     0.270 C
HETATM    3  C7  UNL     1     -40.656 -18.111  -0.843  1.00  0.00     0.155 A
HETATM    4  N6  UNL     1     -41.648 -17.153  -1.120  1.00  0.00    -0.384 N
ATOM      5  H6  UNL     1     -41.836 -16.185  -1.381  1.00  0.00     0.155 HD
HETATM    6  C8  UNL     1     -42.187 -18.351  -0.815  1.00  0.00     0.311 A
ENDROOT
BRANCH   1   7
HETATM    7  C2  UNL     1     -42.881 -20.613  -0.834  1.00  0.00     0.470 C
BRANCH   7   8
HETATM    8  N1  UNL     1     -42.543 -21.992  -0.904  1.00  0.00    -0.055 N
HETATM    9  C1  UNL     1     -42.693 -22.500   0.472  1.00  0.00     0.269 C
ATOM     10  H12 UNL     1     -41.625 -22.170  -1.310  1.00  0.00     0.278 HD
ATOM     11  H11 UNL     1     -43.081 -22.513  -1.596  1.00  0.00     0.278 HD
ENDBRANCH   7   8
ENDBRANCH   1   7
BRANCH   1  12
HETATM   12  C3  UNL     1     -41.509 -19.839  -2.613  1.00  0.00     0.261 C
BRANCH  12  13
HETATM   13  C4  UNL     1     -42.617 -19.769  -3.613  1.00  0.00     0.143 C
BRANCH  13  14
HETATM   14  N3  UNL     1     -42.110 -19.094  -4.789  1.00  0.00    -0.403 N
ATOM     15  H3  UNL     1     -42.697 -18.487  -5.361  1.00  0.00     0.154 HD
BRANCH  14  16
HETATM   16  C5  UNL     1     -40.737 -19.332  -5.096  1.00  0.00     0.255 C
BRANCH  16  17
HETATM   17  N4  UNL     1     -40.522 -19.012  -6.487  1.00  0.00    -0.325 N
HETATM   18  N5  UNL     1     -41.468 -19.115  -7.276  1.00  0.00    -0.348 N
ATOM     19  H52 UNL     1     -42.378 -19.423  -6.934  1.00  0.00     0.176 HD
ATOM     20  H51 UNL     1     -41.315 -18.890  -8.259  1.00  0.00     0.176 HD
ATOM     21  H4  UNL     1     -39.604 -18.706  -6.814  1.00  0.00     0.181 HD
ENDBRANCH  16  17
ENDBRANCH  14  16
ENDBRANCH  13  14
ENDBRANCH  12  13
ENDBRANCH   1  12
TORSDOF 7
ENDMDL