MODEL 3
REMARK VINA RESULT: -5.960637491      3.458      7.227
REMARK  8 active torsions:
REMARK  status: ('A' for Active; 'I' for Inactive)
REMARK    1  A    between atoms: N2_4  and  N3_6
REMARK    2  A    between atoms: C1_8  and  N4_9
REMARK    3  A    between atoms: N4_9  and  C2_11
REMARK    4  A    between atoms: C2_11  and  C3_12
REMARK    5  A    between atoms: C3_12  and  N5_13
REMARK    6  A    between atoms: C4_15  and  N6_16
REMARK    7  A    between atoms: C6_18  and  C7_19
REMARK    8  A    between atoms: C7_19  and  O1_20
ROOT
HETATM    1  C2  UNL     1     -41.134 -21.127   0.838  1.00  0.00     0.140 C
ENDROOT
BRANCH   1   2
HETATM    2  N4  UNL     1     -40.665 -20.916   2.193  1.00  0.00    -0.384 N
ATOM      3  H4  UNL     1     -39.823 -20.368   2.368  1.00  0.00     0.160 HD
BRANCH   2   4
HETATM    4  C1  UNL     1     -41.388 -21.481   3.268  1.00  0.00     0.194 C
HETATM    5  N3  UNL     1     -41.026 -21.260   4.482  1.00  0.00    -0.283 N
ATOM      6  H3  UNL     1     -40.211 -20.671   4.653  1.00  0.00     0.189 HD
BRANCH   5   7
HETATM    7  N2  UNL     1     -41.701 -21.789   5.561  1.00  0.00    -0.248 N
HETATM    8  N1  UNL     1     -42.468 -22.785   5.401  1.00  0.00    -0.331 N
ATOM      9  H12 UNL     1     -42.576 -23.183   4.468  1.00  0.00     0.178 HD
ATOM     10  H11 UNL     1     -42.967 -23.177   6.200  1.00  0.00     0.178 HD
ATOM     11  H2  UNL     1     -41.583 -21.380   6.488  1.00  0.00     0.207 HD
ENDBRANCH   5   7
ENDBRANCH   2   4
ENDBRANCH   1   2
BRANCH   1  12
HETATM   12  C3  UNL     1     -41.230 -19.759   0.174  1.00  0.00     0.140 C
BRANCH  12  13
HETATM   13  N5  UNL     1     -41.453 -19.939  -1.215  1.00  0.00    -0.385 N
HETATM   14  C4  UNL     1     -41.866 -19.084  -2.070  1.00  0.00     0.174 C
ATOM     15  H5  UNL     1     -41.260 -20.872  -1.578  1.00  0.00     0.160 HD
BRANCH  14  16
HETATM   16  N6  UNL     1     -42.034 -19.439  -3.425  1.00  0.00    -0.367 N
HETATM   17  C5  UNL     1     -42.574 -20.467  -4.406  1.00  0.00     0.151 A
HETATM   18  C6  UNL     1     -41.920 -19.284  -4.892  1.00  0.00     0.126 A
BRANCH  18  19
HETATM   19  C7  UNL     1     -40.522 -19.233  -5.419  1.00  0.00     0.191 C
BRANCH  19  20
HETATM   20  O1  UNL     1     -40.403 -18.951  -6.749  1.00  0.00    -0.399 OA
ATOM     21  H1  UNL     1     -39.522 -18.997  -7.101  1.00  0.00     0.209 HD
ENDBRANCH  19  20
ENDBRANCH  18  19
ENDBRANCH  14  16
ENDBRANCH  12  13
ENDBRANCH   1  12
TORSDOF 8
ENDMDL