MODEL 1
REMARK VINA RESULT: -4.830462171      0.000      0.000
REMARK  7 active torsions:
REMARK  status: ('A' for Active; 'I' for Inactive)
REMARK    1  A    between atoms: N1_2  and  C4_5
REMARK    2  A    between atoms: C4_5  and  C5_6
REMARK    3  A    between atoms: C5_6  and  N2_7
REMARK    4  A    between atoms: C5_6  and  C6_11
REMARK    5  A    between atoms: C6_11  and  N3_12
REMARK    6  A    between atoms: C7_14  and  N4_15
REMARK    7  A    between atoms: N4_15  and  N5_17
ROOT
HETATM    1  C5  UNL     1     -41.895 -19.000  -1.348  1.00  0.00     0.227 C
ENDROOT
BRANCH   1   2
HETATM    2  C4  UNL     1     -41.379 -19.373  -2.697  1.00  0.00     0.270 C
BRANCH   2   3
HETATM    3  N1  UNL     1     -42.112 -20.374  -3.383  1.00  0.00    -0.076 N
HETATM    4  C1  UNL     1     -43.479 -20.534  -2.869  1.00  0.00     0.271 C
HETATM    5  C2  UNL     1     -42.284 -19.930  -4.775  1.00  0.00     0.271 C
HETATM    6  C3  UNL     1     -41.523 -21.671  -3.427  1.00  0.00     0.271 C
ENDBRANCH   2   3
ENDBRANCH   1   2
BRANCH   1   7
HETATM    7  N2  UNL     1     -41.916 -17.583  -1.132  1.00  0.00    -0.072 N
ATOM      8  H23 UNL     1     -42.460 -17.349  -0.301  1.00  0.00     0.274 HD
ATOM      9  H22 UNL     1     -41.002 -17.247  -0.832  1.00  0.00     0.274 HD
ATOM     10  H21 UNL     1     -42.249 -17.064  -1.944  1.00  0.00     0.274 HD
ENDBRANCH   1   7
BRANCH   1  11
HETATM   11  C6  UNL     1     -40.925 -19.589  -0.313  1.00  0.00     0.154 C
BRANCH  11  12
HETATM   12  N3  UNL     1     -41.486 -20.802   0.251  1.00  0.00    -0.383 N
HETATM   13  C7  UNL     1     -41.127 -21.176   1.439  1.00  0.00     0.192 C
ATOM     14  H3  UNL     1     -42.156 -21.355  -0.283  1.00  0.00     0.160 HD
BRANCH  13  15
HETATM   15  N4  UNL     1     -41.723 -22.378   1.921  1.00  0.00    -0.296 N
ATOM     16  H4  UNL     1     -42.340 -22.934   1.328  1.00  0.00     0.187 HD
BRANCH  15  17
HETATM   17  N5  UNL     1     -41.437 -22.771   3.227  1.00  0.00    -0.298 N
HETATM   18  C8  UNL     1     -41.820 -22.032   4.201  1.00  0.00     0.206 C
HETATM   19  N6  UNL     1     -41.543 -22.405   5.562  1.00  0.00    -0.095 NA
ATOM     20  H5  UNL     1     -40.928 -23.637   3.406  1.00  0.00     0.187 HD
ENDBRANCH  15  17
ENDBRANCH  13  15
ENDBRANCH  11  12
ENDBRANCH   1  11
TORSDOF 7
ENDMDL