MODEL 2
REMARK VINA RESULT: -5.876924811      1.629      2.304
REMARK  2 active torsions:
REMARK  status: ('A' for Active; 'I' for Inactive)
REMARK    1  A    between atoms: C6_6  and  C7_8
REMARK    2  A    between atoms: C7_8  and  C8_9
ROOT
HETATM    1  C1  UNL     1    -111.210-173.209 306.816  1.00  0.00     0.016 C
HETATM    2  C2  UNL     1    -110.592-174.067 307.923  1.00  0.00    -0.034 A
HETATM    3  C3  UNL     1    -111.511-174.308 309.072  1.00  0.00     0.016 C
HETATM    4  C4  UNL     1    -109.181-173.786 308.252  1.00  0.00     0.006 A
HETATM    5  C5  UNL     1    -108.345-174.691 309.081  1.00  0.00     0.028 A
HETATM    6  C6  UNL     1    -108.803-175.916 308.346  1.00  0.00     0.028 A
HETATM    7 BR1  UNL     1    -107.270-176.748 307.464  1.00  0.00    -0.085 Br
HETATM    8  C9  UNL     1    -109.612-175.060 307.451  1.00  0.00    -0.015 A
HETATM    9  C10 UNL     1    -109.163-174.985 305.985  1.00  0.00     0.018 C
ENDROOT
BRANCH   6  10
HETATM   10  C7  UNL     1    -109.478-176.942 309.198  1.00  0.00     0.037 C
BRANCH  10  11
HETATM   11  C8  UNL     1    -109.165-176.812 310.656  1.00  0.00     0.116 C
HETATM   12 CL1  UNL     1    -107.669-177.658 311.092  1.00  0.00    -0.130 Cl
ENDBRANCH  10  11
ENDBRANCH   6  10
TORSDOF 2
ENDMDL