MODEL 5
REMARK VINA RESULT: -5.412930498      2.799      3.985
REMARK  2 active torsions:
REMARK  status: ('A' for Active; 'I' for Inactive)
REMARK    1  A    between atoms: C2_2  and  C3_4
REMARK    2  A    between atoms: C6_7  and  N1_9
ROOT
HETATM    1  C3  UNL     1    -108.763-174.867 307.723  1.00  0.00     0.051 C
HETATM    2  C4  UNL     1    -108.005-176.061 307.159  1.00  0.00     0.014 C
HETATM    3  C5  UNL     1    -107.641-176.912 308.359  1.00  0.00     0.041 C
HETATM    4  C6  UNL     1    -108.267-176.202 309.526  1.00  0.00     0.137 C
HETATM    5  C7  UNL     1    -107.262-175.187 310.042  1.00  0.00     0.048 C
HETATM    6  C8  UNL     1    -109.456-175.539 308.890  1.00  0.00     0.055 C
HETATM    7  C9  UNL     1    -110.166-174.577 309.784  1.00  0.00     0.031 C
HETATM    8 BR1  UNL     1    -110.648-176.885 308.238  1.00  0.00    -0.083 Br
ENDROOT
BRANCH   4   9
HETATM    9  N1  UNL     1    -108.622-177.084 310.610  1.00  0.00    -0.069 N
ATOM     10  H13 UNL     1    -107.790-177.521 311.007  1.00  0.00     0.275 HD
ATOM     11  H12 UNL     1    -108.936-176.551 311.421  1.00  0.00     0.275 HD
ATOM     12  H11 UNL     1    -109.312-177.789 310.350  1.00  0.00     0.275 HD
ENDBRANCH   4   9
BRANCH   1  13
HETATM   13  C2  UNL     1    -109.672-174.286 306.729  1.00  0.00     0.008 C
HETATM   14  C1  UNL     1    -109.538-174.551 305.455  1.00  0.00     0.032 C
HETATM   15 CL1  UNL     1    -110.951-173.229 307.260  1.00  0.00    -0.089 Cl
ENDBRANCH   1  13
TORSDOF 2
ENDMDL