MODEL 3
REMARK VINA RESULT: -7.608576729      2.272      5.302
REMARK  2 active torsions:
REMARK  status: ('A' for Active; 'I' for Inactive)
REMARK    1  A    between atoms: C3_3  and  C4_4
REMARK    2  A    between atoms: C4_4  and  N1_7
ROOT
HETATM    1  N1  UNL     1    -110.768-174.739 307.429  1.00  0.00    -0.027 N
HETATM    2  C6  UNL     1    -111.162-176.029 307.972  1.00  0.00     0.277 C
HETATM    3  C7  UNL     1    -110.474-173.870 308.520  1.00  0.00     0.247 C
HETATM    4  C8  UNL     1    -109.066-173.866 308.993  1.00  0.00     0.085 C
HETATM    5  C9  UNL     1    -108.257-175.014 308.576  1.00  0.00     0.022 A
HETATM    6  N2  UNL     1    -107.252-175.745 309.117  1.00  0.00    -0.360 N
ATOM      7  H2  UNL     1    -106.841-175.589 310.036  1.00  0.00     0.165 HD
HETATM    8  C10 UNL     1    -106.883-176.705 308.257  1.00  0.00     0.045 A
HETATM    9  C11 UNL     1    -105.816-177.746 308.430  1.00  0.00     0.071 C
HETATM   10  C12 UNL     1    -107.669-176.602 307.114  1.00  0.00     0.148 A
HETATM   11  F2  UNL     1    -107.631-177.367 306.003  1.00  0.00    -0.203 F
HETATM   12  C13 UNL     1    -108.518-175.551 307.317  1.00  0.00     0.031 A
HETATM   13  C14 UNL     1    -109.607-174.875 306.551  1.00  0.00     0.285 C
ENDROOT
BRANCH   1  14
HETATM   14  C4  UNL     1    -111.843-174.216 306.582  1.00  0.00     0.283 C
HETATM   15  C5  UNL     1    -112.729-173.358 307.460  1.00  0.00     0.089 C
HETATM   16  F1  UNL     1    -112.582-175.315 306.172  1.00  0.00    -0.207 F
BRANCH  14  17
HETATM   17  C3  UNL     1    -111.331-173.481 305.423  1.00  0.00     0.042 C
HETATM   18  C2  UNL     1    -111.916-173.505 304.238  1.00  0.00    -0.030 C
HETATM   19  C1  UNL     1    -111.384-172.754 303.075  1.00  0.00     0.036 C
ENDBRANCH  14  17
ENDBRANCH   1  14
TORSDOF 2
ENDMDL