MODEL 1
REMARK VINA RESULT: -7.706154788      0.000      0.000
REMARK  2 active torsions:
REMARK  status: ('A' for Active; 'I' for Inactive)
REMARK    1  A    between atoms: C2_2  and  C4_4
REMARK    2  A    between atoms: C7_7  and  N1_8
ROOT
HETATM    1  C4  UNL     1    -111.282-174.932 306.898  1.00  0.00     0.061 C
HETATM    2  C5  UNL     1    -109.862-174.428 306.741  1.00  0.00     0.013 C
HETATM    3  C6  UNL     1    -108.951-175.633 307.008  1.00  0.00     0.034 C
HETATM    4  C7  UNL     1    -109.196-176.206 308.361  1.00  0.00     0.195 C
HETATM    5  C13 UNL     1    -110.191-175.317 309.121  1.00  0.00     0.113 C
HETATM    6  C14 UNL     1    -111.491-175.199 308.359  1.00  0.00     0.249 C
HETATM    7  F1  UNL     1    -112.181-174.137 308.945  1.00  0.00    -0.206 F
HETATM    8  F2  UNL     1    -112.268-176.343 308.491  1.00  0.00    -0.206 F
ENDROOT
BRANCH   4   9
HETATM    9  N1  UNL     1    -108.046-176.481 309.136  1.00  0.00    -0.066 N
HETATM   10  C8  UNL     1    -106.991-177.023 308.258  1.00  0.00     0.273 C
HETATM   11  C9  UNL     1    -108.205-177.424 310.193  1.00  0.00     0.237 C
HETATM   12  C10 UNL     1    -107.180-177.079 311.266  1.00  0.00     0.029 C
HETATM   13  C11 UNL     1    -106.415-175.952 310.667  1.00  0.00     0.029 C
HETATM   14  C12 UNL     1    -107.447-175.311 309.759  1.00  0.00     0.237 C
ENDBRANCH   4   9
BRANCH   1  15
HETATM   15  C2  UNL     1    -112.283-173.984 306.313  1.00  0.00    -0.013 C
HETATM   16  C1  UNL     1    -111.691-173.479 304.992  1.00  0.00     0.010 C
HETATM   17  C3  UNL     1    -113.543-174.708 305.979  1.00  0.00     0.010 C
ENDBRANCH   1  15
TORSDOF 2
ENDMDL