MODEL 1
REMARK VINA RESULT: -7.235348737      0.000      0.000
REMARK  2 active torsions:
REMARK  status: ('A' for Active; 'I' for Inactive)
REMARK    1  A    between atoms: C4_4  and  C5_5
REMARK       I    between atoms: C5_5  and  N1_7
REMARK    2  A    between atoms: N1_7  and  C6_9
ROOT
HETATM    1  C5  UNL     1    -108.576-175.826 307.875  1.00  0.00     0.227 C
HETATM    2  O1  UNL     1    -108.626-176.613 306.888  1.00  0.00    -0.273 OA
HETATM    3  N1  UNL     1    -109.690-174.967 308.072  1.00  0.00    -0.356 N
ATOM      4  H1  UNL     1    -109.678-174.321 308.862  1.00  0.00     0.162 HD
ENDROOT
BRANCH   1   5
HETATM    5  C4  UNL     1    -107.436-175.771 308.802  1.00  0.00     0.146 A
HETATM    6  C2  UNL     1    -107.665-176.446 310.134  1.00  0.00     0.020 A
HETATM    7  C1  UNL     1    -107.229-175.614 311.322  1.00  0.00     0.020 C
HETATM    8  C3  UNL     1    -108.909-177.246 310.373  1.00  0.00     0.020 C
HETATM    9  C13 UNL     1    -106.692-176.996 309.186  1.00  0.00     0.199 A
HETATM   10  F1  UNL     1    -107.019-178.177 308.536  1.00  0.00    -0.224 F
HETATM   11 CL1  UNL     1    -104.964-176.857 309.558  1.00  0.00    -0.081 Cl
ENDBRANCH   1   5
BRANCH   3  12
HETATM   12  C6  UNL     1    -110.839-174.973 307.198  1.00  0.00     0.088 C
HETATM   13  C7  UNL     1    -112.075-175.544 307.894  1.00  0.00     0.030 C
HETATM   14  C8  UNL     1    -113.130-174.550 307.463  1.00  0.00    -0.012 C
HETATM   15  C9  UNL     1    -113.238-174.614 305.972  1.00  0.00     0.005 C
HETATM   16  C12 UNL     1    -112.347-173.237 307.629  1.00  0.00     0.011 C
HETATM   17  C10 UNL     1    -112.033-173.852 305.407  1.00  0.00     0.007 C
HETATM   18  C11 UNL     1    -111.210-173.630 306.672  1.00  0.00     0.009 C
ENDBRANCH   3  12
TORSDOF 2
ENDMDL