MODEL 5
REMARK VINA RESULT: -7.812881739      1.145      1.470
REMARK  2 active torsions:
REMARK  status: ('A' for Active; 'I' for Inactive)
REMARK    1  A    between atoms: C8_10  and  C9_11
REMARK    2  A    between atoms: C10_12  and  C11_13
ROOT
HETATM    1  C1  UNL     1    -108.610-175.375 307.618  1.00  0.00     0.015 C
HETATM    2  C2  UNL     1    -110.103-175.183 307.695  1.00  0.00     0.011 C
HETATM    3  C3  UNL     1    -110.510-174.328 308.877  1.00  0.00     0.014 C
HETATM    4  C4  UNL     1    -111.998-174.486 309.061  1.00  0.00     0.080 C
HETATM    5  C5  UNL     1    -112.757-174.655 307.795  1.00  0.00     0.247 C
HETATM    6  F1  UNL     1    -113.067-175.999 307.547  1.00  0.00    -0.206 F
HETATM    7  F2  UNL     1    -113.988-173.989 307.882  1.00  0.00    -0.206 F
HETATM    8  C6  UNL     1    -112.082-174.130 306.556  1.00  0.00     0.113 C
HETATM    9  C7  UNL     1    -110.651-174.502 306.504  1.00  0.00    -0.070 C
HETATM   10  C8  UNL     1    -109.917-174.220 305.410  1.00  0.00     0.003 C
ENDROOT
BRANCH  10  11
HETATM   11  C9  UNL     1    -110.549-173.555 304.311  1.00  0.00     0.003 C
HETATM   12  C10 UNL     1    -110.633-173.790 303.049  1.00  0.00     0.031 C
BRANCH  12  13
HETATM   13  C11 UNL     1    -110.092-174.862 302.254  1.00  0.00     0.048 A
HETATM   14  C12 UNL     1    -108.822-175.349 302.155  1.00  0.00     0.120 A
HETATM   15  N1  UNL     1    -108.754-176.395 301.260  1.00  0.00    -0.355 N
HETATM   16  C13 UNL     1    -107.566-177.156 300.902  1.00  0.00     0.156 C
HETATM   17  C14 UNL     1    -110.005-176.534 300.818  1.00  0.00     0.182 A
HETATM   18  N2  UNL     1    -110.821-175.647 301.381  1.00  0.00    -0.351 N
ATOM     19  H2  UNL     1    -111.821-175.561 301.199  1.00  0.00     0.166 HD
ENDBRANCH  12  13
ENDBRANCH  10  11
TORSDOF 2
ENDMDL