MODEL 3
REMARK VINA RESULT: -6.068548554      3.042      5.823
REMARK  3 active torsions:
REMARK  status: ('A' for Active; 'I' for Inactive)
REMARK    1  A    between atoms: C4_5  and  C5_6
REMARK       I    between atoms: C5_6  and  N2_8
REMARK    2  A    between atoms: N2_8  and  C6_10
REMARK    3  A    between atoms: C6_10  and  C7_11
ROOT
HETATM    1  C1  UNL     1    -109.248-172.989 308.473  1.00  0.00     0.222 C
HETATM    2  N1  UNL     1    -109.987-173.517 307.754  1.00  0.00    -0.458 NA
HETATM    3  C2  UNL     1    -110.878-174.130 306.873  1.00  0.00     0.123 A
HETATM    4  C3  UNL     1    -111.086-173.423 305.547  1.00  0.00     0.057 C
HETATM    5  C4  UNL     1    -110.965-175.578 306.869  1.00  0.00     0.148 A
HETATM    6  C11 UNL     1    -112.131-174.789 307.406  1.00  0.00     0.087 A
HETATM    7  C12 UNL     1    -112.385-174.605 308.861  1.00  0.00     0.037 C
HETATM    8 CL1  UNL     1    -113.568-174.829 306.356  1.00  0.00    -0.115 Cl
ENDROOT
BRANCH   5   9
HETATM    9  C5  UNL     1    -110.316-176.435 307.948  1.00  0.00     0.231 C
HETATM   10  O1  UNL     1    -111.046-177.286 308.524  1.00  0.00    -0.273 OA
HETATM   11  N2  UNL     1    -108.980-176.203 308.197  1.00  0.00    -0.340 N
ATOM     12  H2  UNL     1    -108.568-175.456 307.637  1.00  0.00     0.167 HD
BRANCH  11  13
HETATM   13  C6  UNL     1    -108.095-176.816 309.084  1.00  0.00     0.072 C
BRANCH  13  14
HETATM   14  C7  UNL     1    -107.901-176.267 310.422  1.00  0.00    -0.019 C
HETATM   15  C8  UNL     1    -109.105-175.727 311.103  1.00  0.00     0.020 C
HETATM   16  C9  UNL     1    -106.796-175.191 310.443  1.00  0.00     0.020 C
HETATM   17  C10 UNL     1    -107.324-177.396 311.317  1.00  0.00     0.020 C
ENDBRANCH  13  14
ENDBRANCH  11  13
ENDBRANCH   5   9
TORSDOF 3
ENDMDL