MODEL 5
REMARK VINA RESULT: -6.325234824      3.114      4.228
REMARK  2 active torsions:
REMARK  status: ('A' for Active; 'I' for Inactive)
REMARK    1  A    between atoms: C2_2  and  O1_3
REMARK    2  A    between atoms: C2_2  and  C3_5
ROOT
HETATM    1  C3  UNL     1    -110.527-174.591 307.782  1.00  0.00     0.015 C
HETATM    2  C4  UNL     1    -109.515-175.072 306.715  1.00  0.00     0.044 C
HETATM    3  C5  UNL     1    -108.816-176.022 307.722  1.00  0.00     0.056 C
HETATM    4 CL1  UNL     1    -107.423-176.787 307.183  1.00  0.00    -0.117 Cl
HETATM    5  C6  UNL     1    -110.079-176.906 307.868  1.00  0.00     0.033 C
HETATM    6  C7  UNL     1    -110.882-175.792 308.574  1.00  0.00     0.004 C
HETATM    7  C8  UNL     1    -109.956-175.755 309.810  1.00  0.00     0.029 C
HETATM    8  C9  UNL     1    -108.747-175.218 309.011  1.00  0.00     0.041 C
HETATM    9 BR1  UNL     1    -107.154-175.107 309.887  1.00  0.00    -0.083 Br
HETATM   10  C10 UNL     1    -109.438-173.890 308.626  1.00  0.00     0.040 C
ENDROOT
BRANCH   1  11
HETATM   11  C2  UNL     1    -111.546-173.747 307.284  1.00  0.00     0.043 C
HETATM   12  C1  UNL     1    -112.824-174.022 307.491  1.00  0.00     0.046 C
BRANCH  11  13
HETATM   13  O1  UNL     1    -111.193-172.611 306.566  1.00  0.00    -0.365 OA
ATOM     14  H1  UNL     1    -111.864-171.997 306.293  1.00  0.00     0.217 HD
ENDBRANCH  11  13
ENDBRANCH   1  11
TORSDOF 2
ENDMDL