MODEL 1
REMARK VINA RESULT: -6.949454077      0.000      0.000
REMARK  2 active torsions:
REMARK  status: ('A' for Active; 'I' for Inactive)
REMARK    1  A    between atoms: C2_2  and  N1_3
REMARK    2  A    between atoms: C2_2  and  C6_10
REMARK       I    between atoms: C3_5  and  N3_7
ROOT
HETATM    1  C1  UNL     1    -107.792-176.211 305.939  1.00  0.00     0.032 C
HETATM    2  C2  UNL     1    -108.407-175.550 307.146  1.00  0.00     0.088 C
ENDROOT
BRANCH   2   3
HETATM    3  N1  UNL     1    -109.818-175.510 307.117  1.00  0.00    -0.360 N
HETATM    4  C3  UNL     1    -110.607-174.534 307.129  1.00  0.00     0.185 C
HETATM    5  N2  UNL     1    -110.254-173.162 307.178  1.00  0.00    -0.064 NA
HETATM    6  N3  UNL     1    -112.005-174.817 307.091  1.00  0.00    -0.364 N
HETATM    7  C4  UNL     1    -112.621-175.761 307.971  1.00  0.00     0.151 C
HETATM    8  C5  UNL     1    -112.785-174.094 306.108  1.00  0.00     0.151 C
ATOM      9  H1  UNL     1    -110.270-176.424 307.079  1.00  0.00     0.162 HD
ENDBRANCH   2   3
BRANCH   2  10
HETATM   10  C6  UNL     1    -107.912-176.226 308.439  1.00  0.00     0.063 C
HETATM   11  C7  UNL     1    -106.671-177.007 308.205  1.00  0.00     0.011 C
HETATM   12  C8  UNL     1    -105.643-177.008 309.264  1.00  0.00     0.001 C
HETATM   13  C9  UNL     1    -106.272-176.824 310.627  1.00  0.00     0.004 C
HETATM   14  C10 UNL     1    -106.875-175.440 310.598  1.00  0.00     0.061 C
HETATM   15  C11 UNL     1    -107.937-175.281 309.572  1.00  0.00     0.184 C
HETATM   16  F1  UNL     1    -107.859-173.939 309.161  1.00  0.00    -0.225 F
HETATM   17 CL1  UNL     1    -109.516-175.379 310.436  1.00  0.00    -0.082 Cl
ENDBRANCH   2  10
TORSDOF 2
ENDMDL