MODEL 3
REMARK VINA RESULT: -5.735113293      1.987      3.498
REMARK  2 active torsions:
REMARK  status: ('A' for Active; 'I' for Inactive)
REMARK    1  A    between atoms: C2_2  and  C3_3
REMARK    2  A    between atoms: C7_11  and  C9_13
ROOT
HETATM    1  C3  UNL     1    -108.630-176.324 309.355  1.00  0.00     0.196 C
HETATM    2  N1  UNL     1    -107.705-175.862 308.356  1.00  0.00    -0.065 N
ATOM      3  H11 UNL     1    -106.720-176.068 308.524  1.00  0.00     0.278 HD
ATOM      4  H12 UNL     1    -107.563-174.853 308.307  1.00  0.00     0.278 HD
HETATM    5  C4  UNL     1    -108.304-176.489 307.175  1.00  0.00     0.197 C
HETATM    6  C5  UNL     1    -107.629-176.032 305.908  1.00  0.00     0.041 C
HETATM    7  C6  UNL     1    -109.730-176.059 307.285  1.00  0.00     0.099 C
HETATM    8 BR1  UNL     1    -109.850-174.265 306.522  1.00  0.00    -0.088 Br
HETATM    9  C7  UNL     1    -109.954-175.986 308.801  1.00  0.00     0.012 C
HETATM   10  C8  UNL     1    -110.516-174.649 309.104  1.00  0.00     0.020 C
ENDROOT
BRANCH   9  11
HETATM   11  C9  UNL     1    -110.986-177.036 309.143  1.00  0.00     0.127 C
HETATM   12 CL1  UNL     1    -112.523-176.521 308.389  1.00  0.00    -0.130 Cl
ENDBRANCH   9  11
BRANCH   1  13
HETATM   13  C2  UNL     1    -108.321-175.952 310.741  1.00  0.00     0.029 C
HETATM   14  C1  UNL     1    -106.963-175.461 311.048  1.00  0.00     0.007 C
ENDBRANCH   1  13
TORSDOF 2
ENDMDL