MODEL 1
REMARK VINA RESULT: -8.618076758      0.000      0.000
REMARK  3 active torsions:
REMARK  status: ('A' for Active; 'I' for Inactive)
REMARK    1  A    between atoms: C2_2  and  C3_3
REMARK    2  A    between atoms: C3_3  and  N1_4
REMARK       I    between atoms: N1_4  and  C4_6
REMARK    3  A    between atoms: C4_6  and  C5_8
ROOT
HETATM    1  C1  UNL     1    -114.058-173.727 308.752  1.00  0.00     0.045 C
HETATM    2  C2  UNL     1    -114.166-175.125 309.170  1.00  0.00    -0.063 C
HETATM    3  C10 UNL     1    -113.038-175.709 309.620  1.00  0.00    -0.067 C
HETATM    4  C11 UNL     1    -112.874-177.132 310.109  1.00  0.00     0.044 C
HETATM    5  C12 UNL     1    -111.411-177.048 310.468  1.00  0.00     0.046 C
HETATM    6  C13 UNL     1    -110.845-176.323 309.242  1.00  0.00     0.023 C
HETATM    7  C14 UNL     1    -111.701-175.168 309.768  1.00  0.00     0.071 C
HETATM    8  C15 UNL     1    -111.305-175.709 311.152  1.00  0.00     0.190 C
HETATM    9  F1  UNL     1    -112.235-175.517 312.124  1.00  0.00    -0.224 F
HETATM   10 CL1  UNL     1    -109.650-175.197 311.547  1.00  0.00    -0.081 Cl
ENDROOT
BRANCH   2  11
HETATM   11  C3  UNL     1    -115.396-175.919 309.092  1.00  0.00     0.156 C
BRANCH  11  12
HETATM   12  N1  UNL     1    -116.469-175.331 308.385  1.00  0.00    -0.357 N
HETATM   13  C4  UNL     1    -117.699-174.823 308.827  1.00  0.00     0.222 C
HETATM   14  O1  UNL     1    -118.078-174.794 310.011  1.00  0.00    -0.273 OA
ATOM     15  H1  UNL     1    -116.322-175.264 307.378  1.00  0.00     0.162 HD
BRANCH  13  16
HETATM   16  C5  UNL     1    -118.663-174.261 307.806  1.00  0.00     0.078 C
HETATM   17  C6  UNL     1    -118.644-175.100 306.543  1.00  0.00     0.014 C
HETATM   18  C7  UNL     1    -120.063-175.257 306.101  1.00  0.00     0.001 C
HETATM   19  C8  UNL     1    -120.862-174.336 306.989  1.00  0.00     0.001 C
HETATM   20  C9  UNL     1    -120.077-174.354 308.278  1.00  0.00     0.014 C
ENDBRANCH  13  16
ENDBRANCH  11  12
ENDBRANCH   2  11
TORSDOF 3
ENDMDL