MODEL 3
REMARK VINA RESULT: -6.698118380      3.898      6.213
REMARK  3 active torsions:
REMARK  status: ('A' for Active; 'I' for Inactive)
REMARK    1  A    between atoms: C4_4  and  C5_5
REMARK    2  A    between atoms: C6_6  and  C7_7
REMARK    3  A    between atoms: C7_7  and  C9_9
ROOT
HETATM    1  C1  UNL     1    -112.899-172.912 308.049  1.00  0.00     0.018 C
HETATM    2  C2  UNL     1    -113.335-173.978 308.385  1.00  0.00    -0.074 C
HETATM    3  C3  UNL     1    -113.824-175.262 308.787  1.00  0.00     0.062 A
HETATM    4  C4  UNL     1    -115.102-175.715 308.994  1.00  0.00     0.001 A
HETATM    5  C10 UNL     1    -115.022-177.076 309.385  1.00  0.00     0.101 A
HETATM    6  N1  UNL     1    -113.733-177.393 309.401  1.00  0.00    -0.358 N
ATOM      7  H1  UNL     1    -113.366-178.312 309.646  1.00  0.00     0.166 HD
HETATM    8  C11 UNL     1    -112.979-176.346 309.052  1.00  0.00     0.099 A
HETATM    9 BR1  UNL     1    -111.079-176.307 308.928  1.00  0.00    -0.030 Br
ENDROOT
BRANCH   4  10
HETATM   10  C5  UNL     1    -116.344-174.989 308.858  1.00  0.00     0.011 C
HETATM   11  C6  UNL     1    -117.239-175.106 307.935  1.00  0.00    -0.020 C
BRANCH  11  12
HETATM   12  C7  UNL     1    -118.460-174.209 308.037  1.00  0.00     0.018 C
HETATM   13  C8  UNL     1    -118.939-174.315 309.454  1.00  0.00     0.015 C
BRANCH  12  14
HETATM   14  C9  UNL     1    -119.527-174.693 307.074  1.00  0.00     0.122 C
HETATM   15 CL1  UNL     1    -118.741-175.164 305.537  1.00  0.00    -0.130 Cl
ENDBRANCH  12  14
ENDBRANCH  11  12
ENDBRANCH   4  10
TORSDOF 3
ENDMDL