MODEL 5
REMARK VINA RESULT: -6.759685512      1.954      3.843
REMARK  3 active torsions:
REMARK  status: ('A' for Active; 'I' for Inactive)
REMARK    1  A    between atoms: N1_8  and  C7_9
REMARK    2  A    between atoms: N1_8  and  C9_12
REMARK    3  A    between atoms: C7_9  and  C8_10
ROOT
HETATM    1  C1  UNL     1    -111.365-174.725 312.719  1.00  0.00     0.015 C
HETATM    2  C2  UNL     1    -110.690-175.500 312.101  1.00  0.00    -0.073 C
HETATM    3  C3  UNL     1    -109.876-176.424 311.394  1.00  0.00     0.166 C
HETATM    4  F1  UNL     1    -108.675-176.565 312.105  1.00  0.00    -0.229 F
HETATM    5  C4  UNL     1    -110.443-177.792 311.163  1.00  0.00     0.059 C
HETATM    6  C5  UNL     1    -111.766-177.558 310.418  1.00  0.00     0.032 C
HETATM    7  C6  UNL     1    -111.655-177.464 308.966  1.00  0.00     0.238 C
HETATM    8  N1  UNL     1    -111.312-176.200 308.352  1.00  0.00    -0.060 N
HETATM    9  C16 UNL     1    -110.430-175.413 309.127  1.00  0.00     0.242 C
HETATM   10  C17 UNL     1    -109.430-175.959 310.001  1.00  0.00     0.085 C
ENDROOT
BRANCH   8  11
HETATM   11  C7  UNL     1    -110.829-176.555 307.036  1.00  0.00     0.269 C
BRANCH  11  12
HETATM   12  C8  UNL     1    -110.332-175.589 306.074  1.00  0.00     0.250 C
HETATM   13  F2  UNL     1    -111.231-175.221 305.089  1.00  0.00    -0.254 F
ENDBRANCH  11  12
ENDBRANCH   8  11
BRANCH   8  14
HETATM   14  C9  UNL     1    -112.488-175.371 308.060  1.00  0.00     0.190 C
HETATM   15  C10 UNL     1    -113.745-176.018 307.686  1.00  0.00     0.033 C
HETATM   16  C11 UNL     1    -114.825-176.147 308.734  1.00  0.00     0.002 C
HETATM   17  C12 UNL     1    -115.887-175.050 308.633  1.00  0.00     0.000 C
HETATM   18  C13 UNL     1    -115.261-173.829 309.214  1.00  0.00     0.000 C
HETATM   19  C14 UNL     1    -113.944-173.465 308.587  1.00  0.00     0.002 C
HETATM   20  C15 UNL     1    -112.790-174.338 309.114  1.00  0.00     0.033 C
ENDBRANCH   8  14
TORSDOF 3
ENDMDL