MODEL 2
REMARK VINA RESULT: -7.130817912      3.272      4.943
REMARK  3 active torsions:
REMARK  status: ('A' for Active; 'I' for Inactive)
REMARK    1  A    between atoms: C1_2  and  C2_3
REMARK    2  A    between atoms: C2_3  and  C3_4
REMARK    3  A    between atoms: C3_4  and  C4_5
ROOT
HETATM    1  C4  UNL     1    -111.952-174.923 310.480  1.00  0.00    -0.006 C
HETATM    2  C5  UNL     1    -112.258-176.232 309.784  1.00  0.00    -0.008 C
HETATM    3  C6  UNL     1    -111.662-176.282 308.400  1.00  0.00     0.010 C
HETATM    4  C7  UNL     1    -112.262-175.190 307.565  1.00  0.00    -0.012 C
HETATM    5  C8  UNL     1    -111.934-173.872 308.201  1.00  0.00     0.010 C
HETATM    6  C9  UNL     1    -112.428-173.810 309.623  1.00  0.00    -0.008 C
HETATM    7  C10 UNL     1    -113.946-173.916 309.548  1.00  0.00     0.026 C
HETATM    8  C11 UNL     1    -114.321-175.232 308.862  1.00  0.00     0.019 C
HETATM    9 BR1  UNL     1    -116.230-175.360 308.762  1.00  0.00    -0.086 Br
HETATM   10  C12 UNL     1    -113.764-175.296 307.462  1.00  0.00     0.025 C
HETATM   11  C13 UNL     1    -113.757-176.394 309.637  1.00  0.00     0.026 C
ENDROOT
BRANCH   1  12
HETATM   12  C3  UNL     1    -110.517-174.868 310.873  1.00  0.00     0.007 C
BRANCH  12  13
HETATM   13  C2  UNL     1    -110.221-175.271 312.276  1.00  0.00     0.032 C
BRANCH  13  14
HETATM   14  C1  UNL     1    -109.694-176.713 312.221  1.00  0.00     0.222 C
HETATM   15  F1  UNL     1    -110.708-177.618 312.473  1.00  0.00    -0.255 F
ENDBRANCH  13  14
ENDBRANCH  12  13
ENDBRANCH   1  12
TORSDOF 3
ENDMDL