MODEL 1
REMARK VINA RESULT: -6.584529559      0.000      0.000
REMARK  6 active torsions:
REMARK  status: ('A' for Active; 'I' for Inactive)
REMARK    1  A    between atoms: C3_3  and  C4_4
REMARK    2  A    between atoms: C7_10  and  C8_11
REMARK    3  A    between atoms: C9_12  and  C10_13
REMARK    4  A    between atoms: C10_13  and  C11_14
REMARK    5  A    between atoms: C11_14  and  C12_15
REMARK    6  A    between atoms: C12_15  and  C13_16
ROOT
HETATM    1  C1  UNL     1    -110.461-175.569 305.446  1.00  0.00     0.112 C
HETATM    2  C2  UNL     1    -110.595-175.687 306.908  1.00  0.00    -0.105 C
HETATM    3  C3  UNL     1    -110.686-175.783 308.115  1.00  0.00    -0.063 C
ENDROOT
BRANCH   3   4
HETATM    4  C4  UNL     1    -110.779-175.875 309.546  1.00  0.00     0.071 A
HETATM    5  C5  UNL     1    -109.862-176.349 310.461  1.00  0.00     0.048 A
HETATM    6 BR1  UNL     1    -108.152-177.028 309.963  1.00  0.00    -0.048 Br
HETATM    7  C6  UNL     1    -110.394-176.240 311.737  1.00  0.00     0.109 A
HETATM    8  N1  UNL     1    -111.621-175.707 311.596  1.00  0.00    -0.356 N
HETATM    9  C7  UNL     1    -111.879-175.476 310.276  1.00  0.00     0.107 A
ATOM     10  H1  UNL     1    -112.264-175.505 312.363  1.00  0.00     0.166 HD
BRANCH   9  11
HETATM   11  C8  UNL     1    -113.083-174.913 309.724  1.00  0.00    -0.047 C
HETATM   12  C9  UNL     1    -114.101-174.460 309.264  1.00  0.00    -0.100 C
BRANCH  12  13
HETATM   13  C10 UNL     1    -115.360-173.906 308.705  1.00  0.00     0.094 C
BRANCH  13  14
HETATM   14  C11 UNL     1    -116.352-175.045 308.722  1.00  0.00     0.014 C
BRANCH  14  15
HETATM   15  C12 UNL     1    -117.588-174.759 307.913  1.00  0.00     0.032 C
BRANCH  15  16
HETATM   16  C13 UNL     1    -118.701-174.364 308.827  1.00  0.00     0.222 C
HETATM   17  F1  UNL     1    -118.321-174.721 310.119  1.00  0.00    -0.255 F
ENDBRANCH  15  16
ENDBRANCH  14  15
ENDBRANCH  13  14
ENDBRANCH  12  13
ENDBRANCH   9  11
ENDBRANCH   3   4
TORSDOF 6
ENDMDL