MODEL 5
REMARK VINA RESULT: -6.321343769      1.703      2.158
REMARK  4 active torsions:
REMARK  status: ('A' for Active; 'I' for Inactive)
REMARK    1  A    between atoms: C1_4  and  C2_6
REMARK    2  A    between atoms: C2_6  and  C3_7
REMARK    3  A    between atoms: C3_7  and  C4_8
REMARK    4  A    between atoms: C4_8  and  C5_9
ROOT
HETATM    1  C2  UNL     1    -113.321-175.581 308.920  1.00  0.00    -0.014 C
HETATM    2  C6  UNL     1    -112.555-176.297 309.723  1.00  0.00    -0.053 C
HETATM    3  C7  UNL     1    -112.581-177.357 310.747  1.00  0.00     0.041 C
HETATM    4  C8  UNL     1    -112.052-176.644 311.933  1.00  0.00     0.002 C
HETATM    5  C9  UNL     1    -111.021-175.946 311.401  1.00  0.00     0.017 C
HETATM    6 CL1  UNL     1    -109.915-174.863 312.214  1.00  0.00    -0.088 Cl
HETATM    7  C10 UNL     1    -111.074-176.335 309.976  1.00  0.00     0.061 C
HETATM    8  C11 UNL     1    -111.274-177.841 310.099  1.00  0.00     0.027 C
ENDROOT
BRANCH   1   9
HETATM    9  C1  UNL     1    -114.752-175.817 308.945  1.00  0.00     0.116 C
HETATM   10  N1  UNL     1    -115.222-177.006 308.785  1.00  0.00    -0.387 N
ATOM     11  H12 UNL     1    -116.228-177.172 308.802  1.00  0.00     0.157 HD
ATOM     12  H11 UNL     1    -114.535-177.746 308.648  1.00  0.00     0.157 HD
HETATM   13  N2  UNL     1    -115.710-174.786 309.137  1.00  0.00    -0.083 NA
ENDBRANCH   1   9
BRANCH   1  14
HETATM   14  C3  UNL     1    -112.686-174.589 308.036  1.00  0.00     0.043 C
BRANCH  14  15
HETATM   15  C4  UNL     1    -112.236-175.136 306.708  1.00  0.00     0.015 C
BRANCH  15  16
HETATM   16  C5  UNL     1    -110.708-175.104 306.640  1.00  0.00     0.085 C
HETATM   17 BR1  UNL     1    -110.220-175.698 304.866  1.00  0.00    -0.097 Br
ENDBRANCH  15  16
ENDBRANCH  14  15
ENDBRANCH   1  14
TORSDOF 4
ENDMDL