MODEL 1
REMARK VINA RESULT: -7.047288150      0.000      0.000
REMARK  3 active torsions:
REMARK  status: ('A' for Active; 'I' for Inactive)
REMARK    1  A    between atoms: C7_10  and  C8_11
REMARK    2  A    between atoms: C8_11  and  C9_12
REMARK    3  A    between atoms: C9_12  and  C10_13
ROOT
HETATM    1  F1  UNL     1    -109.622-176.051 311.938  1.00  0.00    -0.249 F
HETATM    2  C1  UNL     1    -110.888-176.053 311.376  1.00  0.00     0.174 C
HETATM    3  C2  UNL     1    -111.241-177.331 310.705  1.00  0.00     0.038 C
HETATM    4  C3  UNL     1    -110.137-177.967 309.915  1.00  0.00     0.009 C
HETATM    5  C4  UNL     1    -109.422-177.012 309.002  1.00  0.00     0.057 C
HETATM    6  C5  UNL     1    -110.451-176.142 308.393  1.00  0.00     0.016 A
HETATM    7  N1  UNL     1    -110.833-176.138 307.109  1.00  0.00    -0.368 N
ATOM      8  H1  UNL     1    -110.450-176.746 306.384  1.00  0.00     0.165 HD
HETATM    9  C6  UNL     1    -111.793-175.219 306.912  1.00  0.00     0.095 A
HETATM   10  C7  UNL     1    -112.019-174.617 308.144  1.00  0.00    -0.034 A
HETATM   11  C11 UNL     1    -111.184-175.190 309.067  1.00  0.00    -0.025 A
HETATM   12  C12 UNL     1    -111.133-174.814 310.516  1.00  0.00     0.078 C
ENDROOT
BRANCH  10  13
HETATM   13  C8  UNL     1    -112.990-173.532 308.418  1.00  0.00     0.041 C
BRANCH  13  14
HETATM   14  C9  UNL     1    -114.156-174.023 309.262  1.00  0.00     0.015 C
BRANCH  14  15
HETATM   15  C10 UNL     1    -114.972-174.988 308.399  1.00  0.00     0.085 C
HETATM   16 BR1  UNL     1    -114.806-176.786 309.119  1.00  0.00    -0.097 Br
ENDBRANCH  14  15
ENDBRANCH  13  14
ENDBRANCH  10  13
TORSDOF 3
ENDMDL