MODEL 3
REMARK VINA RESULT: -5.926303239      5.714      7.893
REMARK  5 active torsions:
REMARK  status: ('A' for Active; 'I' for Inactive)
REMARK    1  A    between atoms: C2_2  and  N1_4
REMARK    2  A    between atoms: N1_4  and  C5_6
REMARK    3  A    between atoms: C5_6  and  N2_8
REMARK    4  A    between atoms: N2_8  and  C6_10
REMARK    5  A    between atoms: C6_10  and  C7_11
ROOT
HETATM    1  N2  UNL     1    -117.611-175.223 308.065  1.00  0.00    -0.343 N
ATOM      2  H2  UNL     1    -117.321-175.820 307.291  1.00  0.00     0.167 HD
ENDROOT
BRANCH   1   3
HETATM    3  C5  UNL     1    -118.956-174.843 308.065  1.00  0.00     0.173 C
HETATM    4  S1  UNL     1    -119.613-174.469 309.558  1.00  0.00    -0.041 SA
BRANCH   3   5
HETATM    5  N1  UNL     1    -119.811-174.639 306.965  1.00  0.00    -0.358 N
HETATM    6  C4  UNL     1    -119.219-175.060 305.649  1.00  0.00     0.152 C
BRANCH   5   7
HETATM    7  C2  UNL     1    -121.099-174.074 306.850  1.00  0.00     0.078 C
HETATM    8  C1  UNL     1    -121.901-174.773 305.758  1.00  0.00     0.032 C
HETATM    9  C3  UNL     1    -121.284-172.613 306.790  1.00  0.00     0.032 C
ENDBRANCH   5   7
ENDBRANCH   3   5
ENDBRANCH   1   3
BRANCH   1  10
HETATM   10  C6  UNL     1    -116.602-174.893 308.991  1.00  0.00     0.097 C
BRANCH  10  11
HETATM   11  C7  UNL     1    -115.202-174.944 308.657  1.00  0.00    -0.046 C
HETATM   12  C8  UNL     1    -114.560-173.720 308.695  1.00  0.00    -0.017 C
HETATM   13  C9  UNL     1    -113.135-173.616 308.376  1.00  0.00     0.047 C
HETATM   14  C10 UNL     1    -112.275-174.745 308.809  1.00  0.00     0.086 C
HETATM   15 CL1  UNL     1    -111.225-175.200 307.443  1.00  0.00    -0.125 Cl
HETATM   16  C11 UNL     1    -113.090-175.908 309.242  1.00  0.00     0.025 C
HETATM   17  C12 UNL     1    -114.323-176.039 308.300  1.00  0.00     0.041 C
ENDBRANCH  10  11
ENDBRANCH   1  10
TORSDOF 5
ENDMDL