MODEL 2
REMARK VINA RESULT: -7.941735946      3.802      7.120
REMARK  7 active torsions:
REMARK  status: ('A' for Active; 'I' for Inactive)
REMARK    1  A    between atoms: C2_2  and  C3_3
REMARK    2  A    between atoms: C3_3  and  C4_4
REMARK    3  A    between atoms: C4_4  and  N1_5
REMARK       I    between atoms: N1_5  and  C5_7
REMARK    4  A    between atoms: C5_7  and  C6_9
REMARK    5  A    between atoms: C6_9  and  C7_10
REMARK       I    between atoms: C7_10  and  N2_12
REMARK    6  A    between atoms: N2_12  and  C8_14
REMARK    7  A    between atoms: C16_24  and  C17_25
ROOT
HETATM    1  C8  UNL     1      36.790 -17.756  -0.118  1.00  0.00     0.049 A
HETATM    2  C9  UNL     1      37.850 -17.246   0.602  1.00  0.00     0.055 A
HETATM    3  C10 UNL     1      39.048 -16.903   0.008  1.00  0.00     0.007 A
HETATM    4  C11 UNL     1      40.190 -16.350   0.813  1.00  0.00     0.068 C
HETATM    5  N3  UNL     1      39.229 -17.053  -1.308  1.00  0.00    -0.359 N
ATOM      6  H3  UNL     1      40.113 -16.800  -1.751  1.00  0.00     0.166 HD
HETATM    7  C12 UNL     1      38.201 -17.553  -2.036  1.00  0.00     0.045 A
HETATM    8  C13 UNL     1      38.366 -17.719  -3.420  1.00  0.00     0.037 A
HETATM    9  C14 UNL     1      37.345 -18.224  -4.198  1.00  0.00    -0.053 A
HETATM   10  C15 UNL     1      37.554 -18.387  -5.661  1.00  0.00     0.049 C
HETATM   11  C16 UNL     1      36.124 -18.586  -3.668  1.00  0.00    -0.052 A
HETATM   12  C19 UNL     1      35.980 -18.416  -2.306  1.00  0.00     0.023 A
HETATM   13  C20 UNL     1      37.000 -17.909  -1.505  1.00  0.00     0.018 A
ENDROOT
BRANCH   1  14
HETATM   14  N2  UNL     1      35.679 -18.099   0.296  1.00  0.00    -0.326 N
HETATM   15  C7  UNL     1      34.466 -17.569   0.542  1.00  0.00     0.231 C
HETATM   16  O2  UNL     1      33.558 -18.381   0.973  1.00  0.00    -0.273 OA
ATOM     17  H2  UNL     1      35.680 -19.092   0.524  1.00  0.00     0.169 HD
BRANCH  15  18
HETATM   18  C6  UNL     1      34.075 -16.169   0.370  1.00  0.00     0.205 C
BRANCH  18  19
HETATM   19  C5  UNL     1      32.989 -15.761   1.272  1.00  0.00     0.226 C
HETATM   20  N1  UNL     1      33.012 -16.193   2.625  1.00  0.00    -0.361 N
ATOM     21  H1  UNL     1      33.791 -16.777   2.928  1.00  0.00     0.162 HD
HETATM   22  O1  UNL     1      32.045 -15.048   0.894  1.00  0.00    -0.273 OA
BRANCH  20  23
HETATM   23  C4  UNL     1      32.006 -15.857   3.590  1.00  0.00     0.122 C
BRANCH  23  24
HETATM   24  C3  UNL     1      32.317 -14.631   4.405  1.00  0.00     0.019 C
BRANCH  24  25
HETATM   25  C2  UNL     1      31.100 -14.222   5.237  1.00  0.00    -0.003 C
HETATM   26  C1  UNL     1      31.308 -14.580   6.692  1.00  0.00     0.005 C
ENDBRANCH  24  25
ENDBRANCH  23  24
ENDBRANCH  20  23
ENDBRANCH  18  19
ENDBRANCH  15  18
ENDBRANCH   1  14
BRANCH  11  27
HETATM   27  C17 UNL     1      35.064 -19.117  -4.538  1.00  0.00     0.034 C
HETATM   28  C18 UNL     1      33.870 -19.627  -3.777  1.00  0.00     0.010 C
ENDBRANCH  11  27
TORSDOF 7
ENDMDL