MODEL 4
REMARK VINA RESULT: -7.368333286      4.194      7.493
REMARK  8 active torsions:
REMARK  status: ('A' for Active; 'I' for Inactive)
REMARK    1  A    between atoms: C2_2  and  C3_3
REMARK    2  A    between atoms: C3_3  and  N1_4
REMARK    3  A    between atoms: N1_4  and  C4_6
REMARK    4  A    between atoms: C4_6  and  N2_8
REMARK    5  A    between atoms: N2_8  and  N3_10
REMARK    6  A    between atoms: C5_12  and  C6_13
REMARK    7  A    between atoms: C10_17  and  C11_18
REMARK    8  A    between atoms: C11_18  and  C12_19
ROOT
HETATM    1  C6  UNL     1      35.888 -17.323  -0.465  1.00  0.00    -0.008 A
HETATM    2  C7  UNL     1      35.079 -16.473   0.296  1.00  0.00     0.021 A
HETATM    3  C8  UNL     1      33.726 -16.566   0.251  1.00  0.00    -0.054 A
HETATM    4  C9  UNL     1      32.933 -15.622   1.089  1.00  0.00     0.049 C
HETATM    5  C10 UNL     1      33.046 -17.476  -0.521  1.00  0.00    -0.040 A
HETATM    6  C14 UNL     1      33.853 -18.328  -1.281  1.00  0.00    -0.003 A
HETATM    7  C15 UNL     1      33.285 -19.268  -2.079  1.00  0.00     0.102 A
HETATM    8  N4  UNL     1      33.960 -20.147  -2.860  1.00  0.00    -0.370 N
HETATM    9  C16 UNL     1      33.240 -21.112  -3.676  1.00  0.00     0.154 C
HETATM   10  C17 UNL     1      35.287 -20.060  -2.819  1.00  0.00     0.090 A
HETATM   11  C18 UNL     1      35.962 -19.129  -2.031  1.00  0.00     0.030 A
HETATM   12  C19 UNL     1      35.258 -18.239  -1.242  1.00  0.00    -0.011 A
ENDROOT
BRANCH   1  13
HETATM   13  C5  UNL     1      37.317 -17.177  -0.377  1.00  0.00     0.119 C
HETATM   14  N3  UNL     1      37.995 -17.013   0.664  1.00  0.00    -0.309 N
ATOM     15  H3  UNL     1      37.505 -16.977   1.558  1.00  0.00     0.186 HD
BRANCH  14  16
HETATM   16  N2  UNL     1      39.401 -16.877   0.665  1.00  0.00    -0.277 N
ATOM     17  H2  UNL     1      39.999 -17.587   1.087  1.00  0.00     0.189 HD
BRANCH  16  18
HETATM   18  C4  UNL     1      39.952 -15.727   0.064  1.00  0.00     0.186 C
HETATM   19  S1  UNL     1      41.151 -15.897  -1.064  1.00  0.00    -0.040 SA
BRANCH  18  20
HETATM   20  N1  UNL     1      39.528 -14.424   0.376  1.00  0.00    -0.366 N
ATOM     21  H1  UNL     1      39.443 -14.165   1.359  1.00  0.00     0.161 HD
BRANCH  20  22
HETATM   22  C3  UNL     1      39.210 -13.445  -0.616  1.00  0.00     0.121 C
BRANCH  22  23
HETATM   23  C2  UNL     1      39.729 -12.058  -0.314  1.00  0.00     0.015 C
HETATM   24  C1  UNL     1      41.171 -11.988  -0.825  1.00  0.00     0.006 C
ENDBRANCH  22  23
ENDBRANCH  20  22
ENDBRANCH  18  20
ENDBRANCH  16  18
ENDBRANCH  14  16
ENDBRANCH   1  13
BRANCH   5  25
HETATM   25  C11 UNL     1      31.583 -17.594  -0.587  1.00  0.00     0.040 C
BRANCH  25  26
HETATM   26  C12 UNL     1      30.997 -18.739   0.195  1.00  0.00     0.000 C
HETATM   27  C13 UNL     1      30.926 -18.549   1.666  1.00  0.00     0.005 C
ENDBRANCH  25  26
ENDBRANCH   5  25
TORSDOF 8
ENDMDL