MODEL 4
REMARK VINA RESULT: -7.832929113      8.041     10.517
REMARK  6 active torsions:
REMARK  status: ('A' for Active; 'I' for Inactive)
REMARK       I    between atoms: N1_8  and  C8_9
REMARK    1  A    between atoms: C8_9  and  C9_11
REMARK    2  A    between atoms: C9_11  and  C10_12
REMARK    3  A    between atoms: C10_12  and  C11_13
REMARK    4  A    between atoms: C11_13  and  N2_14
REMARK       I    between atoms: N2_14  and  C12_16
REMARK       I    between atoms: C12_16  and  N3_18
REMARK    5  A    between atoms: N3_18  and  C13_20
REMARK    6  A    between atoms: C13_20  and  C14_21
ROOT
HETATM    1  C11 UNL     1      40.757 -17.626   0.123  1.00  0.00     0.125 C
ENDROOT
BRANCH   1   2
HETATM    2  C10 UNL     1      39.407 -17.970   0.660  1.00  0.00     0.029 C
BRANCH   2   3
HETATM    3  C9  UNL     1      38.287 -17.109   0.143  1.00  0.00     0.104 C
BRANCH   3   4
HETATM    4  C8  UNL     1      37.596 -17.643  -1.025  1.00  0.00     0.220 C
HETATM    5  N1  UNL     1      36.199 -17.932  -0.899  1.00  0.00    -0.347 N
HETATM    6  C2  UNL     1      35.349 -17.759   0.281  1.00  0.00     0.084 C
HETATM    7  C7  UNL     1      35.317 -18.460  -1.911  1.00  0.00     0.135 C
HETATM    8  C1  UNL     1      34.432 -16.583   0.077  1.00  0.00     0.032 C
HETATM    9  C3  UNL     1      34.604 -19.079   0.312  1.00  0.00     0.035 C
HETATM   10  C4  UNL     1      34.362 -19.354  -1.147  1.00  0.00    -0.030 C
HETATM   11  C5  UNL     1      34.704 -20.817  -1.389  1.00  0.00     0.016 C
HETATM   12  C6  UNL     1      32.936 -19.148  -1.556  1.00  0.00     0.016 C
HETATM   13  O1  UNL     1      38.134 -17.865  -2.131  1.00  0.00    -0.273 OA
ENDBRANCH   3   4
ENDBRANCH   2   3
ENDBRANCH   1   2
BRANCH   1  14
HETATM   14  N2  UNL     1      41.130 -16.257   0.372  1.00  0.00    -0.343 N
HETATM   15  C12 UNL     1      41.332 -15.288  -0.643  1.00  0.00     0.316 C
HETATM   16  O2  UNL     1      41.181 -15.602  -1.847  1.00  0.00    -0.247 OA
HETATM   17  N3  UNL     1      41.703 -13.949  -0.365  1.00  0.00    -0.343 N
ATOM     18  H3  UNL     1      41.829 -13.687   0.613  1.00  0.00     0.164 HD
ATOM     19  H2  UNL     1      41.256 -15.965   1.342  1.00  0.00     0.164 HD
BRANCH  17  20
HETATM   20  C13 UNL     1      41.915 -12.940  -1.355  1.00  0.00     0.129 C
BRANCH  20  21
HETATM   21  C14 UNL     1      40.751 -12.008  -1.504  1.00  0.00     0.004 C
HETATM   22  C15 UNL     1      40.217 -11.575  -0.123  1.00  0.00     0.011 C
HETATM   23  C16 UNL     1      39.859 -10.180  -0.455  1.00  0.00    -0.010 A
HETATM   24  C17 UNL     1      40.479  -8.934  -0.308  1.00  0.00     0.010 A
HETATM   25  C18 UNL     1      41.317  -9.839  -0.976  1.00  0.00    -0.010 A
HETATM   26  C19 UNL     1      41.191 -10.690  -2.177  1.00  0.00     0.011 C
ENDBRANCH  20  21
ENDBRANCH  17  20
ENDBRANCH   1  14
TORSDOF 6
ENDMDL