MODEL 4
REMARK VINA RESULT: -7.789744133      0.850      1.961
REMARK  8 active torsions:
REMARK  status: ('A' for Active; 'I' for Inactive)
REMARK    1  A    between atoms: N1_1  and  C1_5
REMARK    2  A    between atoms: C1_5  and  C2_6
REMARK    3  A    between atoms: C1_5  and  C9_14
REMARK    4  A    between atoms: C2_6  and  C3_7
REMARK    5  A    between atoms: C3_7  and  C4_8
REMARK    6  A    between atoms: C4_8  and  N2_9
REMARK    7  A    between atoms: C9_14  and  N3_16
REMARK    8  A    between atoms: N3_16  and  C10_18
ROOT
HETATM    1  C9  UNL     1      34.976 -18.830  -0.741  1.00  0.00     0.104 C
HETATM    2  S1  UNL     1      34.809 -20.223  -1.558  1.00  0.00    -0.063 SA
ENDROOT
BRANCH   1   3
HETATM    3  C1  UNL     1      33.889 -17.825  -0.669  1.00  0.00     0.244 C
BRANCH   3   4
HETATM    4  N1  UNL     1      32.631 -18.307  -1.231  1.00  0.00    -0.069 N
ATOM      5  H13 UNL     1      32.308 -19.153  -0.762  1.00  0.00     0.275 HD
ATOM      6  H12 UNL     1      31.852 -17.692  -0.995  1.00  0.00     0.275 HD
ATOM      7  H11 UNL     1      32.711 -18.442  -2.239  1.00  0.00     0.275 HD
ENDBRANCH   3   4
BRANCH   3   8
HETATM    8  C2  UNL     1      33.668 -17.191   0.651  1.00  0.00     0.042 C
BRANCH   8   9
HETATM    9  C3  UNL     1      33.466 -15.720   0.682  1.00  0.00     0.033 C
BRANCH   9  10
HETATM   10  C4  UNL     1      32.159 -15.330   1.345  1.00  0.00     0.272 C
BRANCH  10  11
HETATM   11  N2  UNL     1      32.072 -15.659   2.727  1.00  0.00     0.088 N
HETATM   12  C5  UNL     1      30.760 -15.644   3.285  1.00  0.00     0.272 C
HETATM   13  C6  UNL     1      30.862 -15.061   4.676  1.00  0.00     0.032 C
HETATM   14  C7  UNL     1      32.282 -14.645   4.866  1.00  0.00     0.032 C
HETATM   15  C8  UNL     1      32.891 -14.759   3.509  1.00  0.00     0.272 C
ENDBRANCH  10  11
ENDBRANCH   9  10
ENDBRANCH   8   9
ENDBRANCH   3   8
ENDBRANCH   1   3
BRANCH   1  16
HETATM   16  N3  UNL     1      36.187 -18.571  -0.070  1.00  0.00    -0.373 N
ATOM     17  H3  UNL     1      36.247 -18.950   0.875  1.00  0.00     0.161 HD
BRANCH  16  18
HETATM   18  C10 UNL     1      37.341 -17.859  -0.506  1.00  0.00     0.032 C
HETATM   19  C11 UNL     1      37.099 -16.356  -0.211  1.00  0.00     0.035 C
HETATM   20  C12 UNL     1      38.319 -15.551  -0.496  1.00  0.00    -0.012 C
HETATM   21  C13 UNL     1      39.475 -16.007   0.327  1.00  0.00     0.009 C
HETATM   22  C17 UNL     1      38.628 -15.688  -1.971  1.00  0.00     0.009 C
HETATM   23  C14 UNL     1      39.772 -17.459  -0.013  1.00  0.00    -0.012 C
HETATM   24  C15 UNL     1      40.120 -17.549  -1.462  1.00  0.00     0.009 C
HETATM   25  C19 UNL     1      38.524 -18.242   0.349  1.00  0.00     0.035 C
HETATM   26  C16 UNL     1      38.914 -17.143  -2.262  1.00  0.00    -0.012 C
HETATM   27  C18 UNL     1      37.704 -18.002  -1.943  1.00  0.00     0.035 C
ENDBRANCH  16  18
ENDBRANCH   1  16
TORSDOF 8
ENDMDL