MODEL 1
REMARK VINA RESULT: -7.972159776      0.000      0.000
REMARK  9 active torsions:
REMARK  status: ('A' for Active; 'I' for Inactive)
REMARK    1  A    between atoms: C2_2  and  C3_3
REMARK    2  A    between atoms: C3_3  and  C4_4
REMARK    3  A    between atoms: C4_4  and  C5_5
REMARK    4  A    between atoms: C5_5  and  N1_6
REMARK    5  A    between atoms: C5_5  and  N4_20
REMARK       I    between atoms: N1_6  and  C6_8
REMARK    6  A    between atoms: C6_8  and  C7_10
REMARK    7  A    between atoms: C7_10  and  C8_11
REMARK    8  A    between atoms: C8_11  and  C9_12
REMARK    9  A    between atoms: N4_20  and  C13_22
ROOT
HETATM    1  C5  UNL     1      34.481 -17.292  -0.031  1.00  0.00     0.085 C
ENDROOT
BRANCH   1   2
HETATM    2  C4  UNL     1      33.414 -18.101  -0.724  1.00  0.00     0.076 C
BRANCH   2   3
HETATM    3  C3  UNL     1      33.291 -19.403  -0.005  1.00  0.00     0.007 C
BRANCH   3   4
HETATM    4  C2  UNL     1      32.438 -19.338   1.220  1.00  0.00    -0.004 C
HETATM    5  C1  UNL     1      31.103 -18.708   0.991  1.00  0.00     0.005 C
ENDBRANCH   3   4
ENDBRANCH   2   3
ENDBRANCH   1   2
BRANCH   1   6
HETATM    6  N1  UNL     1      34.168 -16.112   0.300  1.00  0.00    -0.317 N
HETATM    7  C6  UNL     1      33.250 -15.692   1.276  1.00  0.00     0.223 C
HETATM    8  O1  UNL     1      32.316 -14.929   0.864  1.00  0.00    -0.273 OA
ATOM      9  H1  UNL     1      34.644 -15.367  -0.210  1.00  0.00     0.170 HD
BRANCH   7  10
HETATM   10  C7  UNL     1      33.276 -16.047   2.691  1.00  0.00     0.109 C
BRANCH  10  11
HETATM   11  C8  UNL     1      32.777 -14.895   3.538  1.00  0.00     0.068 C
BRANCH  11  12
HETATM   12  C9  UNL     1      31.396 -15.206   4.028  1.00  0.00     0.033 A
HETATM   13  N2  UNL     1      30.410 -15.803   3.296  1.00  0.00    -0.354 N
HETATM   14  C10 UNL     1      29.342 -15.895   4.100  1.00  0.00     0.180 A
ATOM     15  H2  UNL     1      30.474 -16.116   2.327  1.00  0.00     0.166 HD
HETATM   16  N3  UNL     1      29.596 -15.388   5.314  1.00  0.00    -0.354 N
HETATM   17  C11 UNL     1      30.882 -14.954   5.275  1.00  0.00     0.029 A
ATOM     18  H3  UNL     1      28.955 -15.338   6.105  1.00  0.00     0.166 HD
HETATM   19  C12 UNL     1      31.598 -14.311   6.418  1.00  0.00     0.070 C
ENDBRANCH  11  12
ENDBRANCH  10  11
ENDBRANCH   7  10
ENDBRANCH   1   6
BRANCH   1  20
HETATM   20  N4  UNL     1      35.707 -17.927   0.176  1.00  0.00    -0.332 N
ATOM     21  H4  UNL     1      35.743 -18.554   0.980  1.00  0.00     0.168 HD
BRANCH  20  22
HETATM   22  C13 UNL     1      36.781 -17.839  -0.486  1.00  0.00     0.107 A
HETATM   23  C14 UNL     1      37.972 -17.927   0.243  1.00  0.00     0.055 A
HETATM   24  C15 UNL     1      39.204 -17.844  -0.370  1.00  0.00    -0.057 A
HETATM   25  C16 UNL     1      40.475 -17.942   0.436  1.00  0.00     0.048 C
HETATM   26  C17 UNL     1      39.234 -17.671  -1.737  1.00  0.00     0.031 A
HETATM   27  C18 UNL     1      38.074 -17.583  -2.468  1.00  0.00     0.007 A
HETATM   28  C19 UNL     1      38.089 -17.395  -3.949  1.00  0.00     0.068 C
HETATM   29  N5  UNL     1      36.903 -17.672  -1.804  1.00  0.00    -0.346 N
ATOM     30  H5  UNL     1      36.045 -17.607  -2.353  1.00  0.00     0.167 HD
ENDBRANCH  20  22
ENDBRANCH   1  20
TORSDOF 9
ENDMDL