MODEL 1
REMARK VINA RESULT: -8.686073554      0.000      0.000
REMARK  6 active torsions:
REMARK  status: ('A' for Active; 'I' for Inactive)
REMARK       I    between atoms: C1_2  and  N1_3
REMARK       I    between atoms: C1_2  and  N3_15
REMARK    1  A    between atoms: N1_3  and  C2_5
REMARK    2  A    between atoms: C2_5  and  C3_6
REMARK    3  A    between atoms: C3_6  and  C4_7
REMARK    4  A    between atoms: C4_7  and  C5_8
REMARK    5  A    between atoms: C5_8  and  N2_9
REMARK    6  A    between atoms: N3_15  and  C10_17
ROOT
HETATM    1  O1  UNL     1      35.720 -17.245   0.694  1.00  0.00    -0.247 OA
HETATM    2  C1  UNL     1      35.664 -17.607  -0.511  1.00  0.00     0.316 C
HETATM    3  N1  UNL     1      34.404 -18.032  -1.011  1.00  0.00    -0.343 N
ATOM      4  H1  UNL     1      34.311 -18.334  -1.981  1.00  0.00     0.164 HD
HETATM    5  N3  UNL     1      36.805 -17.600  -1.360  1.00  0.00    -0.334 N
ATOM      6  H3  UNL     1      36.689 -17.905  -2.327  1.00  0.00     0.165 HD
ENDROOT
BRANCH   3   7
HETATM    7  C2  UNL     1      33.271 -18.033  -0.148  1.00  0.00     0.124 C
BRANCH   7   8
HETATM    8  C3  UNL     1      32.354 -16.893  -0.151  1.00  0.00     0.021 C
BRANCH   8   9
HETATM    9  C4  UNL     1      32.804 -15.680   0.576  1.00  0.00     0.021 C
BRANCH   9  10
HETATM   10  C5  UNL     1      31.764 -15.026   1.388  1.00  0.00     0.126 C
BRANCH  10  11
HETATM   11  N2  UNL     1      31.875 -15.448   2.813  1.00  0.00    -0.352 N
HETATM   12  C6  UNL     1      32.973 -16.181   3.403  1.00  0.00     0.126 C
HETATM   13  C7  UNL     1      33.013 -15.653   4.820  1.00  0.00     0.029 C
HETATM   14  C8  UNL     1      31.616 -15.219   5.155  1.00  0.00     0.104 C
HETATM   15  C9  UNL     1      30.935 -15.214   3.850  1.00  0.00     0.219 C
HETATM   16  O2  UNL     1      29.695 -15.034   3.618  1.00  0.00    -0.273 OA
ENDBRANCH  10  11
ENDBRANCH   9  10
ENDBRANCH   8   9
ENDBRANCH   7   8
ENDBRANCH   3   7
BRANCH   5  17
HETATM   17  C10 UNL     1      38.105 -17.188  -0.932  1.00  0.00     0.035 C
HETATM   18  C11 UNL     1      38.163 -15.736  -0.540  1.00  0.00     0.035 C
HETATM   19  C12 UNL     1      39.529 -15.401   0.028  1.00  0.00    -0.012 C
HETATM   20  C13 UNL     1      40.528 -15.610  -1.086  1.00  0.00     0.009 C
HETATM   21  C17 UNL     1      39.790 -16.255   1.228  1.00  0.00     0.009 C
HETATM   22  C14 UNL     1      40.519 -17.063  -1.485  1.00  0.00    -0.012 C
HETATM   23  C15 UNL     1      40.915 -17.900  -0.305  1.00  0.00     0.009 C
HETATM   24  C19 UNL     1      39.155 -17.406  -2.028  1.00  0.00     0.035 C
HETATM   25  C16 UNL     1      39.871 -17.701   0.778  1.00  0.00    -0.012 C
HETATM   26  C18 UNL     1      38.542 -18.085   0.228  1.00  0.00     0.035 C
ENDBRANCH   5  17
TORSDOF 6
ENDMDL