MODEL 4
REMARK VINA RESULT: -7.585852100      4.505     10.404
REMARK  6 active torsions:
REMARK  status: ('A' for Active; 'I' for Inactive)
REMARK    1  A    between atoms: C2_2  and  C4_4
REMARK    2  A    between atoms: C4_4  and  C5_5
REMARK    3  A    between atoms: C5_5  and  C6_6
REMARK    4  A    between atoms: C6_6  and  N1_7
REMARK       I    between atoms: N1_7  and  C7_9
REMARK       I    between atoms: C7_9  and  N3_13
REMARK    5  A    between atoms: N4_21  and  C15_22
REMARK    6  A    between atoms: C15_22  and  C16_23
ROOT
HETATM    1  N1  UNL     1      37.053 -18.051  -1.786  1.00  0.00    -0.226 N
ATOM      2  H1  UNL     1      37.322 -18.005  -2.769  1.00  0.00     0.177 HD
HETATM    3  C7  UNL     1      37.655 -17.159  -0.875  1.00  0.00     0.673 C
HETATM    4  N2  UNL     1      37.240 -17.079   0.337  1.00  0.00    -0.235 N
ATOM      5  H21 UNL     1      37.676 -16.434   0.996  1.00  0.00     0.174 HD
ATOM      6  H22 UNL     1      36.466 -17.674   0.632  1.00  0.00     0.174 HD
HETATM    7  N3  UNL     1      38.731 -16.333  -1.285  1.00  0.00    -0.194 N
HETATM    8  C8  UNL     1      40.031 -16.571  -0.763  1.00  0.00     0.106 C
HETATM    9  C9  UNL     1      40.995 -15.675  -0.906  1.00  0.00     0.010 C
HETATM   10  C10 UNL     1      40.699 -14.428  -1.613  1.00  0.00     0.063 C
HETATM   11  C11 UNL     1      39.680 -14.587  -2.720  1.00  0.00     0.044 C
HETATM   12  C12 UNL     1      38.447 -15.272  -2.230  1.00  0.00     0.148 C
HETATM   13  C13 UNL     1      41.978 -13.890  -2.188  1.00  0.00     0.043 C
HETATM   14  C14 UNL     1      42.542 -13.098  -1.025  1.00  0.00     0.127 C
HETATM   15  N4  UNL     1      41.366 -12.376  -0.567  1.00  0.00    -0.351 N
HETATM   16  C19 UNL     1      40.289 -13.328  -0.701  1.00  0.00     0.232 C
HETATM   17  O1  UNL     1      39.161 -13.266  -0.143  1.00  0.00    -0.272 OA
ENDROOT
BRANCH   1  18
HETATM   18  C6  UNL     1      36.063 -19.035  -1.375  1.00  0.00     0.138 C
BRANCH  18  19
HETATM   19  C5  UNL     1      34.663 -18.517  -1.536  1.00  0.00     0.020 C
BRANCH  19  20
HETATM   20  C4  UNL     1      33.966 -18.326  -0.208  1.00  0.00     0.005 C
BRANCH  20  21
HETATM   21  C2  UNL     1      33.533 -16.916   0.026  1.00  0.00    -0.023 C
HETATM   22  C1  UNL     1      32.013 -16.881  -0.102  1.00  0.00     0.009 C
HETATM   23  C3  UNL     1      33.863 -16.537   1.459  1.00  0.00     0.009 C
ENDBRANCH  20  21
ENDBRANCH  19  20
ENDBRANCH  18  19
ENDBRANCH   1  18
BRANCH  15  24
HETATM   24  C15 UNL     1      41.211 -11.043  -0.079  1.00  0.00     0.129 C
BRANCH  24  25
HETATM   25  C16 UNL     1      40.430 -10.153  -1.006  1.00  0.00    -0.005 C
HETATM   26  C17 UNL     1      40.177  -8.799  -0.368  1.00  0.00     0.011 C
HETATM   27  C18 UNL     1      41.276  -9.914  -2.260  1.00  0.00     0.011 C
ENDBRANCH  24  25
ENDBRANCH  15  24
TORSDOF 6
ENDMDL