MODEL 2
REMARK VINA RESULT: -7.652338068      0.072      1.702
REMARK  6 active torsions:
REMARK  status: ('A' for Active; 'I' for Inactive)
REMARK    1  A    between atoms: C2_2  and  N1_3
REMARK    2  A    between atoms: N2_6  and  C5_7
REMARK    3  A    between atoms: C5_7  and  C6_8
REMARK    4  A    between atoms: C6_8  and  C7_9
REMARK    5  A    between atoms: C7_9  and  N3_10
REMARK       I    between atoms: N3_10  and  C8_12
REMARK       I    between atoms: C8_12  and  N5_16
REMARK    6  A    between atoms: N5_16  and  C10_18
ROOT
HETATM    1  N3  UNL     1      30.156 -15.635   3.260  1.00  0.00    -0.226 N
ATOM      2  H3  UNL     1      29.621 -16.088   2.520  1.00  0.00     0.177 HD
HETATM    3  C8  UNL     1      31.461 -15.222   2.970  1.00  0.00     0.673 C
HETATM    4  N4  UNL     1      32.386 -15.113   3.804  1.00  0.00    -0.231 N
ATOM      5  H4  UNL     1      33.263 -14.798   3.389  1.00  0.00     0.177 HD
HETATM    6  C9  UNL     1      32.479 -15.332   5.194  1.00  0.00     0.165 C
HETATM    7  N5  UNL     1      31.764 -14.890   1.594  1.00  0.00    -0.192 N
ATOM      8  H5  UNL     1      31.505 -13.986   1.200  1.00  0.00     0.184 HD
ENDROOT
BRANCH   1   9
HETATM    9  C7  UNL     1      29.523 -15.457   4.546  1.00  0.00     0.139 C
BRANCH   9  10
HETATM   10  C6  UNL     1      28.093 -16.026   4.474  1.00  0.00     0.040 C
BRANCH  10  11
HETATM   11  C5  UNL     1      27.989 -16.873   3.234  1.00  0.00     0.129 C
BRANCH  11  12
HETATM   12  N2  UNL     1      27.988 -18.283   3.533  1.00  0.00    -0.333 N
HETATM   13  C4  UNL     1      26.959 -19.102   4.116  1.00  0.00     0.147 C
HETATM   14  C3  UNL     1      27.734 -20.212   4.781  1.00  0.00     0.147 C
HETATM   15  N1  UNL     1      28.793 -20.418   3.781  1.00  0.00    -0.333 N
HETATM   16  C19 UNL     1      29.108 -19.128   3.264  1.00  0.00     0.320 C
HETATM   17  O1  UNL     1      30.181 -18.800   2.678  1.00  0.00    -0.247 OA
BRANCH  15  18
HETATM   18  C2  UNL     1      29.405 -21.652   3.384  1.00  0.00     0.123 C
HETATM   19  C1  UNL     1      30.592 -21.992   4.283  1.00  0.00     0.026 C
ENDBRANCH  15  18
ENDBRANCH  11  12
ENDBRANCH  10  11
ENDBRANCH   9  10
ENDBRANCH   1   9
BRANCH   7  20
HETATM   20  C10 UNL     1      32.433 -15.862   0.816  1.00  0.00     0.050 A
HETATM   21  C11 UNL     1      33.818 -15.908   0.742  1.00  0.00     0.037 A
HETATM   22  C12 UNL     1      34.479 -16.856  -0.017  1.00  0.00    -0.053 A
HETATM   23  C13 UNL     1      35.960 -16.920  -0.107  1.00  0.00     0.049 C
HETATM   24  C14 UNL     1      33.714 -17.775  -0.716  1.00  0.00    -0.050 A
HETATM   25  C15 UNL     1      34.405 -18.788  -1.527  1.00  0.00     0.049 C
HETATM   26  C16 UNL     1      32.337 -17.775  -0.680  1.00  0.00    -0.053 A
HETATM   27  C17 UNL     1      31.546 -18.776  -1.441  1.00  0.00     0.049 C
HETATM   28  C18 UNL     1      31.731 -16.802   0.099  1.00  0.00     0.037 A
ENDBRANCH   7  20
TORSDOF 6
ENDMDL