MODEL 1
REMARK VINA RESULT: -7.591633092      0.000      0.000
REMARK  9 active torsions:
REMARK  status: ('A' for Active; 'I' for Inactive)
REMARK    1  A    between atoms: C2_2  and  C3_3
REMARK    2  A    between atoms: C3_3  and  C4_4
REMARK    3  A    between atoms: C4_4  and  N1_5
REMARK       I    between atoms: N1_5  and  C5_7
REMARK       I    between atoms: C5_7  and  N2_9
REMARK    4  A    between atoms: N3_12  and  C8_13
REMARK    5  A    between atoms: C8_13  and  O2_14
REMARK    6  A    between atoms: C8_13  and  N4_16
REMARK    7  A    between atoms: N4_16  and  C9_18
REMARK    8  A    between atoms: C9_18  and  C10_19
REMARK    9  A    between atoms: C10_19  and  C11_20
ROOT
HETATM    1  N1  UNL     1      40.708 -13.483  -2.685  1.00  0.00    -0.343 N
ATOM      2  H1  UNL     1      40.364 -13.665  -3.628  1.00  0.00     0.164 HD
HETATM    3  C5  UNL     1      40.111 -14.189  -1.617  1.00  0.00     0.318 C
HETATM    4  O1  UNL     1      40.515 -13.980  -0.444  1.00  0.00    -0.247 OA
HETATM    5  N2  UNL     1      39.056 -15.143  -1.811  1.00  0.00    -0.330 N
HETATM    6  C6  UNL     1      38.493 -15.494  -3.067  1.00  0.00     0.147 C
HETATM    7  C7  UNL     1      38.187 -16.958  -3.269  1.00  0.00     0.147 C
HETATM    8  N3  UNL     1      37.767 -17.566  -1.979  1.00  0.00    -0.335 N
HETATM    9  C14 UNL     1      38.650 -17.295  -0.923  1.00  0.00     0.052 C
HETATM   10  C15 UNL     1      38.887 -18.168   0.225  1.00  0.00     0.033 C
HETATM   11  C16 UNL     1      40.372 -17.776   0.146  1.00  0.00     0.005 C
HETATM   12  C17 UNL     1      40.110 -17.624  -1.349  1.00  0.00     0.033 C
HETATM   13  C18 UNL     1      38.509 -15.807  -0.610  1.00  0.00     0.158 C
ENDROOT
BRANCH   8  14
HETATM   14  C8  UNL     1      36.587 -18.311  -1.932  1.00  0.00     0.215 C
BRANCH  14  15
HETATM   15  O2  UNL     1      36.230 -18.850  -3.060  1.00  0.00    -0.333 OA
ATOM     16  H2  UNL     1      35.335 -19.167  -3.090  1.00  0.00     0.220 HD
ENDBRANCH  14  15
BRANCH  14  17
HETATM   17  N4  UNL     1      35.769 -18.527  -0.805  1.00  0.00    -0.356 N
ATOM     18  H4  UNL     1      36.092 -19.158  -0.072  1.00  0.00     0.163 HD
BRANCH  17  19
HETATM   19  C9  UNL     1      34.493 -17.886  -0.658  1.00  0.00     0.123 C
BRANCH  19  20
HETATM   20  C10 UNL     1      34.600 -16.723   0.291  1.00  0.00     0.023 C
BRANCH  20  21
HETATM   21  C11 UNL     1      33.248 -15.983   0.339  1.00  0.00    -0.021 C
HETATM   22  C12 UNL     1      33.036 -15.381   1.692  1.00  0.00     0.009 C
HETATM   23  C13 UNL     1      32.197 -16.969  -0.064  1.00  0.00     0.009 C
ENDBRANCH  20  21
ENDBRANCH  19  20
ENDBRANCH  17  19
ENDBRANCH  14  17
ENDBRANCH   8  14
BRANCH   1  24
HETATM   24  C4  UNL     1      41.762 -12.533  -2.530  1.00  0.00     0.124 C
BRANCH  24  25
HETATM   25  C3  UNL     1      41.243 -11.116  -2.479  1.00  0.00     0.019 C
BRANCH  25  26
HETATM   26  C2  UNL     1      41.273 -10.593  -1.054  1.00  0.00    -0.003 C
HETATM   27  C1  UNL     1      39.878 -10.493  -0.475  1.00  0.00     0.005 C
ENDBRANCH  25  26
ENDBRANCH  24  25
ENDBRANCH   1  24
TORSDOF 9
ENDMDL