MODEL 4
REMARK VINA RESULT: -7.468299430      1.654      2.351
REMARK  9 active torsions:
REMARK  status: ('A' for Active; 'I' for Inactive)
REMARK    1  A    between atoms: C7_7  and  C8_8
REMARK    2  A    between atoms: C8_8  and  O2_10
REMARK    3  A    between atoms: O2_10  and  C9_11
REMARK    4  A    between atoms: C9_11  and  C10_12
REMARK    5  A    between atoms: C10_12  and  C11_13
REMARK    6  A    between atoms: C11_13  and  O3_14
REMARK    7  A    between atoms: C13_19  and  N1_20
REMARK    8  A    between atoms: N1_20  and  C15_22
REMARK    9  A    between atoms: N2_27  and  O6_28
ROOT
HETATM    1  C10 UNL     1      20.275  -0.728  10.104  1.00  0.00     0.123 C
HETATM    2  O4  UNL     1      19.876   0.428   9.340  1.00  0.00    -0.303 OA
HETATM    3  C12 UNL     1      21.088   1.103   9.135  1.00  0.00     0.283 C
HETATM    4  O5  UNL     1      21.362   2.327   9.329  1.00  0.00    -0.263 OA
HETATM    5  C13 UNL     1      21.965  -0.002   8.631  1.00  0.00     0.190 C
HETATM    6  C24 UNL     1      21.617  -1.120   9.514  1.00  0.00     0.018 C
HETATM    7  C25 UNL     1      22.520  -1.446  10.648  1.00  0.00     0.021 C
HETATM    8  C26 UNL     1      21.512  -2.394   8.680  1.00  0.00     0.021 C
ENDROOT
BRANCH   1   9
HETATM    9  C9  UNL     1      20.424  -0.192  11.514  1.00  0.00     0.220 C
BRANCH   9  10
HETATM   10  O2  UNL     1      19.596  -1.019  12.358  1.00  0.00    -0.314 OA
BRANCH  10  11
HETATM   11  C8  UNL     1      19.804  -1.115  13.702  1.00  0.00     0.293 C
HETATM   12  O1  UNL     1      21.032  -1.073  14.061  1.00  0.00    -0.259 OA
BRANCH  11  13
HETATM   13  C7  UNL     1      18.811  -1.256  14.747  1.00  0.00     0.045 A
HETATM   14  C2  UNL     1      17.580  -0.662  14.657  1.00  0.00    -0.046 A
HETATM   15  C1  UNL     1      17.258   0.147  13.461  1.00  0.00     0.049 C
HETATM   16  C3  UNL     1      16.648  -0.826  15.689  1.00  0.00     0.008 A
HETATM   17  C4  UNL     1      16.929  -1.576  16.812  1.00  0.00     0.001 A
HETATM   18  C5  UNL     1      18.162  -2.170  16.903  1.00  0.00     0.001 A
HETATM   19  C6  UNL     1      19.079  -2.014  15.895  1.00  0.00     0.018 A
ENDBRANCH  11  13
ENDBRANCH  10  11
ENDBRANCH   9  10
ENDBRANCH   1   9
BRANCH   1  20
HETATM   20  C11 UNL     1      19.272  -1.817  10.071  1.00  0.00     0.205 C
BRANCH  20  21
HETATM   21  O3  UNL     1      18.002  -1.244  10.049  1.00  0.00    -0.398 OA
ATOM     22  H3  UNL     1      17.405  -1.823  10.507  1.00  0.00     0.209 HD
ENDBRANCH  20  21
ENDBRANCH   1  20
BRANCH   5  23
HETATM   23  N1  UNL     1      23.236   0.423   8.394  1.00  0.00    -0.399 N
HETATM   24  C14 UNL     1      24.019   1.119   9.314  1.00  0.00     0.144 C
BRANCH  23  25
HETATM   25  C15 UNL     1      23.735   0.580   7.069  1.00  0.00     0.083 C
HETATM   26  C16 UNL     1      24.011  -0.713   6.354  1.00  0.00     0.051 C
HETATM   27  C17 UNL     1      24.904  -0.414   5.169  1.00  0.00     0.034 C
HETATM   28  C18 UNL     1      24.882  -1.701   4.321  1.00  0.00     0.034 C
HETATM   29  C19 UNL     1      26.348  -0.235   5.580  1.00  0.00     0.034 C
HETATM   30  N2  UNL     1      24.400   0.615   4.327  1.00  0.00    -0.182 NA
HETATM   31  C20 UNL     1      23.858   1.754   4.946  1.00  0.00     0.034 C
HETATM   32  C21 UNL     1      24.876   2.794   5.367  1.00  0.00     0.034 C
HETATM   33  C22 UNL     1      22.946   2.456   3.931  1.00  0.00     0.034 C
HETATM   34  C23 UNL     1      22.954   1.462   6.154  1.00  0.00     0.051 C
BRANCH  30  35
HETATM   35  O6  UNL     1      23.639   0.161   3.301  1.00  0.00    -0.312 OA
ATOM     36  H6  UNL     1      23.008   0.794   2.980  1.00  0.00     0.237 HD
ENDBRANCH  30  35
ENDBRANCH  23  25
ENDBRANCH   5  23
TORSDOF 9
ENDMDL