MODEL 1
REMARK VINA RESULT: -9.433355918      0.000      0.000
REMARK  5 active torsions:
REMARK  status: ('A' for Active; 'I' for Inactive)
REMARK    1  A    between atoms: C3_5  and  C4_6
REMARK       I    between atoms: N2_9  and  C7_10
REMARK    2  A    between atoms: C7_10  and  C8_12
REMARK    3  A    between atoms: C12_16  and  N3_17
REMARK    4  A    between atoms: C16_21  and  C17_22
REMARK    5  A    between atoms: C16_21  and  N5_25
ROOT
HETATM    1  C17 UNL     1      21.001   2.028  11.035  1.00  0.00     0.162 C
HETATM    2  C18 UNL     1      21.630   2.819  12.035  1.00  0.00     0.062 C
HETATM    3  N4  UNL     1      22.117   3.479  12.852  1.00  0.00    -0.197 NA
ENDROOT
BRANCH   1   4
HETATM    4  C16 UNL     1      21.499   0.611  10.942  1.00  0.00     0.099 C
HETATM    5  C15 UNL     1      22.716   0.440  10.109  1.00  0.00     0.045 C
HETATM    6  C14 UNL     1      23.974   0.606  10.865  1.00  0.00     0.047 C
HETATM    7  C13 UNL     1      23.985   0.155  12.283  1.00  0.00     0.063 C
HETATM    8  N3  UNL     1      22.832  -0.532  12.698  1.00  0.00    -0.367 N
HETATM    9  C21 UNL     1      21.583  -0.079  12.250  1.00  0.00     0.097 C
BRANCH   8  10
HETATM   10  C12 UNL     1      22.792  -0.979  14.035  1.00  0.00     0.089 C
HETATM   11  C11 UNL     1      23.733  -2.165  14.194  1.00  0.00     0.026 C
HETATM   12  C10 UNL     1      24.205  -2.147  15.622  1.00  0.00     0.003 C
HETATM   13  C9  UNL     1      23.004  -1.811  16.495  1.00  0.00     0.014 C
HETATM   14  C8  UNL     1      21.691  -2.185  15.855  1.00  0.00     0.080 C
HETATM   15  C22 UNL     1      21.458  -1.418  14.543  1.00  0.00     0.039 C
BRANCH  14  16
HETATM   16  C7  UNL     1      20.597  -1.925  16.805  1.00  0.00     0.224 C
HETATM   17  N2  UNL     1      19.250  -1.789  16.448  1.00  0.00    -0.352 N
HETATM   18  C6  UNL     1      18.206  -1.550  17.455  1.00  0.00     0.126 C
HETATM   19  C23 UNL     1      18.797  -1.855  15.087  1.00  0.00     0.126 C
HETATM   20  C5  UNL     1      16.894  -1.921  16.841  1.00  0.00     0.030 C
HETATM   21  C4  UNL     1      16.598  -0.849  15.784  1.00  0.00     0.040 C
HETATM   22  C24 UNL     1      17.728  -0.814  14.790  1.00  0.00     0.030 C
HETATM   23  O1  UNL     1      20.900  -1.820  18.042  1.00  0.00    -0.273 OA
BRANCH  21  24
HETATM   24  C3  UNL     1      15.275  -1.085  15.160  1.00  0.00     0.030 A
HETATM   25  N1  UNL     1      14.851  -0.661  13.961  1.00  0.00    -0.348 N
HETATM   26  C2  UNL     1      13.595  -1.097  13.795  1.00  0.00     0.077 A
ATOM     27  H1  UNL     1      15.389  -0.106  13.294  1.00  0.00     0.167 HD
HETATM   28  C1  UNL     1      12.746  -0.846  12.591  1.00  0.00     0.089 C
HETATM   29  N8  UNL     1      13.225  -1.790  14.878  1.00  0.00    -0.354 N
HETATM   30  C25 UNL     1      14.243  -1.800  15.739  1.00  0.00     0.114 A
ATOM     31  H8  UNL     1      12.318  -2.235  15.022  1.00  0.00     0.166 HD
ENDBRANCH  21  24
ENDBRANCH  14  16
ENDBRANCH   8  10
BRANCH   4  32
HETATM   32  N5  UNL     1      20.420  -0.095  10.192  1.00  0.00    -0.271 N
HETATM   33  C19 UNL     1      19.656  -1.091  10.662  1.00  0.00     0.202 A
HETATM   34  N6  UNL     1      18.785  -1.479   9.693  1.00  0.00    -0.346 N
HETATM   35  C20 UNL     1      19.019  -0.720   8.632  1.00  0.00     0.198 A
ATOM     36  H6  UNL     1      18.084  -2.215   9.769  1.00  0.00     0.167 HD
HETATM   37  N7  UNL     1      20.021   0.118   8.958  1.00  0.00    -0.292 N
ATOM     38  H7  UNL     1      20.416   0.820   8.333  1.00  0.00     0.188 HD
ENDBRANCH   4  32
ENDBRANCH   1   4
TORSDOF 5
ENDMDL