MODEL 4
REMARK VINA RESULT: -5.897080183      1.299      1.501
REMARK  6 active torsions:
REMARK  status: ('A' for Active; 'I' for Inactive)
REMARK    1  A    between atoms: O1_2  and  C2_3
REMARK    2  A    between atoms: C2_3  and  C3_4
REMARK    3  A    between atoms: C11_13  and  C12_14
REMARK    4  A    between atoms: C12_14  and  O3_15
REMARK    5  A    between atoms: C15_19  and  O4_20
REMARK    6  A    between atoms: C15_19  and  C17_22
ROOT
HETATM    1  C3  UNL     1      16.980  -1.336  14.976  1.00  0.00     0.179 C
HETATM    2  O2  UNL     1      16.968  -2.237  16.005  1.00  0.00    -0.374 OA
HETATM    3  C4  UNL     1      18.199  -2.169  16.645  1.00  0.00     0.208 C
HETATM    4  C5  UNL     1      19.153  -1.714  15.612  1.00  0.00    -0.023 A
HETATM    5  C6  UNL     1      20.531  -1.729  15.544  1.00  0.00     0.047 A
HETATM    6  C7  UNL     1      21.188  -1.226  14.429  1.00  0.00     0.077 A
HETATM    7  C8  UNL     1      20.408  -0.712  13.396  1.00  0.00    -0.011 A
HETATM    8  C9  UNL     1      19.040  -0.691  13.453  1.00  0.00     0.021 A
HETATM    9  C10 UNL     1      18.399  -1.203  14.584  1.00  0.00    -0.018 A
HETATM   10  C11 UNL     1      21.066  -0.151  12.157  1.00  0.00     0.045 C
HETATM   11  C13 UNL     1      20.893  -1.187  11.109  1.00  0.00     0.022 C
HETATM   12  C14 UNL     1      21.606  -0.987   9.837  1.00  0.00     0.042 C
HETATM   13  C15 UNL     1      23.094  -1.299   9.788  1.00  0.00     0.101 C
HETATM   14  C22 UNL     1      23.805  -0.802  11.004  1.00  0.00     0.261 C
HETATM   15  C23 UNL     1      23.714  -1.629  12.227  1.00  0.00     0.080 C
HETATM   16  C24 UNL     1      23.231  -0.692  13.315  1.00  0.00     0.103 C
HETATM   17  C25 UNL     1      24.396   0.224  13.603  1.00  0.00     0.071 C
HETATM   18  C26 UNL     1      24.458   1.027  12.304  1.00  0.00     0.277 C
HETATM   19  N1  UNL     1      23.356   0.515  11.456  1.00  0.00     0.105 N
HETATM   20  C27 UNL     1      22.394   0.279  12.498  1.00  0.00     0.273 C
HETATM   21  O6  UNL     1      22.589  -1.248  14.371  1.00  0.00    -0.337 OA
ENDROOT
BRANCH  13  22
HETATM   22  O4  UNL     1      23.158  -2.671   9.760  1.00  0.00    -0.382 OA
HETATM   23  C16 UNL     1      24.333  -3.323   9.796  1.00  0.00     0.202 C
ENDBRANCH  13  22
BRANCH  13  24
HETATM   24  C17 UNL     1      23.554  -0.704   8.506  1.00  0.00     0.092 C
HETATM   25  C18 UNL     1      25.023  -0.465   8.337  1.00  0.00     0.015 C
HETATM   26  C19 UNL     1      25.382  -0.807   6.912  1.00  0.00     0.008 C
HETATM   27  C20 UNL     1      24.056  -0.842   6.216  1.00  0.00     0.079 C
HETATM   28  C21 UNL     1      23.194  -1.463   7.278  1.00  0.00     0.134 C
HETATM   29  O5  UNL     1      22.435  -2.352   7.072  1.00  0.00    -0.297 OA
ENDBRANCH  13  24
BRANCH  10  30
HETATM   30  C12 UNL     1      20.265   1.082  11.737  1.00  0.00     0.180 C
BRANCH  30  31
HETATM   31  O3  UNL     1      20.898   2.260  12.065  1.00  0.00    -0.400 OA
ATOM     32  H3  UNL     1      20.306   3.002  12.071  1.00  0.00     0.209 HD
ENDBRANCH  30  31
ENDBRANCH  10  30
BRANCH   1  33
HETATM   33  C2  UNL     1      16.499   0.005  15.544  1.00  0.00     0.203 C
BRANCH  33  34
HETATM   34  O1  UNL     1      15.809   0.712  14.559  1.00  0.00    -0.393 OA
HETATM   35  C1  UNL     1      14.899  -0.171  13.978  1.00  0.00     0.201 C
ENDBRANCH  33  34
ENDBRANCH   1  33
TORSDOF 6
ENDMDL