MODEL 1
REMARK VINA RESULT: -7.029419939      0.000      0.000
REMARK  8 active torsions:
REMARK  status: ('A' for Active; 'I' for Inactive)
REMARK    1  A    between atoms: C2_2  and  C3_3
REMARK    2  A    between atoms: C3_3  and  O2_5
REMARK    3  A    between atoms: O2_5  and  C4_6
REMARK    4  A    between atoms: C19_22  and  C20_23
REMARK    5  A    between atoms: C20_23  and  O3_24
REMARK    6  A    between atoms: C20_23  and  C21_26
REMARK    7  A    between atoms: C21_26  and  N2_27
REMARK    8  A    between atoms: C25_32  and  O5_33
ROOT
HETATM    1  C4  UNL     1      18.967  -1.398  14.771  1.00  0.00     0.163 C
HETATM    2  C5  UNL     1      19.915  -1.567  15.982  1.00  0.00     0.044 C
HETATM    3  C6  UNL     1      19.323  -2.472  17.022  1.00  0.00     0.036 C
HETATM    4  C7  UNL     1      19.003  -1.655  18.215  1.00  0.00    -0.030 C
HETATM    5  C8  UNL     1      19.652  -1.653  19.351  1.00  0.00    -0.031 C
HETATM    6  C9  UNL     1      20.850  -2.478  19.670  1.00  0.00     0.027 C
HETATM    7  C10 UNL     1      21.884  -1.526  20.271  1.00  0.00     0.004 C
HETATM    8  C11 UNL     1      23.244  -1.685  19.649  1.00  0.00     0.000 C
HETATM    9  C12 UNL     1      23.688  -0.438  18.899  1.00  0.00     0.000 C
HETATM   10  C13 UNL     1      23.897  -0.738  17.422  1.00  0.00     0.000 C
HETATM   11  C14 UNL     1      22.586  -0.651  16.638  1.00  0.00     0.007 C
HETATM   12  C15 UNL     1      22.417  -1.919  15.886  1.00  0.00     0.010 C
HETATM   13  C16 UNL     1      23.297  -1.856  14.651  1.00  0.00     0.026 C
HETATM   14  C17 UNL     1      22.324  -1.615  13.480  1.00  0.00     0.118 C
HETATM   15  N1  UNL     1      21.167  -1.246  14.124  1.00  0.00    -0.398 N
HETATM   16  C18 UNL     1      21.080  -2.128  15.252  1.00  0.00     0.090 C
HETATM   17  C19 UNL     1      19.942  -0.942  13.657  1.00  0.00     0.140 C
ENDROOT
BRANCH  17  18
HETATM   18  C20 UNL     1      19.427  -1.393  12.322  1.00  0.00     0.171 C
BRANCH  18  19
HETATM   19  O3  UNL     1      18.017  -1.376  12.468  1.00  0.00    -0.392 OA
ATOM     20  H3  UNL     1      17.717  -0.801  11.774  1.00  0.00     0.210 HD
ENDBRANCH  18  19
BRANCH  18  21
HETATM   21  C21 UNL     1      19.780  -0.417  11.246  1.00  0.00     0.306 C
BRANCH  21  22
HETATM   22  N2  UNL     1      20.697  -0.928  10.234  1.00  0.00     0.094 N
HETATM   23  C22 UNL     1      21.641   0.124   9.869  1.00  0.00     0.280 C
HETATM   24  C23 UNL     1      21.074   1.091   8.843  1.00  0.00     0.111 C
HETATM   25  C24 UNL     1      20.959   0.299   7.591  1.00  0.00     0.159 C
HETATM   26  O4  UNL     1      21.032   0.846   6.527  1.00  0.00    -0.295 OA
HETATM   27  C25 UNL     1      20.753  -1.159   7.760  1.00  0.00     0.218 C
HETATM   28  C27 UNL     1      20.035  -1.460   9.070  1.00  0.00     0.311 C
BRANCH  27  29
HETATM   29  O5  UNL     1      21.897  -1.913   7.720  1.00  0.00    -0.381 OA
HETATM   30  C26 UNL     1      21.639  -3.282   7.656  1.00  0.00     0.202 C
ENDBRANCH  27  29
ENDBRANCH  21  22
ENDBRANCH  18  21
ENDBRANCH  17  18
BRANCH   1  31
HETATM   31  O2  UNL     1      17.973  -0.473  15.055  1.00  0.00    -0.313 OA
BRANCH  31  32
HETATM   32  C3  UNL     1      16.646  -0.906  15.253  1.00  0.00     0.258 C
HETATM   33  O1  UNL     1      16.373  -1.931  15.924  1.00  0.00    -0.265 OA
BRANCH  32  34
HETATM   34  C2  UNL     1      15.508  -0.149  14.665  1.00  0.00     0.106 C
HETATM   35  C1  UNL     1      15.998   1.037  13.862  1.00  0.00     0.015 C
ENDBRANCH  32  34
ENDBRANCH  31  32
ENDBRANCH   1  31
TORSDOF 8
ENDMDL