MODEL 3
REMARK VINA RESULT: -7.313671150      2.565      4.573
REMARK  10 active torsions:
REMARK  status: ('A' for Active; 'I' for Inactive)
REMARK    1  A    between atoms: O1_2  and  C2_3
REMARK    2  A    between atoms: C2_3  and  C3_5
REMARK    3  A    between atoms: C3_5  and  C4_6
REMARK    4  A    between atoms: C4_6  and  O4_8
REMARK    5  A    between atoms: O4_8  and  C5_9
REMARK    6  A    between atoms: C7_11  and  C8_12
REMARK    7  A    between atoms: C8_12  and  C9_13
REMARK    8  A    between atoms: C9_13  and  O6_15
REMARK    9  A    between atoms: O6_15  and  C10_16
REMARK   10  A    between atoms: C15_21  and  O7_22
ROOT
HETATM    1  C5  UNL     1      20.858   0.367  10.226  1.00  0.00     0.137 C
HETATM    2  C6  UNL     1      19.842   0.358  11.342  1.00  0.00     0.040 C
HETATM    3  C7  UNL     1      20.513   0.287  12.684  1.00  0.00     0.021 C
HETATM    4  C16 UNL     1      21.571   1.232  12.818  1.00  0.00     0.098 C
HETATM    5  C17 UNL     1      21.526   2.242  11.569  1.00  0.00     0.051 C
HETATM    6  C18 UNL     1      22.499   3.238  12.160  1.00  0.00    -0.025 A
HETATM    7  C19 UNL     1      22.657   4.599  12.181  1.00  0.00     0.010 A
HETATM    8  C20 UNL     1      23.777   5.106  12.801  1.00  0.00     0.001 A
HETATM    9  C21 UNL     1      24.752   4.311  13.403  1.00  0.00     0.002 A
HETATM   10  C22 UNL     1      24.560   2.936  13.365  1.00  0.00     0.030 A
HETATM   11  C23 UNL     1      23.463   2.377  12.763  1.00  0.00     0.037 A
HETATM   12  N1  UNL     1      22.936   1.061  12.520  1.00  0.00    -0.374 N
HETATM   13  C24 UNL     1      23.617  -0.010  11.856  1.00  0.00     0.124 C
HETATM   14  C25 UNL     1      23.231   0.591  10.408  1.00  0.00     0.028 C
HETATM   15  C26 UNL     1      21.992   1.384  10.474  1.00  0.00     0.027 C
ENDROOT
BRANCH   3  16
HETATM   16  C8  UNL     1      20.627  -1.082  13.279  1.00  0.00     0.117 C
BRANCH  16  17
HETATM   17  C9  UNL     1      19.534  -1.445  14.211  1.00  0.00     0.259 C
HETATM   18  O5  UNL     1      19.775  -1.954  15.315  1.00  0.00    -0.265 OA
BRANCH  17  19
HETATM   19  O6  UNL     1      18.205  -1.225  13.878  1.00  0.00    -0.313 OA
BRANCH  19  20
HETATM   20  C10 UNL     1      17.436  -0.341  14.658  1.00  0.00     0.160 C
HETATM   21  C11 UNL     1      16.770   0.686  13.810  1.00  0.00     0.035 C
HETATM   22  C12 UNL     1      15.729   0.066  12.932  1.00  0.00     0.003 C
HETATM   23  C13 UNL     1      14.711  -0.633  13.772  1.00  0.00     0.003 C
HETATM   24  C14 UNL     1      15.035  -0.649  15.240  1.00  0.00     0.034 C
HETATM   25  C15 UNL     1      16.433  -1.100  15.526  1.00  0.00     0.147 C
BRANCH  25  26
HETATM   26  O7  UNL     1      16.664  -0.891  16.893  1.00  0.00    -0.393 OA
ATOM     27  H7  UNL     1      16.034  -1.355  17.432  1.00  0.00     0.210 HD
ENDBRANCH  25  26
ENDBRANCH  19  20
ENDBRANCH  17  19
ENDBRANCH  16  17
ENDBRANCH   3  16
BRANCH   1  28
HETATM   28  O4  UNL     1      20.225   0.607   8.979  1.00  0.00    -0.315 OA
BRANCH  28  29
HETATM   29  C4  UNL     1      19.602  -0.351   8.207  1.00  0.00     0.268 C
HETATM   30  O3  UNL     1      18.775  -0.012   7.373  1.00  0.00    -0.265 OA
BRANCH  29  31
HETATM   31  C3  UNL     1      19.973  -1.781   8.430  1.00  0.00     0.222 C
BRANCH  31  32
HETATM   32  C2  UNL     1      21.221  -2.123   7.706  1.00  0.00     0.267 C
HETATM   33  O2  UNL     1      22.011  -1.220   7.361  1.00  0.00    -0.265 OA
BRANCH  32  34
HETATM   34  O1  UNL     1      21.486  -3.437   7.430  1.00  0.00    -0.326 OA
HETATM   35  C1  UNL     1      22.416  -4.224   8.187  1.00  0.00     0.213 C
ENDBRANCH  32  34
ENDBRANCH  31  32
ENDBRANCH  29  31
ENDBRANCH  28  29
ENDBRANCH   1  28
TORSDOF 10
ENDMDL