MODEL 2
REMARK VINA RESULT: -5.752104422      7.759     10.830
REMARK  8 active torsions:
REMARK  status: ('A' for Active; 'I' for Inactive)
REMARK    1  A    between atoms: C2_2  and  C3_3
REMARK    2  A    between atoms: C3_3  and  O2_5
REMARK    3  A    between atoms: O2_5  and  C4_6
REMARK    4  A    between atoms: C4_6  and  C5_7
REMARK    5  A    between atoms: C22_25  and  O4_26
REMARK    6  A    between atoms: C24_28  and  O5_29
REMARK    7  A    between atoms: C25_31  and  O6_32
REMARK    8  A    between atoms: O6_32  and  C26_33
ROOT
HETATM    1  C5  UNL     1      22.017   0.064  10.971  1.00  0.00     0.018 C
HETATM    2  C6  UNL     1      22.659   0.916   9.833  1.00  0.00     0.016 C
HETATM    3  C7  UNL     1      22.331   2.362   9.888  1.00  0.00     0.019 C
HETATM    4  C8  UNL     1      23.475   3.092  10.522  1.00  0.00     0.028 C
HETATM    5  C9  UNL     1      24.746   2.820   9.885  1.00  0.00     0.136 C
HETATM    6  O3  UNL     1      25.708   2.208  10.255  1.00  0.00    -0.297 OA
HETATM    7  C10 UNL     1      24.626   3.506   8.560  1.00  0.00     0.079 C
HETATM    8  C11 UNL     1      23.600   4.640   8.807  1.00  0.00     0.013 C
HETATM    9  C12 UNL     1      23.503   4.604  10.254  1.00  0.00     0.006 C
HETATM   10  C13 UNL     1      22.555   5.349  11.053  1.00  0.00    -0.013 C
HETATM   11  C14 UNL     1      22.498   6.787  10.584  1.00  0.00     0.010 C
HETATM   12  C15 UNL     1      23.118   5.359  12.492  1.00  0.00     0.005 C
HETATM   13  C16 UNL     1      23.937   4.073  12.734  1.00  0.00     0.006 C
HETATM   14  C17 UNL     1      23.288   2.983  11.974  1.00  0.00     0.002 C
HETATM   15  C18 UNL     1      23.452   1.579  12.423  1.00  0.00     0.015 C
HETATM   16  C19 UNL     1      22.155   0.843  12.266  1.00  0.00     0.021 C
HETATM   17  C20 UNL     1      21.926  -0.056  13.408  1.00  0.00    -0.022 C
HETATM   18  C21 UNL     1      20.910  -0.905  13.559  1.00  0.00     0.004 C
HETATM   19  C22 UNL     1      19.748  -1.216  12.692  1.00  0.00     0.174 C
HETATM   20  C24 UNL     1      19.549  -0.193  11.607  1.00  0.00     0.181 C
HETATM   21  C25 UNL     1      20.649  -0.216  10.581  1.00  0.00     0.174 C
ENDROOT
BRANCH   1  22
HETATM   22  C4  UNL     1      22.965  -1.082  11.082  1.00  0.00     0.191 C
BRANCH  22  23
HETATM   23  O2  UNL     1      23.399  -1.807  10.041  1.00  0.00    -0.321 OA
BRANCH  23  24
HETATM   24  C3  UNL     1      23.096  -2.873   9.307  1.00  0.00     0.258 C
HETATM   25  O1  UNL     1      23.949  -3.756   9.097  1.00  0.00    -0.265 OA
BRANCH  24  26
HETATM   26  C2  UNL     1      21.747  -3.107   8.680  1.00  0.00     0.106 C
HETATM   27  C1  UNL     1      21.916  -3.933   7.426  1.00  0.00     0.015 C
ENDBRANCH  24  26
ENDBRANCH  23  24
ENDBRANCH  22  23
ENDBRANCH   1  22
BRANCH  21  28
HETATM   28  O6  UNL     1      20.249   0.620   9.458  1.00  0.00    -0.313 OA
BRANCH  28  29
HETATM   29  C26 UNL     1      19.872   0.120   8.271  1.00  0.00     0.255 C
HETATM   30  C27 UNL     1      20.727   0.053   7.050  1.00  0.00     0.126 C
HETATM   31  O7  UNL     1      18.730  -0.322   8.168  1.00  0.00    -0.266 OA
ENDBRANCH  28  29
ENDBRANCH  21  28
BRANCH  20  32
HETATM   32  O5  UNL     1      19.121   0.978  12.109  1.00  0.00    -0.390 OA
ATOM     33  H5  UNL     1      19.760   1.669  11.972  1.00  0.00     0.210 HD
ENDBRANCH  20  32
BRANCH  19  34
HETATM   34  O4  UNL     1      18.593  -1.446  13.422  1.00  0.00    -0.384 OA
HETATM   35  C23 UNL     1      18.827  -1.446  14.792  1.00  0.00     0.202 C
ENDBRANCH  19  34
TORSDOF 8
ENDMDL