MODEL 4
REMARK VINA RESULT: -7.093351896      2.800      8.999
REMARK  8 active torsions:
REMARK  status: ('A' for Active; 'I' for Inactive)
REMARK    1  A    between atoms: C2_2  and  C3_3
REMARK    2  A    between atoms: C3_3  and  C4_4
REMARK    3  A    between atoms: C13_13  and  C14_14
REMARK    4  A    between atoms: C14_14  and  O2_16
REMARK    5  A    between atoms: O2_16  and  C15_17
REMARK    6  A    between atoms: C15_17  and  C16_18
REMARK    7  A    between atoms: C16_18  and  C18_20
REMARK    8  A    between atoms: C18_20  and  O3_21
ROOT
HETATM    1  C4  UNL     1      20.948  -0.092   8.816  1.00  0.00    -0.016 A
HETATM    2  C5  UNL     1      21.412   0.955   8.010  1.00  0.00     0.088 A
HETATM    3  C6  UNL     1      21.838   2.134   8.601  1.00  0.00     0.010 A
HETATM    4  C7  UNL     1      21.779   2.210   9.967  1.00  0.00     0.020 A
HETATM    5  C8  UNL     1      21.327   1.187  10.774  1.00  0.00    -0.049 A
HETATM    6  C9  UNL     1      20.893  -0.005  10.210  1.00  0.00    -0.034 A
HETATM    7  C10 UNL     1      20.496  -0.935  11.257  1.00  0.00     0.058 C
HETATM    8  C11 UNL     1      19.100  -0.882  11.730  1.00  0.00    -0.019 C
HETATM    9  C12 UNL     1      18.762  -1.266  12.966  1.00  0.00    -0.008 C
HETATM   10  C13 UNL     1      19.807  -1.759  13.891  1.00  0.00     0.178 C
HETATM   11  C19 UNL     1      21.036  -0.979  13.708  1.00  0.00     0.153 C
HETATM   12  O4  UNL     1      21.787  -0.771  14.671  1.00  0.00    -0.296 OA
HETATM   13  C20 UNL     1      21.408  -0.435  12.407  1.00  0.00     0.033 C
HETATM   14  C21 UNL     1      22.859  -0.736  12.135  1.00  0.00     0.025 C
HETATM   15  C22 UNL     1      21.227   1.073  12.272  1.00  0.00     0.057 C
HETATM   16  C23 UNL     1      22.267   3.046   7.494  1.00  0.00     0.216 C
HETATM   17  O5  UNL     1      23.641   2.974   7.273  1.00  0.00    -0.341 OA
HETATM   18  C24 UNL     1      23.722   3.241   5.902  1.00  0.00     0.161 C
HETATM   19  C25 UNL     1      25.125   3.012   5.387  1.00  0.00     0.078 C
HETATM   20  C26 UNL     1      23.293   4.672   5.605  1.00  0.00     0.078 C
HETATM   21  O6  UNL     1      22.777   2.404   5.325  1.00  0.00    -0.323 OA
HETATM   22  C27 UNL     1      21.728   2.384   6.264  1.00  0.00     0.303 C
HETATM   23  O7  UNL     1      21.535   1.038   6.631  1.00  0.00    -0.316 OA
ENDROOT
BRANCH  10  24
HETATM   24  C14 UNL     1      19.281  -1.781  15.277  1.00  0.00     0.274 C
HETATM   25  O1  UNL     1      19.840  -2.535  16.094  1.00  0.00    -0.264 OA
BRANCH  24  26
HETATM   26  O2  UNL     1      18.256  -1.067  15.758  1.00  0.00    -0.320 OA
BRANCH  26  27
HETATM   27  C15 UNL     1      16.949  -1.216  15.970  1.00  0.00     0.185 C
BRANCH  27  28
HETATM   28  C16 UNL     1      15.887  -0.913  15.017  1.00  0.00     0.029 C
HETATM   29  C17 UNL     1      15.677   0.528  14.644  1.00  0.00     0.014 C
BRANCH  28  30
HETATM   30  C18 UNL     1      14.563  -1.333  15.687  1.00  0.00     0.170 C
BRANCH  30  31
HETATM   31  O3  UNL     1      13.599  -1.638  14.719  1.00  0.00    -0.400 OA
ATOM     32  H3  UNL     1      13.735  -1.114  13.938  1.00  0.00     0.209 HD
ENDBRANCH  30  31
ENDBRANCH  28  30
ENDBRANCH  27  28
ENDBRANCH  26  27
ENDBRANCH  24  26
ENDBRANCH  10  24
BRANCH   1  33
HETATM   33  C3  UNL     1      20.569  -1.356   8.179  1.00  0.00     0.042 C
BRANCH  33  34
HETATM   34  C2  UNL     1      21.788  -2.185   7.867  1.00  0.00     0.000 C
HETATM   35  C1  UNL     1      21.813  -3.484   8.564  1.00  0.00     0.005 C
ENDBRANCH  33  34
ENDBRANCH   1  33
TORSDOF 8
ENDMDL