MODEL 5
REMARK VINA RESULT: -6.492656009      1.644      2.317
REMARK  8 active torsions:
REMARK  status: ('A' for Active; 'I' for Inactive)
REMARK    1  A    between atoms: C4_4  and  C5_5
REMARK    2  A    between atoms: C5_5  and  C7_7
REMARK    3  A    between atoms: C10_12  and  O3_13
REMARK    4  A    between atoms: C11_15  and  C12_16
REMARK    5  A    between atoms: C12_16  and  O4_17
REMARK    6  A    between atoms: O4_17  and  C13_18
REMARK    7  A    between atoms: C13_18  and  C14_20
REMARK    8  A    between atoms: C14_20  and  N1_21
ROOT
HETATM    1  O4  UNL     1      18.798  -0.742  10.156  1.00  0.00    -0.318 OA
ENDROOT
BRANCH   1   2
HETATM    2  C12 UNL     1      18.459  -1.698  11.097  1.00  0.00     0.213 C
BRANCH   2   3
HETATM    3  C11 UNL     1      18.074  -1.198  12.450  1.00  0.00     0.178 C
HETATM    4  C10 UNL     1      17.972   0.310  12.394  1.00  0.00     0.158 C
HETATM    5  C9  UNL     1      16.990   0.889  13.361  1.00  0.00     0.145 C
HETATM    6  C8  UNL     1      16.646  -0.196  14.339  1.00  0.00     0.263 C
HETATM    7  O1  UNL     1      17.494  -1.132  14.900  1.00  0.00    -0.289 OA
HETATM    8  O2  UNL     1      15.446  -0.247  14.681  1.00  0.00    -0.265 OA
HETATM    9  C7  UNL     1      18.862  -1.271  14.633  1.00  0.00     0.277 C
HETATM   10  O7  UNL     1      19.100  -1.621  13.328  1.00  0.00    -0.350 OA
BRANCH   4  11
HETATM   11  O3  UNL     1      19.254   0.812  12.535  1.00  0.00    -0.392 OA
ATOM     12  H3  UNL     1      19.933   0.213  12.250  1.00  0.00     0.210 HD
ENDBRANCH   4  11
BRANCH   9  13
HETATM   13  C5  UNL     1      19.586  -2.148  15.624  1.00  0.00     0.060 C
HETATM   14  C6  UNL     1      18.742  -2.355  16.850  1.00  0.00     0.019 C
BRANCH  13  15
HETATM   15  C4  UNL     1      20.816  -1.406  16.034  1.00  0.00    -0.016 C
HETATM   16  C2  UNL     1      22.012  -1.991  16.046  1.00  0.00    -0.091 C
HETATM   17  C1  UNL     1      22.169  -3.420  15.648  1.00  0.00     0.042 C
HETATM   18  C3  UNL     1      23.218  -1.224  16.459  1.00  0.00     0.042 C
ENDBRANCH  13  15
ENDBRANCH   9  13
ENDBRANCH   2   3
ENDBRANCH   1   2
BRANCH   1  19
HETATM   19  C13 UNL     1      19.821  -0.764   9.243  1.00  0.00     0.277 C
HETATM   20  O5  UNL     1      19.811  -1.709   8.412  1.00  0.00    -0.263 OA
BRANCH  19  21
HETATM   21  C14 UNL     1      20.903   0.233   9.184  1.00  0.00     0.237 C
BRANCH  21  22
HETATM   22  N1  UNL     1      21.878   0.119  10.240  1.00  0.00    -0.334 N
HETATM   23  C15 UNL     1      22.452   1.364  10.611  1.00  0.00     0.228 C
HETATM   24  O6  UNL     1      22.227   2.359   9.836  1.00  0.00    -0.273 OA
HETATM   25  C16 UNL     1      23.286   1.722  11.764  1.00  0.00     0.034 C
HETATM   26  C17 UNL     1      24.241   2.831  11.295  1.00  0.00     0.025 C
HETATM   27  C18 UNL     1      22.534   2.248  12.938  1.00  0.00     0.025 C
HETATM   28  C19 UNL     1      24.192   0.593  12.201  1.00  0.00     0.023 C
HETATM   29  C20 UNL     1      23.525  -0.527  12.883  1.00  0.00    -0.011 C
HETATM   30  C21 UNL     1      24.482  -1.688  12.989  1.00  0.00     0.008 C
HETATM   31  C26 UNL     1      22.275  -1.056  12.330  1.00  0.00     0.034 C
HETATM   32  C22 UNL     1      25.193  -1.996  11.723  1.00  0.00     0.027 C
HETATM   33  C23 UNL     1      24.409  -2.283  10.547  1.00  0.00    -0.029 C
HETATM   34  C24 UNL     1      23.199  -1.958  10.175  1.00  0.00    -0.006 C
HETATM   35  C25 UNL     1      22.176  -1.167  10.836  1.00  0.00     0.110 C
ENDBRANCH  21  22
ENDBRANCH  19  21
ENDBRANCH   1  19
TORSDOF 8
ENDMDL