MODEL 3
REMARK VINA RESULT: -6.518491172      2.164      3.584
REMARK  9 active torsions:
REMARK  status: ('A' for Active; 'I' for Inactive)
REMARK    1  A    between atoms: C2_2  and  O1_3
REMARK    2  A    between atoms: C2_2  and  N1_5
REMARK    3  A    between atoms: N1_5  and  C4_7
REMARK    4  A    between atoms: C13_18  and  O4_19
REMARK    5  A    between atoms: O4_19  and  C14_20
REMARK    6  A    between atoms: C14_20  and  C16_22
REMARK    7  A    between atoms: C16_22  and  C17_23
REMARK    8  A    between atoms: C22_28  and  C23_29
REMARK    9  A    between atoms: C23_29  and  O5_32
ROOT
HETATM    1  C4  UNL     1      23.988   1.380   6.336  1.00  0.00     0.103 C
HETATM    2  C5  UNL     1      23.764   0.442   7.183  1.00  0.00     0.009 C
HETATM    3  C6  UNL     1      22.662  -0.226   7.836  1.00  0.00     0.176 C
HETATM    4  O2  UNL     1      21.640  -0.643   7.299  1.00  0.00    -0.291 OA
HETATM    5  C7  UNL     1      23.053  -0.290   9.246  1.00  0.00     0.118 C
HETATM    6  C8  UNL     1      24.536  -0.352   9.307  1.00  0.00     0.038 C
HETATM    7  C9  UNL     1      24.990  -0.269   7.870  1.00  0.00     0.021 C
HETATM    8  C10 UNL     1      25.167  -1.582   7.193  1.00  0.00     0.015 C
HETATM    9  C11 UNL     1      22.454   0.871   9.984  1.00  0.00     0.156 C
HETATM   10  O3  UNL     1      22.811   2.032  10.049  1.00  0.00    -0.296 OA
HETATM   11  C12 UNL     1      21.408  -0.045  10.468  1.00  0.00     0.124 C
HETATM   12  C13 UNL     1      21.415  -0.052  11.999  1.00  0.00     0.168 C
HETATM   13  C22 UNL     1      22.778  -0.588  12.238  1.00  0.00     0.185 C
HETATM   14  O6  UNL     1      22.977  -1.578  11.279  1.00  0.00    -0.367 OA
HETATM   15  C26 UNL     1      22.288  -1.205  10.144  1.00  0.00     0.093 C
HETATM   16  C27 UNL     1      21.626  -2.384   9.498  1.00  0.00     0.048 C
ENDROOT
BRANCH   1  17
HETATM   17  N1  UNL     1      23.351   2.309   5.555  1.00  0.00    -0.345 N
HETATM   18  C3  UNL     1      24.127   3.613   5.391  1.00  0.00     0.157 C
BRANCH  17  19
HETATM   19  C2  UNL     1      22.188   2.300   4.821  1.00  0.00     0.113 C
HETATM   20  C1  UNL     1      21.917   2.622   3.412  1.00  0.00     0.097 C
BRANCH  19  21
HETATM   21  O1  UNL     1      21.102   1.929   5.485  1.00  0.00    -0.349 OA
ATOM     22  H1  UNL     1      21.240   1.157   6.021  1.00  0.00     0.219 HD
ENDBRANCH  19  21
ENDBRANCH  17  19
ENDBRANCH   1  17
BRANCH  12  23
HETATM   23  O4  UNL     1      20.356  -0.818  12.407  1.00  0.00    -0.377 OA
BRANCH  23  24
HETATM   24  C14 UNL     1      19.119  -0.359  11.884  1.00  0.00     0.118 C
HETATM   25  C15 UNL     1      18.370  -1.524  11.301  1.00  0.00     0.039 C
BRANCH  24  26
HETATM   26  C16 UNL     1      18.322   0.343  12.920  1.00  0.00     0.036 C
BRANCH  26  27
HETATM   27  C17 UNL     1      17.421  -0.489  13.754  1.00  0.00    -0.012 C
HETATM   28  C18 UNL     1      16.289   0.437  14.301  1.00  0.00     0.005 C
HETATM   29  C19 UNL     1      15.585  -0.541  15.214  1.00  0.00     0.000 C
HETATM   30  C20 UNL     1      16.721  -1.269  15.911  1.00  0.00     0.000 C
HETATM   31  C21 UNL     1      17.961  -0.967  15.069  1.00  0.00     0.005 C
ENDBRANCH  26  27
ENDBRANCH  24  26
ENDBRANCH  23  24
ENDBRANCH  12  23
BRANCH  13  32
HETATM   32  C23 UNL     1      23.094  -1.044  13.617  1.00  0.00     0.079 C
HETATM   33  C24 UNL     1      23.184   0.232  14.480  1.00  0.00     0.048 C
HETATM   34  C25 UNL     1      24.405  -1.746  13.775  1.00  0.00     0.048 C
BRANCH  32  35
HETATM   35  O5  UNL     1      22.028  -1.762  14.132  1.00  0.00    -0.388 OA
ATOM     36  H5  UNL     1      22.252  -2.102  14.990  1.00  0.00     0.210 HD
ENDBRANCH  32  35
ENDBRANCH  13  32
TORSDOF 9
ENDMDL