MODEL 1
REMARK VINA RESULT: -7.917430687      0.000      0.000
REMARK  7 active torsions:
REMARK  status: ('A' for Active; 'I' for Inactive)
REMARK    1  A    between atoms: C2_2  and  C3_3
REMARK    2  A    between atoms: C4_4  and  O1_5
REMARK    3  A    between atoms: O1_5  and  C5_6
REMARK    4  A    between atoms: C5_6  and  C6_8
REMARK    5  A    between atoms: C8_10  and  O3_11
REMARK    6  A    between atoms: C11_14  and  O4_15
REMARK    7  A    between atoms: C22_27  and  C23_28
ROOT
HETATM    1  C3  UNL     1      22.172  -0.601  13.724  1.00  0.00     0.075 C
HETATM    2  C4  UNL     1      21.586  -0.916  12.399  1.00  0.00     0.162 C
HETATM    3  C14 UNL     1      22.401  -0.735  11.198  1.00  0.00     0.063 C
HETATM    4  C15 UNL     1      22.283  -1.712  10.087  1.00  0.00    -0.042 C
HETATM    5  C16 UNL     1      21.297  -2.048   9.296  1.00  0.00    -0.025 C
HETATM    6  C17 UNL     1      21.441  -3.082   8.238  1.00  0.00     0.036 C
HETATM    7  C18 UNL     1      23.661  -2.329  10.007  1.00  0.00     0.203 C
HETATM    8  O5  UNL     1      24.429  -1.154  10.185  1.00  0.00    -0.379 OA
HETATM    9  C19 UNL     1      23.875  -0.631  11.351  1.00  0.00     0.152 C
HETATM   10  C20 UNL     1      23.663   0.867  11.372  1.00  0.00     0.078 C
HETATM   11  C21 UNL     1      22.336   0.689  10.771  1.00  0.00    -0.048 C
HETATM   12  C22 UNL     1      21.465   1.453  10.133  1.00  0.00     0.075 C
HETATM   13  C24 UNL     1      23.651   1.263  12.820  1.00  0.00     0.168 A
HETATM   14  O7  UNL     1      22.496   1.758  13.418  1.00  0.00    -0.368 OA
HETATM   15  C25 UNL     1      23.178   0.467  13.811  1.00  0.00     0.094 A
HETATM   16  C26 UNL     1      23.758   0.600  15.234  1.00  0.00     0.049 C
ENDROOT
BRANCH   2  17
HETATM   17  O1  UNL     1      20.398  -0.122  12.240  1.00  0.00    -0.310 OA
BRANCH  17  18
HETATM   18  C5  UNL     1      19.140  -0.695  12.186  1.00  0.00     0.293 C
HETATM   19  O2  UNL     1      18.850  -1.267  11.078  1.00  0.00    -0.259 OA
BRANCH  18  20
HETATM   20  C6  UNL     1      18.191  -0.677  13.270  1.00  0.00     0.044 A
HETATM   21  C7  UNL     1      16.910  -0.246  13.067  1.00  0.00     0.054 A
HETATM   22  C8  UNL     1      15.970  -0.218  14.094  1.00  0.00     0.071 A
HETATM   23  C10 UNL     1      16.338  -0.632  15.343  1.00  0.00     0.073 A
HETATM   24  C11 UNL     1      17.626  -1.072  15.573  1.00  0.00     0.071 A
HETATM   25  C13 UNL     1      18.561  -1.093  14.522  1.00  0.00     0.054 A
BRANCH  22  26
HETATM   26  O3  UNL     1      14.693   0.221  13.855  1.00  0.00    -0.356 OA
HETATM   27  C9  UNL     1      13.633  -0.697  13.665  1.00  0.00     0.210 C
ENDBRANCH  22  26
BRANCH  24  28
HETATM   28  O4  UNL     1      17.937  -1.476  16.853  1.00  0.00    -0.356 OA
HETATM   29  C12 UNL     1      18.746  -2.571  17.176  1.00  0.00     0.210 C
ENDBRANCH  24  28
ENDBRANCH  18  20
ENDBRANCH  17  18
ENDBRANCH   2  17
BRANCH   1  30
HETATM   30  C2  UNL     1      22.651  -1.845  14.384  1.00  0.00    -0.027 C
HETATM   31  C1  UNL     1      21.839  -2.524  15.207  1.00  0.00     0.007 C
ENDBRANCH   1  30
BRANCH  12  32
HETATM   32  C23 UNL     1      21.746   2.868   9.879  1.00  0.00     0.254 C
HETATM   33  N1  UNL     1      21.747   3.415   8.573  1.00  0.00    -0.058 NA
HETATM   34  O6  UNL     1      22.002   3.654  10.834  1.00  0.00    -0.272 OA
ENDBRANCH  12  32
TORSDOF 7
ENDMDL