MODEL 3
REMARK VINA RESULT: -6.220439512     12.936     16.183
REMARK  9 active torsions:
REMARK  status: ('A' for Active; 'I' for Inactive)
REMARK    1  A    between atoms: C2_2  and  C3_3
REMARK    2  A    between atoms: C3_3  and  O1_4
REMARK    3  A    between atoms: C3_3  and  C4_6
REMARK    4  A    between atoms: C3_3  and  C6_8
REMARK    5  A    between atoms: C6_8  and  O3_10
REMARK    6  A    between atoms: O3_10  and  C7_11
REMARK    7  A    between atoms: C8_12  and  C9_13
REMARK    8  A    between atoms: C12_16  and  O4_17
REMARK    9  A    between atoms: C18_29  and  O5_30
ROOT
HETATM    1  C7  UNL     1       1.260  -8.421 -29.379  1.00  0.00     0.117 A
HETATM    2  C8  UNL     1       1.563  -9.545 -28.606  1.00  0.00     0.050 A
HETATM    3  N1  UNL     1       2.792  -9.972 -28.957  1.00  0.00    -0.342 N
ATOM      4  H1  UNL     1       3.266 -10.779 -28.551  1.00  0.00     0.167 HD
HETATM    5  C15 UNL     1       3.304  -9.185 -29.915  1.00  0.00     0.120 A
HETATM    6  N2  UNL     1       4.346  -8.947 -30.717  1.00  0.00    -0.338 N
ATOM      7  H2  UNL     1       5.204  -9.498 -30.748  1.00  0.00     0.167 HD
HETATM    8  C16 UNL     1       4.086  -7.854 -31.487  1.00  0.00     0.087 A
HETATM    9  C17 UNL     1       4.801  -7.194 -32.458  1.00  0.00     0.180 A
HETATM   10  F1  UNL     1       6.033  -7.666 -32.770  1.00  0.00    -0.201 F
HETATM   11  C18 UNL     1       4.287  -6.067 -33.110  1.00  0.00     0.145 A
HETATM   12  C19 UNL     1       3.032  -5.602 -32.777  1.00  0.00     0.153 A
HETATM   13  F2  UNL     1       2.573  -4.510 -33.432  1.00  0.00    -0.203 F
HETATM   14  C20 UNL     1       2.306  -6.256 -31.806  1.00  0.00     0.060 A
HETATM   15  C21 UNL     1       2.834  -7.379 -31.165  1.00  0.00     0.014 A
HETATM   16  C22 UNL     1       2.357  -8.223 -30.178  1.00  0.00     0.057 A
ENDROOT
BRANCH   1  17
HETATM   17  O3  UNL     1       0.091  -7.703 -29.308  1.00  0.00    -0.273 OA
BRANCH  17  18
HETATM   18  C6  UNL     1      -0.079  -6.578 -28.518  1.00  0.00     0.299 C
HETATM   19  O2  UNL     1       0.667  -5.611 -28.719  1.00  0.00    -0.261 OA
BRANCH  18  20
HETATM   20  C3  UNL     1      -1.114  -6.514 -27.465  1.00  0.00     0.145 C
BRANCH  20  21
HETATM   21  C2  UNL     1      -1.500  -5.086 -27.106  1.00  0.00     0.044 C
HETATM   22  C1  UNL     1      -2.712  -4.653 -27.888  1.00  0.00     0.009 C
ENDBRANCH  20  21
BRANCH  20  23
HETATM   23  O1  UNL     1      -0.608  -7.093 -26.306  1.00  0.00    -0.380 OA
ATOM     24  H1  UNL     1      -1.288  -7.664 -25.967  1.00  0.00     0.211 HD
ENDBRANCH  20  23
BRANCH  20  25
HETATM   25  C4  UNL     1      -2.330  -7.323 -27.855  1.00  0.00     0.044 C
HETATM   26  C5  UNL     1      -2.824  -8.222 -26.760  1.00  0.00     0.009 C
ENDBRANCH  20  25
ENDBRANCH  18  20
ENDBRANCH  17  18
ENDBRANCH   1  17
BRANCH   2  27
HETATM   27  C9  UNL     1       0.644 -10.115 -27.583  1.00  0.00     0.038 C
HETATM   28  C10 UNL     1      -0.522 -10.728 -28.292  1.00  0.00     0.013 C
HETATM   29  C11 UNL     1      -0.351 -12.209 -28.519  1.00  0.00     0.032 C
HETATM   30  C12 UNL     1      -0.370 -12.852 -27.169  1.00  0.00     0.118 C
HETATM   31  C13 UNL     1       0.717 -12.319 -26.328  1.00  0.00     0.032 C
HETATM   32  C14 UNL     1       1.437 -11.113 -26.784  1.00  0.00     0.013 C
BRANCH  30  33
HETATM   33  O4  UNL     1      -0.190 -14.240 -27.366  1.00  0.00    -0.396 OA
ATOM     34  H4  UNL     1      -0.357 -14.417 -28.284  1.00  0.00     0.210 HD
ENDBRANCH  30  33
ENDBRANCH   2  27
BRANCH  11  35
HETATM   35  O5  UNL     1       5.050  -5.434 -34.083  1.00  0.00    -0.355 OA
ATOM     36  H5  UNL     1       4.992  -4.491 -34.182  1.00  0.00     0.218 HD
ENDBRANCH  11  35
TORSDOF 9
ENDMDL