MODEL 2
REMARK VINA RESULT: -6.963912239      2.610      7.879
REMARK  7 active torsions:
REMARK  status: ('A' for Active; 'I' for Inactive)
REMARK    1  A    between atoms: C2_2  and  N1_5
REMARK       I    between atoms: N1_5  and  C5_7
REMARK       I    between atoms: C5_7  and  N2_9
REMARK    2  A    between atoms: N2_9  and  C6_11
REMARK    3  A    between atoms: C7_12  and  C8_13
REMARK    4  A    between atoms: C8_13  and  C9_14
REMARK    5  A    between atoms: C9_14  and  N3_15
REMARK    6  A    between atoms: C11_24  and  C12_25
REMARK    7  A    between atoms: C15_33  and  C16_34
ROOT
HETATM    1  C6  UNL     1       2.410 -11.004 -28.033  1.00  0.00     0.073 A
HETATM    2  C7  UNL     1       1.949 -12.208 -27.594  1.00  0.00    -0.006 A
HETATM    3  C10 UNL     1       2.769 -13.146 -28.260  1.00  0.00     0.098 A
HETATM    4  N4  UNL     1       3.638 -12.472 -29.028  1.00  0.00    -0.362 N
ATOM      5  H4  UNL     1       4.342 -12.921 -29.614  1.00  0.00     0.165 HD
HETATM    6  C11 UNL     1       3.478 -11.156 -28.941  1.00  0.00     0.089 A
ENDROOT
BRANCH   6   7
HETATM    7  C12 UNL     1       4.128 -10.065 -29.653  1.00  0.00     0.089 A
HETATM    8  N5  UNL     1       5.422  -9.704 -29.641  1.00  0.00    -0.297 N
HETATM    9  N6  UNL     1       5.667  -8.694 -30.463  1.00  0.00    -0.296 N
ATOM     10  H5  UNL     1       6.134 -10.155 -29.065  1.00  0.00     0.187 HD
HETATM   11  C13 UNL     1       4.519  -8.342 -31.064  1.00  0.00     0.100 A
ATOM     12  H6  UNL     1       6.576  -8.257 -30.614  1.00  0.00     0.187 HD
HETATM   13  C14 UNL     1       4.156  -7.404 -31.988  1.00  0.00     0.158 A
HETATM   14  C21 UNL     1       3.520  -9.196 -30.570  1.00  0.00     0.026 A
HETATM   15  F3  UNL     1       5.133  -6.576 -32.462  1.00  0.00    -0.203 F
HETATM   16  C15 UNL     1       2.889  -7.215 -32.489  1.00  0.00     0.040 A
HETATM   17  C19 UNL     1       1.926  -8.064 -31.994  1.00  0.00     0.018 A
HETATM   18  C20 UNL     1       2.237  -9.049 -31.041  1.00  0.00     0.017 A
BRANCH  16  19
HETATM   19  C16 UNL     1       2.570  -6.194 -33.474  1.00  0.00     0.105 A
HETATM   20  C17 UNL     1       1.939  -5.008 -33.222  1.00  0.00     0.127 A
HETATM   21  N7  UNL     1       1.845  -4.369 -34.402  1.00  0.00    -0.354 N
HETATM   22  C18 UNL     1       2.395  -5.130 -35.340  1.00  0.00     0.233 A
ATOM     23  H7  UNL     1       1.422  -3.453 -34.552  1.00  0.00     0.166 HD
HETATM   24  O2  UNL     1       2.823  -6.222 -34.752  1.00  0.00    -0.304 OA
ENDBRANCH  16  19
ENDBRANCH   6   7
BRANCH   1  25
HETATM   25  N2  UNL     1       1.918  -9.734 -27.619  1.00  0.00    -0.306 N
HETATM   26  C5  UNL     1       0.655  -9.234 -28.039  1.00  0.00     0.321 C
HETATM   27  N1  UNL     1       0.172  -7.961 -27.617  1.00  0.00    -0.335 N
HETATM   28  O1  UNL     1      -0.087  -9.900 -28.801  1.00  0.00    -0.247 OA
ATOM     29  H1  UNL     1       0.756  -7.401 -26.997  1.00  0.00     0.165 HD
ATOM     30  H2  UNL     1       2.491  -9.162 -26.999  1.00  0.00     0.171 HD
BRANCH  27  31
HETATM   31  C2  UNL     1      -1.094  -7.429 -28.022  1.00  0.00     0.023 C
HETATM   32  C1  UNL     1      -2.256  -8.310 -27.610  1.00  0.00     0.037 C
HETATM   33  C3  UNL     1      -1.302  -6.097 -27.328  1.00  0.00     0.037 C
HETATM   34  C4  UNL     1      -1.067  -7.237 -29.530  1.00  0.00     0.037 C
ENDBRANCH  27  31
ENDBRANCH   1  25
BRANCH   2  35
HETATM   35  C8  UNL     1       0.878 -12.619 -26.672  1.00  0.00     0.153 C
BRANCH  35  36
HETATM   36  C9  UNL     1      -0.398 -13.097 -27.234  1.00  0.00     0.405 C
HETATM   37  F1  UNL     1      -0.931 -13.960 -26.213  1.00  0.00    -0.174 F
HETATM   38  F2  UNL     1      -0.339 -13.915 -28.317  1.00  0.00    -0.174 F
BRANCH  36  39
HETATM   39  N3  UNL     1      -1.420 -12.061 -27.313  1.00  0.00    -0.013 N
ATOM     40  H33 UNL     1      -1.862 -11.920 -26.405  1.00  0.00     0.281 HD
ATOM     41  H32 UNL     1      -0.995 -11.143 -27.439  1.00  0.00     0.281 HD
ATOM     42  H31 UNL     1      -2.120 -12.238 -28.033  1.00  0.00     0.281 HD
ENDBRANCH  36  39
ENDBRANCH  35  36
ENDBRANCH   2  35
TORSDOF 7
ENDMDL