MODEL 5
REMARK VINA RESULT: -5.950222057     11.841     14.040
REMARK  6 active torsions:
REMARK  status: ('A' for Active; 'I' for Inactive)
REMARK    1  A    between atoms: C2_2  and  C3_4
REMARK    2  A    between atoms: C4_5  and  N1_6
REMARK    3  A    between atoms: N1_6  and  C5_8
REMARK    4  A    between atoms: C8_12  and  C9_13
REMARK    5  A    between atoms: C16_24  and  C17_25
REMARK    6  A    between atoms: C23_36  and  O2_37
ROOT
HETATM    1  C5  UNL     1       8.499 -18.150 -19.952  1.00  0.00     0.045 A
HETATM    2  C6  UNL     1       7.900 -17.620 -21.068  1.00  0.00     0.073 A
HETATM    3  C7  UNL     1       8.349 -17.952 -22.320  1.00  0.00     0.128 A
HETATM    4  F1  UNL     1       7.752 -17.417 -23.429  1.00  0.00    -0.205 F
HETATM    5  C8  UNL     1       9.431 -18.844 -22.449  1.00  0.00     0.024 A
HETATM    6  C15 UNL     1      10.026 -19.374 -21.335  1.00  0.00     0.135 A
HETATM    7  F2  UNL     1      11.084 -20.260 -21.466  1.00  0.00    -0.205 F
HETATM    8  C16 UNL     1       9.580 -19.043 -20.075  1.00  0.00     0.012 A
ENDROOT
BRANCH   1   9
HETATM    9  N1  UNL     1       7.939 -17.859 -18.669  1.00  0.00    -0.354 N
ATOM     10  H1  UNL     1       7.645 -18.648 -18.093  1.00  0.00     0.166 HD
BRANCH   9  11
HETATM   11  C4  UNL     1       7.763 -16.572 -18.141  1.00  0.00     0.066 A
HETATM   12  C3  UNL     1       8.664 -15.526 -18.114  1.00  0.00     0.088 A
HETATM   13  C23 UNL     1       7.997 -14.398 -17.599  1.00  0.00     0.156 A
HETATM   14  N4  UNL     1       6.742 -14.743 -17.324  1.00  0.00    -0.344 N
HETATM   15  C22 UNL     1       6.568 -16.033 -17.635  1.00  0.00     0.121 A
ATOM     16  H4  UNL     1       6.029 -14.125 -16.938  1.00  0.00     0.167 HD
BRANCH  12  17
HETATM   17  C2  UNL     1      10.059 -15.455 -18.494  1.00  0.00     0.162 C
HETATM   18  C1  UNL     1      11.157 -15.605 -17.546  1.00  0.00     0.097 C
HETATM   19  O1  UNL     1      10.381 -15.250 -19.710  1.00  0.00    -0.293 OA
ENDBRANCH  12  17
BRANCH  13  20
HETATM   20  O2  UNL     1       8.532 -13.120 -17.400  1.00  0.00    -0.345 OA
ATOM     21  H2  UNL     1       8.264 -12.314 -17.826  1.00  0.00     0.219 HD
ENDBRANCH  13  20
ENDBRANCH   9  11
ENDBRANCH   1   9
BRANCH   8  22
HETATM   22  C17 UNL     1      10.186 -19.542 -18.837  1.00  0.00     0.027 C
HETATM   23  C18 UNL     1      10.081 -21.012 -18.581  1.00  0.00     0.037 C
HETATM   24  C19 UNL     1      10.695 -21.186 -17.159  1.00  0.00     0.233 C
HETATM   25  N3  UNL     1      12.135 -21.081 -17.275  1.00  0.00    -0.075 N
HETATM   26  C20 UNL     1      12.533 -20.323 -18.437  1.00  0.00     0.233 C
ATOM     27  H32 UNL     1      12.547 -20.697 -16.424  1.00  0.00     0.277 HD
ATOM     28  H31 UNL     1      12.575 -22.001 -17.266  1.00  0.00     0.277 HD
HETATM   29  C21 UNL     1      11.640 -19.124 -18.672  1.00  0.00     0.037 C
ENDBRANCH   8  22
BRANCH   5  30
HETATM   30  C9  UNL     1       9.837 -19.152 -23.810  1.00  0.00     0.028 C
HETATM   31  C10 UNL     1      11.294 -18.990 -24.125  1.00  0.00     0.037 C
HETATM   32  C11 UNL     1      11.511 -19.166 -25.649  1.00  0.00     0.233 C
HETATM   33  N2  UNL     1      10.239 -19.491 -26.282  1.00  0.00    -0.071 N
HETATM   34  C12 UNL     1       9.663 -20.674 -25.716  1.00  0.00     0.182 C
ATOM     35  H22 UNL     1       9.590 -18.705 -26.245  1.00  0.00     0.277 HD
ATOM     36  H21 UNL     1      10.333 -19.568 -27.295  1.00  0.00     0.277 HD
HETATM   37  C13 UNL     1       8.304 -20.937 -26.339  1.00  0.00     0.040 C
HETATM   38  C14 UNL     1       9.525 -20.591 -24.212  1.00  0.00     0.042 C
ENDBRANCH   5  30
TORSDOF 6
ENDMDL