MODEL 3
REMARK VINA RESULT: -6.237688494     12.100     16.221
REMARK  6 active torsions:
REMARK  status: ('A' for Active; 'I' for Inactive)
REMARK    1  A    between atoms: N1_2  and  C2_4
REMARK    2  A    between atoms: C7_9  and  N2_10
REMARK    3  A    between atoms: N2_10  and  C8_12
REMARK       I    between atoms: N4_20  and  C13_21
REMARK    4  A    between atoms: C13_21  and  C14_23
REMARK    5  A    between atoms: C16_27  and  O2_28
REMARK    6  A    between atoms: C20_33  and  C21_34
ROOT
HETATM    1  C2  UNL     1       1.738  -5.836 -31.661  1.00  0.00     0.055 A
HETATM    2  C3  UNL     1       0.523  -6.235 -31.094  1.00  0.00     0.044 A
HETATM    3  C4  UNL     1       0.479  -7.402 -30.410  1.00  0.00     0.011 A
HETATM    4  C5  UNL     1       1.610  -8.187 -30.275  1.00  0.00     0.050 A
HETATM    5  C6  UNL     1       2.787  -7.782 -30.831  1.00  0.00     0.062 A
HETATM    6  C7  UNL     1       2.871  -6.588 -31.541  1.00  0.00     0.057 A
HETATM    7  N4  UNL     1       1.464  -9.461 -29.588  1.00  0.00    -0.308 N
HETATM    8  C13 UNL     1       2.249 -10.553 -29.994  1.00  0.00     0.260 C
HETATM    9  O1  UNL     1       2.938 -10.389 -31.084  1.00  0.00    -0.267 OA
HETATM   10  C18 UNL     1       0.453  -9.558 -28.561  1.00  0.00     0.097 C
HETATM   11  C19 UNL     1      -0.811 -10.215 -29.159  1.00  0.00     0.036 C
HETATM   12  C20 UNL     1      -1.282  -9.149 -30.146  1.00  0.00     0.061 C
HETATM   13  C22 UNL     1      -0.734  -7.859 -29.674  1.00  0.00     0.140 C
HETATM   14  F2  UNL     1      -1.668  -6.844 -29.580  1.00  0.00    -0.237 F
HETATM   15  C23 UNL     1      -0.164  -8.176 -28.275  1.00  0.00     0.075 C
ENDROOT
BRANCH   6  16
HETATM   16  N2  UNL     1       4.084  -6.207 -32.114  1.00  0.00    -0.382 N
ATOM     17  H2  UNL     1       4.717  -5.708 -31.489  1.00  0.00     0.160 HD
BRANCH  16  18
HETATM   18  C8  UNL     1       4.575  -6.406 -33.441  1.00  0.00     0.107 C
HETATM   19  C9  UNL     1       4.764  -5.187 -34.274  1.00  0.00     0.028 C
HETATM   20  C10 UNL     1       4.771  -5.697 -35.733  1.00  0.00     0.029 C
HETATM   21  C11 UNL     1       5.992  -6.585 -35.845  1.00  0.00     0.232 C
HETATM   22  N3  UNL     1       6.656  -6.795 -34.580  1.00  0.00    -0.073 N
HETATM   23  C12 UNL     1       5.770  -7.302 -33.566  1.00  0.00     0.257 C
ATOM     24  H32 UNL     1       7.471  -7.400 -34.690  1.00  0.00     0.277 HD
ATOM     25  H31 UNL     1       7.124  -5.945 -34.266  1.00  0.00     0.277 HD
ENDBRANCH  16  18
ENDBRANCH   6  16
BRANCH   1  26
HETATM   26  N1  UNL     1       1.699  -4.609 -32.354  1.00  0.00    -0.392 N
HETATM   27  C1  UNL     1       1.127  -4.473 -33.687  1.00  0.00     0.146 C
ATOM     28  H1  UNL     1       2.090  -3.782 -31.903  1.00  0.00     0.159 HD
ENDBRANCH   1  26
BRANCH   8  29
HETATM   29  C14 UNL     1       2.407 -11.842 -29.376  1.00  0.00     0.052 A
HETATM   30  C15 UNL     1       1.933 -13.092 -29.640  1.00  0.00     0.107 A
HETATM   31  N5  UNL     1       2.382 -14.008 -28.713  1.00  0.00    -0.346 N
HETATM   32  C16 UNL     1       3.144 -13.361 -27.852  1.00  0.00     0.140 A
ATOM     33  H5  UNL     1       2.164 -15.004 -28.696  1.00  0.00     0.167 HD
HETATM   34  C17 UNL     1       3.195 -12.050 -28.202  1.00  0.00     0.074 A
BRANCH  32  35
HETATM   35  O2  UNL     1       3.816 -13.891 -26.737  1.00  0.00    -0.346 OA
ATOM     36  H2  UNL     1       4.755 -13.949 -26.601  1.00  0.00     0.219 HD
ENDBRANCH  32  35
ENDBRANCH   8  29
BRANCH  12  37
HETATM   37  C21 UNL     1      -1.036  -9.501 -31.571  1.00  0.00     0.230 C
HETATM   38  F1  UNL     1      -0.631 -10.832 -31.606  1.00  0.00    -0.255 F
ENDBRANCH  12  37
TORSDOF 6
ENDMDL