MODEL 2
REMARK VINA RESULT: -6.133249117      4.221      8.536
REMARK  8 active torsions:
REMARK  status: ('A' for Active; 'I' for Inactive)
REMARK    1  A    between atoms: C4_5  and  O1_6
REMARK    2  A    between atoms: C8_12  and  C9_13
REMARK    3  A    between atoms: C11_19  and  C12_20
REMARK       I    between atoms: C12_20  and  N3_22
REMARK    4  A    between atoms: N3_22  and  C13_23
REMARK    5  A    between atoms: C13_23  and  C14_24
REMARK    6  A    between atoms: C14_24  and  N4_25
REMARK    7  A    between atoms: C15_29  and  N5_30
REMARK    8  A    between atoms: N5_30  and  C16_32
ROOT
HETATM    1  C9  UNL     1       1.546 -14.084 -26.744  1.00  0.00     0.072 A
HETATM    2  N1  UNL     1       2.270 -14.774 -27.772  1.00  0.00    -0.299 N
ATOM      3  H1  UNL     1       2.491 -15.770 -27.786  1.00  0.00     0.187 HD
HETATM    4  N2  UNL     1       2.595 -13.906 -28.686  1.00  0.00    -0.298 N
ATOM      5  H2  UNL     1       3.117 -14.118 -29.536  1.00  0.00     0.187 HD
HETATM    6  C10 UNL     1       2.123 -12.645 -28.331  1.00  0.00     0.079 A
HETATM    7  C11 UNL     1       2.242 -11.347 -28.904  1.00  0.00     0.102 A
HETATM    8  C15 UNL     1       1.788 -10.261 -28.274  1.00  0.00     0.048 A
HETATM    9  C20 UNL     1       1.165 -10.437 -27.054  1.00  0.00     0.031 A
HETATM   10  C21 UNL     1       0.989 -11.646 -26.466  1.00  0.00     0.018 A
HETATM   11  C22 UNL     1       1.492 -12.800 -27.120  1.00  0.00     0.022 A
ENDROOT
BRANCH   1  12
HETATM   12  C8  UNL     1       1.161 -14.913 -25.641  1.00  0.00     0.010 A
HETATM   13  C2  UNL     1       2.164 -15.154 -24.637  1.00  0.00    -0.007 A
HETATM   14  C1  UNL     1       3.569 -14.876 -25.000  1.00  0.00     0.052 C
HETATM   15  C3  UNL     1       1.846 -15.748 -23.464  1.00  0.00     0.158 A
HETATM   16  F1  UNL     1       2.733 -15.957 -22.500  1.00  0.00    -0.203 F
HETATM   17  C4  UNL     1       0.473 -16.119 -23.315  1.00  0.00     0.127 A
HETATM   18  C5  UNL     1      -0.448 -15.931 -24.184  1.00  0.00     0.077 A
HETATM   19 CL1  UNL     1      -2.146 -16.440 -23.991  1.00  0.00    -0.081 Cl
HETATM   20  C6  UNL     1      -0.094 -15.308 -25.383  1.00  0.00    -0.024 A
HETATM   21  C7  UNL     1      -1.231 -15.183 -26.380  1.00  0.00     0.051 C
BRANCH  17  22
HETATM   22  O1  UNL     1       0.216 -16.725 -22.032  1.00  0.00    -0.356 OA
ATOM     23  H1  UNL     1      -0.700 -16.660 -21.787  1.00  0.00     0.218 HD
ENDBRANCH  17  22
ENDBRANCH   1  12
BRANCH   7  24
HETATM   24  C12 UNL     1       2.997 -11.327 -30.214  1.00  0.00     0.330 C
HETATM   25  O2  UNL     1       2.631 -11.960 -31.188  1.00  0.00    -0.251 OA
HETATM   26  N3  UNL     1       4.188 -10.589 -30.145  1.00  0.00    -0.382 NA
BRANCH  26  27
HETATM   27  C13 UNL     1       5.338  -9.877 -30.079  1.00  0.00     0.186 C
BRANCH  27  28
HETATM   28  C14 UNL     1       5.542  -8.630 -30.807  1.00  0.00     0.288 C
BRANCH  28  29
HETATM   29  N4  UNL     1       6.974  -8.206 -30.735  1.00  0.00    -0.074 N
ATOM     30  H43 UNL     1       7.149  -7.369 -31.291  1.00  0.00     0.274 HD
ATOM     31  H42 UNL     1       7.212  -7.831 -29.817  1.00  0.00     0.274 HD
ATOM     32  H41 UNL     1       7.590  -8.973 -31.001  1.00  0.00     0.274 HD
ENDBRANCH  28  29
ENDBRANCH  27  28
ENDBRANCH  26  27
ENDBRANCH   7  24
BRANCH   8  33
HETATM   33  N5  UNL     1       1.930  -8.984 -28.817  1.00  0.00    -0.381 N
ATOM     34  H5  UNL     1       2.771  -8.477 -28.542  1.00  0.00     0.160 HD
BRANCH  33  35
HETATM   35  C16 UNL     1       1.069  -8.306 -29.690  1.00  0.00     0.019 C
HETATM   36  C17 UNL     1       1.851  -7.546 -30.787  1.00  0.00     0.037 C
HETATM   37  C18 UNL     1      -0.090  -8.992 -30.264  1.00  0.00     0.037 C
HETATM   38  C19 UNL     1       0.502  -7.101 -28.867  1.00  0.00     0.037 C
ENDBRANCH  33  35
ENDBRANCH   8  33
TORSDOF 8
ENDMDL