MODEL 1
REMARK VINA RESULT: -7.492242132      0.000      0.000
REMARK  5 active torsions:
REMARK  status: ('A' for Active; 'I' for Inactive)
REMARK    1  A    between atoms: C2_2  and  C3_3
REMARK    2  A    between atoms: C3_3  and  N1_4
REMARK       I    between atoms: N1_4  and  C4_6
REMARK       I    between atoms: C4_6  and  N2_8
REMARK    3  A    between atoms: N2_8  and  C5_10
REMARK    4  A    between atoms: C8_13  and  O2_14
REMARK    5  A    between atoms: C10_16  and  C11_17
ROOT
HETATM    1  C11 UNL     1       0.848  -8.444 -29.310  1.00  0.00     0.117 C
HETATM    2  C12 UNL     1       0.023  -9.089 -28.265  1.00  0.00     0.052 C
HETATM    3  C13 UNL     1      -1.183  -8.288 -27.850  1.00  0.00     0.056 C
HETATM    4  C14 UNL     1      -0.976  -6.824 -27.731  1.00  0.00     0.171 C
HETATM    5  F1  UNL     1      -1.119  -6.393 -26.421  1.00  0.00    -0.233 F
HETATM    6  C15 UNL     1       0.347  -6.341 -28.196  1.00  0.00     0.114 C
HETATM    7  N3  UNL     1       0.737  -5.184 -27.778  1.00  0.00    -0.386 N
ATOM      8  H31 UNL     1       1.647  -4.851 -28.098  1.00  0.00     0.157 HD
ATOM      9  H32 UNL     1       0.128  -4.657 -27.153  1.00  0.00     0.157 HD
HETATM   10  N4  UNL     1       1.183  -7.064 -29.053  1.00  0.00    -0.354 N
ATOM     11  H4  UNL     1       2.001  -6.632 -29.482  1.00  0.00     0.162 HD
HETATM   12  C16 UNL     1      -2.055  -6.124 -28.526  1.00  0.00     0.017 C
HETATM   13  C17 UNL     1      -1.909  -4.605 -28.377  1.00  0.00     0.023 C
HETATM   14  C18 UNL     1      -3.433  -6.471 -28.023  1.00  0.00     0.023 C
HETATM   15  C19 UNL     1      -1.937  -6.387 -30.002  1.00  0.00     0.035 C
HETATM   16  C20 UNL     1      -1.285  -7.144 -30.853  1.00  0.00     0.152 C
HETATM   17  F2  UNL     1      -1.670  -6.869 -32.147  1.00  0.00    -0.199 F
HETATM   18  S1  UNL     1      -0.044  -8.435 -30.909  1.00  0.00    -0.064 SA
ENDROOT
BRANCH   1  19
HETATM   19  C10 UNL     1       2.120  -9.190 -29.476  1.00  0.00     0.016 A
HETATM   20  C8  UNL     1       3.136  -8.571 -30.188  1.00  0.00     0.077 A
HETATM   21  C7  UNL     1       4.346  -9.205 -30.361  1.00  0.00     0.039 A
HETATM   22  C6  UNL     1       4.522 -10.476 -29.807  1.00  0.00     0.032 A
HETATM   23  C5  UNL     1       3.549 -11.137 -29.093  1.00  0.00     0.037 A
HETATM   24  C21 UNL     1       2.343 -10.418 -28.963  1.00  0.00     0.043 A
BRANCH  20  25
HETATM   25  O2  UNL     1       2.971  -7.312 -30.744  1.00  0.00    -0.355 OA
HETATM   26  C9  UNL     1       3.771  -6.926 -31.836  1.00  0.00     0.210 C
ENDBRANCH  20  25
BRANCH  23  27
HETATM   27  N2  UNL     1       3.657 -12.414 -28.520  1.00  0.00    -0.309 N
HETATM   28  C4  UNL     1       2.975 -12.916 -27.414  1.00  0.00     0.320 C
HETATM   29  N1  UNL     1       3.185 -14.257 -26.940  1.00  0.00    -0.343 N
HETATM   30  O1  UNL     1       2.146 -12.242 -26.769  1.00  0.00    -0.247 OA
ATOM     31  H1  UNL     1       3.854 -14.854 -27.427  1.00  0.00     0.164 HD
ATOM     32  H2  UNL     1       4.315 -13.052 -28.969  1.00  0.00     0.170 HD
BRANCH  29  33
HETATM   33  C3  UNL     1       2.489 -14.774 -25.815  1.00  0.00     0.124 C
BRANCH  33  34
HETATM   34  C2  UNL     1       3.342 -15.356 -24.728  1.00  0.00     0.015 C
HETATM   35  C1  UNL     1       2.572 -15.123 -23.418  1.00  0.00     0.006 C
ENDBRANCH  33  34
ENDBRANCH  29  33
ENDBRANCH  23  27
ENDBRANCH   1  19
TORSDOF 5
ENDMDL