MODEL 3
REMARK VINA RESULT: -6.561500310      1.458      2.023
REMARK  6 active torsions:
REMARK  status: ('A' for Active; 'I' for Inactive)
REMARK    1  A    between atoms: C1_4  and  C2_6
REMARK    2  A    between atoms: N3_9  and  C5_10
REMARK    3  A    between atoms: C6_11  and  N4_12
REMARK    4  A    between atoms: N4_12  and  C7_14
REMARK    5  A    between atoms: C9_18  and  N6_19
REMARK    6  A    between atoms: C13_28  and  C14_29
ROOT
HETATM    1  C5  UNL     1       0.555 -10.705 -28.635  1.00  0.00     0.098 A
HETATM    2  C6  UNL     1       1.033  -9.549 -29.249  1.00  0.00     0.063 A
HETATM    3  C11 UNL     1       0.355  -8.365 -29.010  1.00  0.00     0.046 A
HETATM    4  C12 UNL     1      -0.796  -8.316 -28.172  1.00  0.00     0.004 A
HETATM    5  C13 UNL     1      -1.674  -7.299 -27.853  1.00  0.00    -0.026 A
HETATM    6  C19 UNL     1      -2.685  -7.855 -27.061  1.00  0.00     0.097 A
HETATM    7  N8  UNL     1      -2.374  -9.179 -26.939  1.00  0.00    -0.362 N
ATOM      8  H8  UNL     1      -2.929  -9.856 -26.416  1.00  0.00     0.165 HD
HETATM    9  C20 UNL     1      -1.241  -9.473 -27.598  1.00  0.00     0.084 A
HETATM   10  C21 UNL     1      -0.569 -10.632 -27.833  1.00  0.00     0.172 A
HETATM   11  F2  UNL     1      -1.027 -11.788 -27.246  1.00  0.00    -0.201 F
ENDROOT
BRANCH   2  12
HETATM   12  N4  UNL     1       2.073  -9.709 -30.145  1.00  0.00    -0.350 N
ATOM     13  H4  UNL     1       1.746 -10.195 -30.981  1.00  0.00     0.166 HD
BRANCH  12  14
HETATM   14  C7  UNL     1       3.414  -9.417 -30.259  1.00  0.00     0.106 A
HETATM   15  C8  UNL     1       4.464 -10.099 -29.725  1.00  0.00     0.140 A
HETATM   16  N5  UNL     1       5.734  -9.673 -29.919  1.00  0.00    -0.200 N
HETATM   17  C9  UNL     1       6.054  -8.580 -30.631  1.00  0.00     0.677 A
ATOM     18  H5  UNL     1       6.492 -10.214 -29.501  1.00  0.00     0.183 HD
HETATM   19  N7  UNL     1       5.060  -7.890 -31.164  1.00  0.00    -0.164 N
HETATM   20  C10 UNL     1       3.797  -8.273 -30.996  1.00  0.00     0.231 A
ATOM     21  H7  UNL     1       5.265  -7.054 -31.712  1.00  0.00     0.186 HD
HETATM   22  F1  UNL     1       2.850  -7.498 -31.580  1.00  0.00    -0.183 F
BRANCH  17  23
HETATM   23  N6  UNL     1       7.267  -8.174 -30.784  1.00  0.00    -0.234 N
ATOM     24  H62 UNL     1       8.029  -8.852 -30.798  1.00  0.00     0.174 HD
ATOM     25  H61 UNL     1       7.511  -7.192 -30.916  1.00  0.00     0.174 HD
ENDBRANCH  17  23
ENDBRANCH  12  14
ENDBRANCH   2  12
BRANCH   1  26
HETATM   26  N3  UNL     1       1.266 -11.958 -28.662  1.00  0.00    -0.376 N
HETATM   27  C4  UNL     1       2.300 -12.568 -27.986  1.00  0.00     0.124 C
HETATM   28  C3  UNL     1       2.031 -14.086 -28.195  1.00  0.00     0.033 C
HETATM   29  C2  UNL     1       1.668 -14.071 -29.651  1.00  0.00     0.069 C
HETATM   30  C22 UNL     1       0.844 -12.850 -29.787  1.00  0.00     0.135 C
BRANCH  29  31
HETATM   31  C1  UNL     1       1.019 -15.241 -30.196  1.00  0.00     0.092 C
HETATM   32  N1  UNL     1       1.637 -16.347 -30.418  1.00  0.00    -0.391 N
ATOM     33  H12 UNL     1       1.179 -17.173 -30.803  1.00  0.00     0.157 HD
ATOM     34  H11 UNL     1       2.631 -16.347 -30.187  1.00  0.00     0.157 HD
HETATM   35  N2  UNL     1      -0.366 -15.242 -30.518  1.00  0.00    -0.088 NA
ENDBRANCH  29  31
ENDBRANCH   1  26
BRANCH   5  36
HETATM   36  C14 UNL     1      -1.449  -5.870 -28.122  1.00  0.00     0.021 C
HETATM   37  C15 UNL     1      -1.391  -5.463 -29.567  1.00  0.00     0.009 C
HETATM   38  C16 UNL     1      -2.744  -5.746 -30.126  1.00  0.00     0.001 C
HETATM   39  C17 UNL     1      -3.642  -5.154 -29.054  1.00  0.00     0.001 C
HETATM   40  C18 UNL     1      -2.833  -5.179 -27.782  1.00  0.00     0.009 C
ENDBRANCH   5  36
TORSDOF 6
ENDMDL