MODEL 2
REMARK VINA RESULT: -6.027505090      1.539      1.851
REMARK  7 active torsions:
REMARK  status: ('A' for Active; 'I' for Inactive)
REMARK    1  A    between atoms: C2_2  and  N1_5
REMARK    2  A    between atoms: N1_5  and  C4_7
REMARK    3  A    between atoms: C6_11  and  C7_12
REMARK    4  A    between atoms: C12_20  and  N4_21
REMARK    5  A    between atoms: C14_25  and  C15_26
REMARK       I    between atoms: C15_26  and  N5_28
REMARK    6  A    between atoms: N5_28  and  C16_30
REMARK    7  A    between atoms: C16_30  and  C17_31
ROOT
HETATM    1  C4  UNL     1       1.829  -9.247 -28.651  1.00  0.00     0.119 A
HETATM    2  N2  UNL     1       1.251  -9.719 -27.531  1.00  0.00    -0.351 N
ATOM      3  H2  UNL     1       1.666 -10.422 -26.919  1.00  0.00     0.166 HD
HETATM    4  C5  UNL     1       0.074  -9.152 -27.329  1.00  0.00     0.103 A
HETATM    5  C6  UNL     1      -0.156  -8.238 -28.382  1.00  0.00     0.011 A
HETATM    6  C14 UNL     1       0.927  -8.307 -29.180  1.00  0.00     0.088 A
ENDROOT
BRANCH   5   7
HETATM    7  C7  UNL     1      -1.476  -7.584 -28.434  1.00  0.00    -0.002 A
HETATM    8  C8  UNL     1      -2.559  -8.347 -28.825  1.00  0.00     0.063 A
HETATM    9  S1  UNL     1      -3.878  -7.302 -28.571  1.00  0.00    -0.100 SA
HETATM   10  C9  UNL     1      -3.046  -5.938 -27.982  1.00  0.00     0.021 A
HETATM   11  C10 UNL     1      -3.454  -4.665 -27.563  1.00  0.00     0.037 A
HETATM   12  C13 UNL     1      -1.735  -6.339 -28.000  1.00  0.00     0.036 A
HETATM   13  C11 UNL     1      -2.519  -3.747 -27.143  1.00  0.00     0.091 A
HETATM   14  N3  UNL     1      -1.244  -4.155 -27.169  1.00  0.00    -0.352 N
HETATM   15  C12 UNL     1      -0.826  -5.361 -27.563  1.00  0.00     0.111 A
ATOM     16  H3  UNL     1      -0.533  -3.491 -26.862  1.00  0.00     0.166 HD
BRANCH  15  17
HETATM   17  N4  UNL     1       0.454  -5.564 -27.535  1.00  0.00    -0.385 N
ATOM     18  H42 UNL     1       0.960  -5.752 -26.669  1.00  0.00     0.157 HD
ATOM     19  H41 UNL     1       0.936  -5.540 -28.433  1.00  0.00     0.157 HD
ENDBRANCH  15  17
ENDBRANCH   5   7
BRANCH   6  20
HETATM   20  C15 UNL     1       1.171  -7.533 -30.387  1.00  0.00     0.260 C
HETATM   21  O1  UNL     1       1.354  -6.290 -30.244  1.00  0.00    -0.267 OA
HETATM   22  N5  UNL     1       1.210  -8.032 -31.679  1.00  0.00    -0.334 N
ATOM     23  H5  UNL     1       1.029  -9.028 -31.805  1.00  0.00     0.168 HD
BRANCH  22  24
HETATM   24  C16 UNL     1       1.484  -7.255 -32.848  1.00  0.00     0.096 C
BRANCH  24  25
HETATM   25  C17 UNL     1       2.830  -6.913 -33.257  1.00  0.00     0.159 C
HETATM   26  C18 UNL     1       3.374  -5.541 -33.273  1.00  0.00     0.039 C
HETATM   27  C19 UNL     1       4.803  -5.874 -33.797  1.00  0.00     0.029 C
HETATM   28  C20 UNL     1       5.027  -7.189 -33.073  1.00  0.00     0.168 C
HETATM   29  O2  UNL     1       3.822  -7.565 -32.475  1.00  0.00    -0.381 OA
ENDBRANCH  24  25
ENDBRANCH  22  24
ENDBRANCH   6  20
BRANCH   1  30
HETATM   30  N1  UNL     1       3.078  -9.620 -29.179  1.00  0.00    -0.354 N
ATOM     31  H1  UNL     1       3.856  -8.960 -29.171  1.00  0.00     0.163 HD
BRANCH  30  32
HETATM   32  C2  UNL     1       3.258 -10.979 -29.745  1.00  0.00     0.101 C
HETATM   33  C1  UNL     1       2.174 -11.326 -30.721  1.00  0.00     0.056 C
HETATM   34  C3  UNL     1       4.649 -11.085 -30.326  1.00  0.00     0.056 C
HETATM   35 CL1  UNL     1       3.172 -12.189 -28.436  1.00  0.00    -0.096 Cl
ENDBRANCH  30  32
ENDBRANCH   1  30
TORSDOF 7
ENDMDL