MODEL 3
REMARK VINA RESULT: -6.050946684     13.452     15.861
REMARK  7 active torsions:
REMARK  status: ('A' for Active; 'I' for Inactive)
REMARK    1  A    between atoms: C2_2  and  C4_4
REMARK    2  A    between atoms: C13_15  and  C14_16
REMARK    3  A    between atoms: C14_16  and  N1_17
REMARK    4  A    between atoms: N1_17  and  C15_19
REMARK    5  A    between atoms: C15_19  and  C16_20
REMARK    6  A    between atoms: N2_22  and  O1_24
REMARK    7  A    between atoms: C21_29  and  O2_30
ROOT
HETATM    1  C14 UNL     1      -0.665 -11.369 -27.666  1.00  0.00     0.094 C
ENDROOT
BRANCH   1   2
HETATM    2  C13 UNL     1       0.618 -12.027 -27.364  1.00  0.00     0.296 C
HETATM    3  C12 UNL     1       0.697 -13.254 -26.570  1.00  0.00     0.283 C
HETATM    4  C6  UNL     1       1.752 -14.244 -27.081  1.00  0.00     0.030 C
HETATM    5  F1  UNL     1      -0.513 -13.953 -26.676  1.00  0.00    -0.203 F
HETATM    6  F2  UNL     1       0.940 -13.084 -25.222  1.00  0.00    -0.203 F
HETATM    7  C5  UNL     1       3.037 -13.536 -27.508  1.00  0.00     0.049 C
HETATM    8  C7  UNL     1       2.147 -15.116 -25.927  1.00  0.00     0.015 C
HETATM    9  C11 UNL     1       1.198 -14.962 -28.258  1.00  0.00     0.015 C
HETATM   10  C4  UNL     1       2.795 -12.214 -28.130  1.00  0.00     0.191 C
HETATM   11  N3  UNL     1       1.435 -12.103 -28.603  1.00  0.00    -0.056 N
ATOM     12  H32 UNL     1       1.280 -11.332 -29.252  1.00  0.00     0.278 HD
ATOM     13  H31 UNL     1       1.154 -12.847 -29.242  1.00  0.00     0.278 HD
HETATM   14  C8  UNL     1       1.248 -16.310 -25.710  1.00  0.00     0.001 C
HETATM   15  C9  UNL     1       1.423 -17.141 -26.992  1.00  0.00     0.000 C
HETATM   16  C10 UNL     1       0.736 -16.358 -28.056  1.00  0.00     0.001 C
BRANCH  10  17
HETATM   17  C2  UNL     1       3.831 -11.875 -29.169  1.00  0.00     0.008 C
HETATM   18  C1  UNL     1       4.201 -10.427 -29.224  1.00  0.00     0.011 C
HETATM   19  C3  UNL     1       3.394 -12.321 -30.535  1.00  0.00     0.011 C
ENDBRANCH  10  17
ENDBRANCH   1   2
BRANCH   1  20
HETATM   20  N1  UNL     1      -0.904 -10.015 -27.546  1.00  0.00    -0.399 N
ATOM     21  H1  UNL     1      -1.833  -9.729 -27.238  1.00  0.00     0.158 HD
BRANCH  20  22
HETATM   22  C15 UNL     1       0.008  -9.021 -27.808  1.00  0.00     0.134 C
BRANCH  22  23
HETATM   23  C16 UNL     1      -0.430  -8.081 -28.948  1.00  0.00     0.084 C
HETATM   24  C17 UNL     1       0.123  -6.725 -28.780  1.00  0.00     0.024 C
HETATM   25  N2  UNL     1       0.392  -6.163 -27.659  1.00  0.00    -0.276 N
HETATM   26  C18 UNL     1       0.293  -6.174 -30.149  1.00  0.00     0.094 C
ATOM     27  H2  UNL     1       0.223  -6.665 -26.788  1.00  0.00     0.193 HD
HETATM   28  C19 UNL     1       0.482  -7.430 -30.956  1.00  0.00    -0.043 A
HETATM   29  C20 UNL     1       1.005  -7.537 -32.245  1.00  0.00     0.044 A
HETATM   30  C24 UNL     1       0.062  -8.525 -30.243  1.00  0.00    -0.040 A
HETATM   31  C21 UNL     1       1.120  -8.753 -32.851  1.00  0.00     0.066 A
HETATM   32  C22 UNL     1       0.704  -9.880 -32.154  1.00  0.00     0.037 A
HETATM   33  C23 UNL     1       0.189  -9.764 -30.884  1.00  0.00     0.011 A
BRANCH  25  34
HETATM   34  O1  UNL     1       0.899  -4.907 -27.624  1.00  0.00    -0.290 OA
ATOM     35  H1  UNL     1       0.386  -4.189 -27.272  1.00  0.00     0.244 HD
ENDBRANCH  25  34
BRANCH  31  36
HETATM   36  O2  UNL     1       1.635  -8.939 -34.140  1.00  0.00    -0.361 OA
ATOM     37  H2  UNL     1       2.007  -9.756 -34.450  1.00  0.00     0.217 HD
ENDBRANCH  31  36
ENDBRANCH  22  23
ENDBRANCH  20  22
ENDBRANCH   1  20
TORSDOF 7
ENDMDL