MODEL 3
REMARK VINA RESULT: -6.675128748      2.601      6.365
REMARK  8 active torsions:
REMARK  status: ('A' for Active; 'I' for Inactive)
REMARK       I    between atoms: C1_2  and  N1_3
REMARK    1  A    between atoms: C1_2  and  C10_13
REMARK    2  A    between atoms: N1_3  and  C2_5
REMARK    3  A    between atoms: C2_5  and  C3_6
REMARK    4  A    between atoms: C3_6  and  C4_7
REMARK    5  A    between atoms: C11_14  and  N2_15
REMARK    6  A    between atoms: N2_15  and  C12_17
REMARK    7  A    between atoms: C14_23  and  O2_24
REMARK    8  A    between atoms: C18_31  and  O3_32
ROOT
HETATM    1  C10 UNL     1       1.484  -8.002 -30.382  1.00  0.00     0.080 A
HETATM    2  C11 UNL     1       0.757  -6.994 -30.976  1.00  0.00     0.093 A
HETATM    3  S1  UNL     1       1.918  -6.174 -31.908  1.00  0.00    -0.070 SA
HETATM    4  C15 UNL     1       3.284  -7.108 -31.531  1.00  0.00     0.024 A
HETATM    5  C16 UNL     1       4.626  -7.015 -31.923  1.00  0.00     0.065 A
HETATM    6  C17 UNL     1       5.558  -7.902 -31.448  1.00  0.00     0.153 A
HETATM    7  F1  UNL     1       6.865  -7.870 -31.785  1.00  0.00    -0.203 F
HETATM    8  C18 UNL     1       5.111  -8.871 -30.579  1.00  0.00     0.144 A
HETATM    9  C19 UNL     1       3.802  -8.948 -30.207  1.00  0.00     0.165 A
HETATM   10  F2  UNL     1       3.523  -9.947 -29.303  1.00  0.00    -0.202 F
HETATM   11  C20 UNL     1       2.808  -8.063 -30.669  1.00  0.00     0.041 A
ENDROOT
BRANCH   1  12
HETATM   12  C1  UNL     1       0.737  -8.905 -29.469  1.00  0.00     0.255 C
HETATM   13  O1  UNL     1       0.022  -9.781 -30.003  1.00  0.00    -0.268 OA
HETATM   14  N1  UNL     1       0.808  -8.811 -28.061  1.00  0.00    -0.356 N
ATOM     15  H1  UNL     1       1.392  -8.106 -27.612  1.00  0.00     0.162 HD
BRANCH  14  16
HETATM   16  C2  UNL     1       0.033  -9.741 -27.273  1.00  0.00     0.127 C
BRANCH  16  17
HETATM   17  C3  UNL     1       0.865 -10.509 -26.294  1.00  0.00     0.053 C
BRANCH  17  18
HETATM   18  C4  UNL     1       1.105 -11.879 -26.809  1.00  0.00    -0.082 C
HETATM   19  C5  UNL     1       1.871 -12.134 -27.868  1.00  0.00    -0.024 C
HETATM   20  C6  UNL     1       1.990 -13.595 -28.231  1.00  0.00     0.027 C
HETATM   21  C7  UNL     1       2.551 -14.245 -26.960  1.00  0.00     0.004 C
HETATM   22  C8  UNL     1       1.481 -14.172 -25.899  1.00  0.00     0.005 C
HETATM   23  C9  UNL     1       0.490 -13.085 -26.157  1.00  0.00     0.034 C
ENDBRANCH  17  18
ENDBRANCH  16  17
ENDBRANCH  14  16
ENDBRANCH   1  12
BRANCH   2  24
HETATM   24  N2  UNL     1      -0.647  -6.714 -30.859  1.00  0.00    -0.333 N
ATOM     25  H2  UNL     1      -1.320  -7.322 -31.325  1.00  0.00     0.168 HD
BRANCH  24  26
HETATM   26  C12 UNL     1      -1.067  -5.714 -30.177  1.00  0.00     0.156 A
HETATM   27  N3  UNL     1      -1.010  -4.397 -30.400  1.00  0.00    -0.283 N
HETATM   28  N4  UNL     1      -1.599  -3.803 -29.379  1.00  0.00    -0.307 N
ATOM     29  H3  UNL     1      -0.590  -3.938 -31.208  1.00  0.00     0.188 HD
HETATM   30  C13 UNL     1      -2.045  -4.696 -28.485  1.00  0.00     0.147 A
ATOM     31  H4  UNL     1      -1.703  -2.793 -29.283  1.00  0.00     0.186 HD
HETATM   32  C14 UNL     1      -1.725  -5.931 -28.957  1.00  0.00     0.128 A
BRANCH  32  33
HETATM   33  O2  UNL     1      -1.985  -7.174 -28.371  1.00  0.00    -0.356 OA
ATOM     34  H2  UNL     1      -1.651  -7.479 -27.536  1.00  0.00     0.218 HD
ENDBRANCH  32  33
ENDBRANCH  24  26
ENDBRANCH   2  24
BRANCH   8  35
HETATM   35  O3  UNL     1       6.017  -9.808 -30.056  1.00  0.00    -0.355 OA
ATOM     36  H3  UNL     1       5.690 -10.589 -29.625  1.00  0.00     0.218 HD
ENDBRANCH   8  35
TORSDOF 8
ENDMDL