MODEL 2
REMARK VINA RESULT: -5.812702348      3.176      6.710
REMARK  10 active torsions:
REMARK  status: ('A' for Active; 'I' for Inactive)
REMARK    1  A    between atoms: C2_2  and  C5_5
REMARK    2  A    between atoms: C7_7  and  C8_8
REMARK    3  A    between atoms: C11_15  and  C12_16
REMARK    4  A    between atoms: C12_16  and  O1_17
REMARK    5  A    between atoms: O1_17  and  C13_18
REMARK       I    between atoms: C13_18  and  N2_20
REMARK    6  A    between atoms: N2_20  and  C14_22
REMARK    7  A    between atoms: C14_22  and  C15_23
REMARK    8  A    between atoms: C15_23  and  O3_24
REMARK    9  A    between atoms: C16_28  and  C17_29
REMARK   10  A    between atoms: C21_33  and  O4_34
ROOT
HETATM    1  C8  UNL     1       6.124 -18.106 -23.932  1.00  0.00     0.072 A
HETATM    2  N1  UNL     1       5.037 -18.661 -23.438  1.00  0.00    -0.342 N
ATOM      3  H1  UNL     1       4.832 -19.660 -23.481  1.00  0.00     0.167 HD
HETATM    4  C9  UNL     1       4.233 -17.750 -22.871  1.00  0.00     0.143 A
HETATM    5 CL1  UNL     1       2.701 -17.997 -22.095  1.00  0.00    -0.061 Cl
HETATM    6  C10 UNL     1       4.844 -16.493 -23.004  1.00  0.00     0.165 A
HETATM    7  F1  UNL     1       4.325 -15.331 -22.501  1.00  0.00    -0.202 F
HETATM    8  C11 UNL     1       6.022 -16.730 -23.669  1.00  0.00     0.037 A
ENDROOT
BRANCH   1   9
HETATM    9  C7  UNL     1       7.203 -18.811 -24.605  1.00  0.00     0.060 A
HETATM   10  C6  UNL     1       8.484 -18.843 -24.039  1.00  0.00     0.042 A
HETATM   11  C5  UNL     1       9.555 -19.488 -24.610  1.00  0.00    -0.013 A
HETATM   12  C21 UNL     1       9.338 -20.133 -25.808  1.00  0.00     0.096 A
HETATM   13  C16 UNL     1       8.081 -20.112 -26.382  1.00  0.00     0.051 A
HETATM   14  N3  UNL     1       7.085 -19.465 -25.768  1.00  0.00    -0.355 N
ATOM     15  H3  UNL     1       6.170 -19.468 -26.219  1.00  0.00     0.166 HD
BRANCH  11  16
HETATM   16  C2  UNL     1      10.891 -19.488 -23.950  1.00  0.00    -0.021 C
HETATM   17  C1  UNL     1      10.700 -18.889 -22.571  1.00  0.00     0.019 C
HETATM   18  C3  UNL     1      11.855 -18.558 -24.683  1.00  0.00     0.019 C
HETATM   19  C4  UNL     1      11.466 -20.848 -23.776  1.00  0.00     0.019 C
ENDBRANCH  11  16
BRANCH  12  20
HETATM   20  O4  UNL     1      10.333 -20.803 -26.463  1.00  0.00    -0.358 OA
ATOM     21  H4  UNL     1      10.498 -20.680 -27.390  1.00  0.00     0.217 HD
ENDBRANCH  12  20
BRANCH  13  22
HETATM   22  C17 UNL     1       7.876 -20.824 -27.689  1.00  0.00    -0.006 C
HETATM   23  C18 UNL     1       7.851 -22.322 -27.468  1.00  0.00     0.021 C
HETATM   24  C19 UNL     1       6.545 -20.433 -28.300  1.00  0.00     0.021 C
HETATM   25  C20 UNL     1       8.954 -20.433 -28.662  1.00  0.00     0.021 C
ENDBRANCH  13  22
ENDBRANCH   1   9
BRANCH   8  26
HETATM   26  C12 UNL     1       7.088 -15.804 -24.036  1.00  0.00     0.225 C
BRANCH  26  27
HETATM   27  O1  UNL     1       7.644 -15.067 -22.998  1.00  0.00    -0.299 OA
BRANCH  27  28
HETATM   28  C13 UNL     1       8.675 -15.449 -22.166  1.00  0.00     0.360 C
HETATM   29  O2  UNL     1       9.870 -15.179 -22.504  1.00  0.00    -0.239 OA
HETATM   30  N2  UNL     1       8.460 -16.139 -20.935  1.00  0.00    -0.335 N
ATOM     31  H2  UNL     1       7.500 -16.356 -20.668  1.00  0.00     0.164 HD
BRANCH  30  32
HETATM   32  C14 UNL     1       9.509 -16.544 -20.059  1.00  0.00     0.151 C
BRANCH  32  33
HETATM   33  C15 UNL     1       9.558 -15.634 -18.854  1.00  0.00     0.183 C
BRANCH  33  34
HETATM   34  O3  UNL     1       8.388 -14.870 -18.744  1.00  0.00    -0.399 OA
ATOM     35  H3  UNL     1       8.333 -14.443 -17.897  1.00  0.00     0.209 HD
ENDBRANCH  33  34
ENDBRANCH  32  33
ENDBRANCH  30  32
ENDBRANCH  27  28
ENDBRANCH  26  27
ENDBRANCH   8  26
TORSDOF 10
ENDMDL