MODEL 1
REMARK VINA RESULT: -6.604799180      0.000      0.000
REMARK  7 active torsions:
REMARK  status: ('A' for Active; 'I' for Inactive)
REMARK    1  A    between atoms: C2_2  and  C4_4
REMARK    2  A    between atoms: C4_4  and  N1_5
REMARK    3  A    between atoms: N1_5  and  C5_8
REMARK    4  A    between atoms: N2_11  and  C8_12
REMARK    5  A    between atoms: C9_13  and  O1_14
REMARK    6  A    between atoms: C10_16  and  C11_17
REMARK    7  A    between atoms: C17_26  and  N4_27
ROOT
HETATM    1  C8  UNL     1       9.166 -17.135 -21.391  1.00  0.00     0.107 A
HETATM    2  C9  UNL     1       7.819 -16.986 -21.654  1.00  0.00     0.109 A
HETATM    3  C10 UNL     1       7.276 -17.299 -22.887  1.00  0.00     0.055 A
HETATM    4  C18 UNL     1       8.103 -17.772 -23.878  1.00  0.00     0.172 A
HETATM    5  F1  UNL     1       7.555 -18.073 -25.079  1.00  0.00    -0.202 F
HETATM    6  C19 UNL     1       9.450 -17.929 -23.638  1.00  0.00     0.196 A
HETATM    7  F2  UNL     1      10.276 -18.397 -24.600  1.00  0.00    -0.199 F
HETATM    8  C20 UNL     1       9.984 -17.609 -22.385  1.00  0.00     0.187 A
HETATM    9  F3  UNL     1      11.311 -17.758 -22.129  1.00  0.00    -0.200 F
ENDROOT
BRANCH   1  10
HETATM   10  N2  UNL     1       9.676 -16.787 -20.102  1.00  0.00    -0.376 N
HETATM   11  C7  UNL     1       9.692 -15.454 -19.604  1.00  0.00     0.125 C
HETATM   12  C6  UNL     1       9.384 -15.308 -18.140  1.00  0.00     0.053 C
HETATM   13  C5  UNL     1       9.217 -16.633 -17.475  1.00  0.00     0.189 C
HETATM   14  C22 UNL     1      10.423 -17.489 -17.880  1.00  0.00     0.053 C
HETATM   15  C21 UNL     1      10.199 -17.876 -19.309  1.00  0.00     0.125 C
BRANCH  13  16
HETATM   16  N1  UNL     1       9.089 -16.599 -16.047  1.00  0.00    -0.070 N
ATOM     17  H12 UNL     1       8.823 -15.664 -15.737  1.00  0.00     0.277 HD
ATOM     18  H11 UNL     1      10.006 -16.676 -15.607  1.00  0.00     0.277 HD
BRANCH  16  19
HETATM   19  C4  UNL     1       8.198 -17.571 -15.508  1.00  0.00     0.236 C
BRANCH  19  20
HETATM   20  C2  UNL     1       8.889 -18.605 -14.650  1.00  0.00     0.003 C
HETATM   21  C1  UNL     1       8.721 -19.938 -15.388  1.00  0.00     0.011 C
HETATM   22  C3  UNL     1      10.356 -18.385 -14.493  1.00  0.00     0.011 C
ENDBRANCH  19  20
ENDBRANCH  16  19
ENDBRANCH  13  16
ENDBRANCH   1  10
BRANCH   2  23
HETATM   23  O1  UNL     1       7.013 -16.501 -20.612  1.00  0.00    -0.357 OA
ATOM     24  H1  UNL     1       7.366 -15.794 -20.085  1.00  0.00     0.217 HD
ENDBRANCH   2  23
BRANCH   3  25
HETATM   25  C11 UNL     1       5.824 -17.121 -23.136  1.00  0.00     0.023 A
HETATM   26  C12 UNL     1       4.960 -18.140 -22.813  1.00  0.00     0.103 A
HETATM   27  N3  UNL     1       3.660 -17.942 -23.058  1.00  0.00    -0.359 N
HETATM   28  C13 UNL     1       3.210 -16.770 -23.611  1.00  0.00     0.086 A
ATOM     29  H3  UNL     1       2.990 -18.676 -22.830  1.00  0.00     0.166 HD
HETATM   30  S1  UNL     1       1.655 -16.211 -24.037  1.00  0.00    -0.083 SA
HETATM   31  C16 UNL     1       4.020 -15.730 -23.949  1.00  0.00     0.025 A
HETATM   32  C14 UNL     1       2.081 -14.665 -24.638  1.00  0.00     0.053 A
HETATM   33  C15 UNL     1       3.436 -14.636 -24.484  1.00  0.00     0.024 A
HETATM   34  C17 UNL     1       5.384 -15.941 -23.690  1.00  0.00     0.051 A
BRANCH  34  35
HETATM   35  N4  UNL     1       6.262 -15.035 -23.963  1.00  0.00    -0.398 N
ATOM     36  H42 UNL     1       6.450 -14.756 -24.926  1.00  0.00     0.156 HD
ATOM     37  H41 UNL     1       6.764 -14.605 -23.186  1.00  0.00     0.156 HD
ENDBRANCH  34  35
ENDBRANCH   3  25
TORSDOF 7
ENDMDL