MODEL 5
REMARK VINA RESULT: -6.249000375      2.407      3.408
REMARK  7 active torsions:
REMARK  status: ('A' for Active; 'I' for Inactive)
REMARK    1  A    between atoms: C2_2  and  C3_3
REMARK       I    between atoms: C3_3  and  N1_5
REMARK    2  A    between atoms: N1_5  and  C4_7
REMARK    3  A    between atoms: C6_13  and  O2_14
REMARK    4  A    between atoms: C8_17  and  N4_18
REMARK    5  A    between atoms: N4_18  and  C9_20
REMARK    6  A    between atoms: C11_22  and  C12_23
REMARK       I    between atoms: C12_23  and  N5_25
REMARK    7  A    between atoms: N5_25  and  C13_27
ROOT
HETATM    1  C4  UNL     1      -0.109 -10.210 -26.668  1.00  0.00     0.135 A
HETATM    2  N2  UNL     1      -0.760 -11.368 -26.580  1.00  0.00    -0.284 N
ATOM      3  H2  UNL     1      -1.624 -11.505 -26.057  1.00  0.00     0.188 HD
HETATM    4  N3  UNL     1      -0.130 -12.332 -27.271  1.00  0.00    -0.295 N
ATOM      5  H3  UNL     1      -0.444 -13.299 -27.348  1.00  0.00     0.187 HD
HETATM    6  C5  UNL     1       0.974 -11.831 -27.844  1.00  0.00     0.095 A
HETATM    7  C6  UNL     1       1.965 -12.382 -28.649  1.00  0.00     0.096 A
HETATM    8  C7  UNL     1       2.992 -11.581 -29.086  1.00  0.00     0.068 A
HETATM    9  C8  UNL     1       3.053 -10.268 -28.743  1.00  0.00     0.036 A
HETATM   10  C20 UNL     1       2.057  -9.749 -27.945  1.00  0.00     0.047 A
HETATM   11  C21 UNL     1       1.007 -10.510 -27.481  1.00  0.00     0.042 A
ENDROOT
BRANCH   9  12
HETATM   12  N4  UNL     1       4.085  -9.414 -29.132  1.00  0.00    -0.354 N
ATOM     13  H4  UNL     1       4.963  -9.546 -28.628  1.00  0.00     0.166 HD
BRANCH  12  14
HETATM   14  C9  UNL     1       4.109  -8.403 -30.104  1.00  0.00     0.072 A
HETATM   15  C10 UNL     1       2.966  -7.743 -30.496  1.00  0.00     0.053 A
HETATM   16  C11 UNL     1       2.993  -6.753 -31.500  1.00  0.00     0.072 A
HETATM   17  C17 UNL     1       4.194  -6.461 -32.080  1.00  0.00     0.135 A
HETATM   18  F1  UNL     1       4.335  -5.515 -33.043  1.00  0.00    -0.205 F
HETATM   19  C18 UNL     1       5.374  -7.123 -31.695  1.00  0.00     0.088 A
HETATM   20  C19 UNL     1       5.324  -8.083 -30.717  1.00  0.00     0.145 A
HETATM   21  F2  UNL     1       6.419  -8.756 -30.297  1.00  0.00    -0.204 F
BRANCH  16  22
HETATM   22  C12 UNL     1       1.755  -6.106 -31.888  1.00  0.00     0.255 C
HETATM   23  O3  UNL     1       1.323  -6.350 -33.089  1.00  0.00    -0.268 OA
HETATM   24  N5  UNL     1       0.940  -5.244 -31.155  1.00  0.00    -0.349 N
ATOM     25  H5  UNL     1       1.213  -4.999 -30.203  1.00  0.00     0.163 HD
BRANCH  24  26
HETATM   26  C13 UNL     1      -0.291  -4.678 -31.704  1.00  0.00     0.022 C
HETATM   27  C14 UNL     1      -1.076  -4.002 -30.605  1.00  0.00     0.037 C
HETATM   28  C15 UNL     1       0.038  -3.647 -32.755  1.00  0.00     0.037 C
HETATM   29  C16 UNL     1      -1.181  -5.763 -32.273  1.00  0.00     0.037 C
ENDBRANCH  24  26
ENDBRANCH  16  22
ENDBRANCH  12  14
ENDBRANCH   9  12
BRANCH   7  30
HETATM   30  O2  UNL     1       1.885 -13.731 -28.989  1.00  0.00    -0.358 OA
ATOM     31  H2  UNL     1       2.373 -14.045 -29.741  1.00  0.00     0.217 HD
ENDBRANCH   7  30
BRANCH   1  32
HETATM   32  N1  UNL     1      -0.339  -8.929 -26.149  1.00  0.00    -0.311 N
HETATM   33  C3  UNL     1      -1.156  -7.911 -26.671  1.00  0.00     0.222 C
HETATM   34  O1  UNL     1      -1.184  -6.813 -25.983  1.00  0.00    -0.273 OA
ATOM     35  H1  UNL     1       0.148  -8.707 -25.281  1.00  0.00     0.170 HD
BRANCH  33  36
HETATM   36  C2  UNL     1      -1.955  -8.003 -27.905  1.00  0.00     0.099 C
HETATM   37  C1  UNL     1      -1.028  -7.620 -29.073  1.00  0.00     0.014 C
ENDBRANCH  33  36
ENDBRANCH   1  32
TORSDOF 7
ENDMDL