MODEL 5
REMARK VINA RESULT: -6.585162277      7.007     11.728
REMARK  6 active torsions:
REMARK  status: ('A' for Active; 'I' for Inactive)
REMARK    1  A    between atoms: C3_4  and  N2_5
REMARK       I    between atoms: N2_5  and  C4_7
REMARK       I    between atoms: C4_7  and  N3_9
REMARK    2  A    between atoms: N3_9  and  C5_11
REMARK    3  A    between atoms: C6_12  and  C7_13
REMARK    4  A    between atoms: C8_18  and  C9_19
REMARK       I    between atoms: C9_19  and  N5_21
REMARK    5  A    between atoms: N5_21  and  C10_23
REMARK    6  A    between atoms: C20_33  and  O3_34
ROOT
HETATM    1  C5  UNL     1       6.309 -16.968 -22.778  1.00  0.00     0.100 A
HETATM    2  C6  UNL     1       5.185 -17.712 -22.605  1.00  0.00     0.104 A
HETATM    3  N4  UNL     1       4.156 -17.122 -23.210  1.00  0.00    -0.346 N
ATOM      4  H4  UNL     1       3.206 -17.492 -23.219  1.00  0.00     0.166 HD
HETATM    5  C8  UNL     1       4.534 -15.963 -23.814  1.00  0.00     0.137 A
HETATM    6  C20 UNL     1       5.891 -15.848 -23.553  1.00  0.00     0.127 A
ENDROOT
BRANCH   5   7
HETATM    7  C9  UNL     1       3.651 -15.076 -24.562  1.00  0.00     0.271 C
HETATM    8  O2  UNL     1       3.921 -13.821 -24.406  1.00  0.00    -0.266 OA
HETATM    9  N5  UNL     1       2.585 -15.448 -25.395  1.00  0.00    -0.346 N
ATOM     10  H5  UNL     1       2.364 -16.436 -25.523  1.00  0.00     0.163 HD
BRANCH   9  11
HETATM   11  C10 UNL     1       1.795 -14.443 -26.075  1.00  0.00     0.034 C
HETATM   12  C11 UNL     1       2.584 -13.472 -26.882  1.00  0.00     0.035 C
HETATM   13  C12 UNL     1       1.642 -12.437 -27.458  1.00  0.00    -0.012 C
HETATM   14  C13 UNL     1       0.881 -11.770 -26.363  1.00  0.00     0.009 C
HETATM   15  C17 UNL     1       0.784 -13.111 -28.476  1.00  0.00     0.009 C
HETATM   16  C14 UNL     1      -0.027 -12.784 -25.728  1.00  0.00    -0.012 C
HETATM   17  C15 UNL     1      -0.892 -13.514 -26.727  1.00  0.00     0.009 C
HETATM   18  C19 UNL     1       0.861 -13.831 -25.072  1.00  0.00     0.035 C
HETATM   19  C16 UNL     1      -0.015 -14.179 -27.763  1.00  0.00    -0.012 C
HETATM   20  C18 UNL     1       0.881 -15.163 -27.096  1.00  0.00     0.035 C
ENDBRANCH   9  11
ENDBRANCH   5   7
BRANCH   6  21
HETATM   21  O3  UNL     1       6.794 -14.908 -23.897  1.00  0.00    -0.356 OA
ATOM     22  H3  UNL     1       6.914 -14.150 -23.337  1.00  0.00     0.218 HD
ENDBRANCH   6  21
BRANCH   2  23
HETATM   23  C7  UNL     1       5.103 -19.004 -21.850  1.00  0.00     0.405 C
HETATM   24  F1  UNL     1       5.445 -18.833 -20.522  1.00  0.00    -0.207 F
HETATM   25  F2  UNL     1       5.925 -19.936 -22.412  1.00  0.00    -0.207 F
ENDBRANCH   2  23
BRANCH   1  26
HETATM   26  N3  UNL     1       7.636 -17.201 -22.315  1.00  0.00    -0.304 N
HETATM   27  C4  UNL     1       8.072 -16.775 -21.011  1.00  0.00     0.325 C
HETATM   28  N2  UNL     1       9.392 -17.035 -20.614  1.00  0.00    -0.306 N
HETATM   29  O1  UNL     1       7.270 -16.190 -20.273  1.00  0.00    -0.247 OA
ATOM     30  H2  UNL     1      10.012 -17.520 -21.262  1.00  0.00     0.171 HD
ATOM     31  H3  UNL     1       8.296 -17.683 -22.925  1.00  0.00     0.171 HD
BRANCH  28  32
HETATM   32  C3  UNL     1       9.895 -16.654 -19.361  1.00  0.00     0.070 A
HETATM   33  C2  UNL     1      10.162 -15.411 -18.884  1.00  0.00     0.140 A
HETATM   34  N1  UNL     1      10.630 -15.563 -17.626  1.00  0.00    -0.306 N
HETATM   35  C1  UNL     1      11.027 -14.444 -16.785  1.00  0.00     0.177 C
HETATM   36  N6  UNL     1      10.669 -16.841 -17.295  1.00  0.00    -0.308 N
HETATM   37  C21 UNL     1      10.226 -17.546 -18.330  1.00  0.00     0.138 A
ATOM     38  H6  UNL     1      10.983 -17.220 -16.402  1.00  0.00     0.186 HD
ENDBRANCH  28  32
ENDBRANCH   1  26
TORSDOF 6
ENDMDL