MODEL 5
REMARK VINA RESULT: -7.040682644     13.777     16.437
REMARK  5 active torsions:
REMARK  status: ('A' for Active; 'I' for Inactive)
REMARK    1  A    between atoms: C2_2  and  N1_3
REMARK       I    between atoms: N1_3  and  C3_5
REMARK       I    between atoms: C3_5  and  N2_7
REMARK    2  A    between atoms: N2_7  and  C4_9
REMARK    3  A    between atoms: C6_11  and  O2_12
REMARK    4  A    between atoms: O2_12  and  C7_13
REMARK    5  A    between atoms: C8_16  and  C9_17
ROOT
HETATM    1  C7  UNL     1      10.722 -19.290 -26.444  1.00  0.00     0.189 A
HETATM    2  N3  UNL     1      10.537 -18.788 -27.680  1.00  0.00    -0.336 N
ATOM      3  H3  UNL     1      10.494 -17.793 -27.904  1.00  0.00     0.168 HD
HETATM    4  C8  UNL     1      10.416 -19.789 -28.586  1.00  0.00     0.039 A
HETATM    5  C16 UNL     1      10.532 -20.953 -27.859  1.00  0.00     0.074 A
HETATM    6  C17 UNL     1      10.724 -20.653 -26.521  1.00  0.00     0.169 A
HETATM    7  F1  UNL     1      10.881 -21.523 -25.495  1.00  0.00    -0.201 F
ENDROOT
BRANCH   1   8
HETATM    8  O2  UNL     1      10.883 -18.540 -25.288  1.00  0.00    -0.274 OA
BRANCH   8   9
HETATM    9  C6  UNL     1       9.756 -18.287 -24.489  1.00  0.00     0.152 A
HETATM   10  C5  UNL     1       9.960 -17.953 -23.141  1.00  0.00     0.089 A
HETATM   11  C4  UNL     1       8.900 -17.700 -22.327  1.00  0.00     0.080 A
HETATM   12  C19 UNL     1       7.634 -17.793 -22.916  1.00  0.00     0.158 A
HETATM   13  C18 UNL     1       7.470 -18.123 -24.247  1.00  0.00     0.134 A
HETATM   14  F2  UNL     1       6.574 -17.543 -22.115  1.00  0.00    -0.202 F
HETATM   15  N7  UNL     1       8.522 -18.364 -25.008  1.00  0.00    -0.344 N
ATOM     16  H7  UNL     1       8.397 -18.608 -25.991  1.00  0.00     0.167 HD
BRANCH  11  17
HETATM   17  N2  UNL     1       9.026 -17.364 -20.980  1.00  0.00    -0.306 N
HETATM   18  C3  UNL     1       9.059 -16.111 -20.363  1.00  0.00     0.320 C
HETATM   19  N1  UNL     1       9.196 -16.008 -18.952  1.00  0.00    -0.343 N
HETATM   20  O1  UNL     1       8.974 -15.048 -20.991  1.00  0.00    -0.247 OA
ATOM     21  H1  UNL     1       9.270 -16.866 -18.406  1.00  0.00     0.164 HD
ATOM     22  H2  UNL     1       9.106 -18.158 -20.345  1.00  0.00     0.171 HD
BRANCH  19  23
HETATM   23  C2  UNL     1       9.237 -14.742 -18.257  1.00  0.00     0.120 C
HETATM   24  C1  UNL     1      10.634 -14.387 -17.825  1.00  0.00     0.026 C
ENDBRANCH  19  23
ENDBRANCH  11  17
ENDBRANCH   8   9
ENDBRANCH   1   8
BRANCH   4  25
HETATM   25  C9  UNL     1      10.200 -19.649 -30.052  1.00  0.00     0.152 C
HETATM   26  C10 UNL     1       9.373 -20.803 -30.565  1.00  0.00     0.033 C
HETATM   27  C11 UNL     1       9.447 -20.985 -32.045  1.00  0.00     0.004 C
HETATM   28  C12 UNL     1      10.841 -20.956 -32.586  1.00  0.00     0.028 C
HETATM   29  C13 UNL     1      11.783 -20.713 -31.392  1.00  0.00     0.112 C
HETATM   30  C14 UNL     1      13.166 -20.835 -31.945  1.00  0.00     0.109 C
HETATM   31  N6  UNL     1      11.406 -19.494 -30.807  1.00  0.00    -0.310 N
HETATM   32  S1  UNL     1      13.817 -19.196 -32.462  1.00  0.00    -0.091 SA
HETATM   33  C15 UNL     1      13.383 -18.146 -31.051  1.00  0.00     0.152 C
HETATM   34  N4  UNL     1      13.963 -17.027 -30.812  1.00  0.00    -0.379 N
HETATM   35  N5  UNL     1      12.345 -18.685 -30.246  1.00  0.00    -0.281 N
ATOM     36  H42 UNL     1      14.708 -16.639 -31.390  1.00  0.00     0.158 HD
ATOM     37  H41 UNL     1      13.719 -16.436 -30.017  1.00  0.00     0.158 HD
ATOM     38  H5  UNL     1      12.304 -18.467 -29.250  1.00  0.00     0.189 HD
ENDBRANCH   4  25
TORSDOF 5
ENDMDL