MODEL 5
REMARK VINA RESULT: -5.967971654      3.881      5.649
REMARK  7 active torsions:
REMARK  status: ('A' for Active; 'I' for Inactive)
REMARK    1  A    between atoms: C1_2  and  C2_4
REMARK    2  A    between atoms: C4_11  and  N4_12
REMARK    3  A    between atoms: N5_14  and  C5_16
REMARK    4  A    between atoms: C9_20  and  N6_21
REMARK    5  A    between atoms: N6_21  and  C10_23
REMARK    6  A    between atoms: C10_23  and  N7_25
REMARK    7  A    between atoms: N7_25  and  C11_27
ROOT
HETATM    1  C5  UNL     1      10.763 -18.767 -24.530  1.00  0.00     0.050 A
HETATM    2  C6  UNL     1      11.231 -19.992 -24.915  1.00  0.00     0.031 A
HETATM    3  C7  UNL     1      10.339 -20.894 -25.422  1.00  0.00     0.005 A
HETATM    4  C8  UNL     1       8.991 -20.580 -25.546  1.00  0.00     0.029 A
HETATM    5  C9  UNL     1       8.519 -19.367 -25.164  1.00  0.00     0.036 A
HETATM    6  C17 UNL     1       9.437 -18.438 -24.643  1.00  0.00     0.060 A
ENDROOT
BRANCH   1   7
HETATM    7  N5  UNL     1      11.697 -17.834 -24.004  1.00  0.00    -0.299 N
HETATM    8  N4  UNL     1      11.631 -17.324 -22.858  1.00  0.00    -0.283 N
ATOM      9  H4  UNL     1      12.355 -16.661 -22.577  1.00  0.00     0.188 HD
ATOM     10  H5  UNL     1      12.478 -17.559 -24.600  1.00  0.00     0.187 HD
BRANCH   8  11
HETATM   11  C4  UNL     1      10.594 -17.628 -21.937  1.00  0.00     0.154 A
HETATM   12  C2  UNL     1       9.521 -16.839 -21.616  1.00  0.00     0.146 A
HETATM   13  N2  UNL     1       8.772 -17.505 -20.695  1.00  0.00    -0.326 N
HETATM   14  C3  UNL     1       9.380 -18.659 -20.473  1.00  0.00     0.178 A
ATOM     15  H2  UNL     1       7.909 -17.177 -20.260  1.00  0.00     0.168 HD
HETATM   16  S1  UNL     1       8.881 -19.817 -19.451  1.00  0.00    -0.040 SA
HETATM   17  N3  UNL     1      10.496 -18.754 -21.222  1.00  0.00    -0.316 N
ATOM     18  H3  UNL     1      11.146 -19.539 -21.241  1.00  0.00     0.170 HD
BRANCH  12  19
HETATM   19  C1  UNL     1       9.229 -15.534 -22.153  1.00  0.00     0.285 C
HETATM   20  N1  UNL     1       8.098 -15.293 -22.984  1.00  0.00    -0.056 NA
HETATM   21  O1  UNL     1       9.970 -14.555 -21.904  1.00  0.00    -0.269 OA
ENDBRANCH  12  19
ENDBRANCH   8  11
ENDBRANCH   1   7
BRANCH   5  22
HETATM   22  N6  UNL     1       7.151 -18.999 -25.231  1.00  0.00    -0.333 N
ATOM     23  H6  UNL     1       6.672 -19.034 -26.131  1.00  0.00     0.168 HD
BRANCH  22  24
HETATM   24  C10 UNL     1       6.441 -18.589 -24.096  1.00  0.00     0.172 C
HETATM   25  S2  UNL     1       6.366 -19.654 -22.823  1.00  0.00    -0.041 SA
BRANCH  24  26
HETATM   26  N7  UNL     1       5.806 -17.345 -23.879  1.00  0.00    -0.362 N
ATOM     27  H7  UNL     1       6.387 -16.519 -24.022  1.00  0.00     0.162 HD
BRANCH  26  28
HETATM   28  C11 UNL     1       4.457 -17.096 -23.487  1.00  0.00     0.089 C
HETATM   29  C12 UNL     1       3.508 -17.881 -24.323  1.00  0.00     0.025 C
HETATM   30  C13 UNL     1       2.239 -17.160 -24.695  1.00  0.00     0.008 C
HETATM   31  C14 UNL     1       1.701 -16.282 -23.618  1.00  0.00     0.079 C
HETATM   32  C15 UNL     1       2.725 -15.506 -22.865  1.00  0.00     0.245 C
HETATM   33  F1  UNL     1       2.405 -14.171 -22.710  1.00  0.00    -0.206 F
HETATM   34  F2  UNL     1       2.775 -16.036 -21.569  1.00  0.00    -0.206 F
HETATM   35  C16 UNL     1       4.129 -15.642 -23.418  1.00  0.00     0.104 C
ENDBRANCH  26  28
ENDBRANCH  24  26
ENDBRANCH  22  24
ENDBRANCH   5  22
TORSDOF 7
ENDMDL