MODEL 3
REMARK VINA RESULT: -6.829410772      0.540      1.279
REMARK  7 active torsions:
REMARK  status: ('A' for Active; 'I' for Inactive)
REMARK       I    between atoms: C2_2  and  N1_4
REMARK    1  A    between atoms: N1_4  and  C3_6
REMARK    2  A    between atoms: C3_6  and  C4_7
REMARK    3  A    between atoms: C4_7  and  O2_8
REMARK    4  A    between atoms: O2_8  and  N2_9
REMARK       I    between atoms: N2_9  and  C5_10
REMARK       I    between atoms: C5_10  and  N3_12
REMARK    5  A    between atoms: N3_12  and  C6_14
REMARK    6  A    between atoms: C11_19  and  O4_20
REMARK    7  A    between atoms: C12_22  and  C14_24
ROOT
HETATM    1  C6  UNL     1       3.685 -16.926 -23.122  1.00  0.00     0.071 A
HETATM    2  C7  UNL     1       3.868 -17.039 -21.576  1.00  0.00     0.033 A
HETATM    3  C8  UNL     1       2.811 -16.978 -20.850  1.00  0.00     0.010 A
HETATM    4  C9  UNL     1       1.519 -16.779 -21.273  1.00  0.00    -0.048 A
HETATM    5  C10 UNL     1       1.424 -16.709 -22.686  1.00  0.00    -0.003 A
HETATM    6  C11 UNL     1       2.529 -16.794 -23.458  1.00  0.00     0.100 A
HETATM    7  C12 UNL     1       0.051 -16.437 -23.270  1.00  0.00     0.027 C
HETATM    8  C13 UNL     1      -0.540 -17.753 -23.461  1.00  0.00     0.027 C
HETATM    9  C16 UNL     1      -0.762 -15.622 -22.231  1.00  0.00     0.020 C
HETATM   10  C17 UNL     1      -0.810 -16.154 -20.873  1.00  0.00     0.006 C
HETATM   11  C18 UNL     1       0.423 -16.723 -20.351  1.00  0.00     0.039 C
ENDROOT
BRANCH   1  12
HETATM   12  N3  UNL     1       5.072 -17.165 -23.459  1.00  0.00    -0.292 N
HETATM   13  C5  UNL     1       5.579 -15.709 -23.281  1.00  0.00     0.423 C
HETATM   14  N2  UNL     1       6.880 -15.739 -22.823  1.00  0.00    -0.217 NA
HETATM   15  O3  UNL     1       4.826 -14.781 -23.430  1.00  0.00    -0.227 OA
ATOM     16  H3  UNL     1       5.561 -18.019 -23.728  1.00  0.00     0.172 HD
BRANCH  14  17
HETATM   17  O2  UNL     1       7.874 -15.445 -22.361  1.00  0.00    -0.203 OA
BRANCH  17  18
HETATM   18  C4  UNL     1       9.106 -15.476 -22.033  1.00  0.00     0.237 C
BRANCH  18  19
HETATM   19  C3  UNL     1       8.623 -16.286 -20.573  1.00  0.00     0.152 C
BRANCH  19  20
HETATM   20  N1  UNL     1       9.478 -15.531 -19.749  1.00  0.00    -0.359 N
HETATM   21  C2  UNL     1       9.384 -14.943 -18.559  1.00  0.00     0.213 C
HETATM   22  C1  UNL     1      10.610 -14.244 -17.985  1.00  0.00     0.117 C
HETATM   23  O1  UNL     1       8.361 -14.859 -17.830  1.00  0.00    -0.274 OA
ATOM     24  H1  UNL     1      10.400 -15.403 -20.168  1.00  0.00     0.162 HD
ENDBRANCH  19  20
ENDBRANCH  18  19
ENDBRANCH  17  18
ENDBRANCH  14  17
ENDBRANCH   1  12
BRANCH   6  25
HETATM   25  O4  UNL     1       2.276 -16.687 -24.906  1.00  0.00    -0.358 OA
ATOM     26  H4  UNL     1       1.798 -15.919 -25.196  1.00  0.00     0.217 HD
ENDBRANCH   6  25
BRANCH   7  27
HETATM   27  C14 UNL     1       0.060 -15.482 -24.400  1.00  0.00     0.058 C
HETATM   28 CL1  UNL     1      -0.546 -16.092 -25.913  1.00  0.00    -0.085 Cl
HETATM   29  C15 UNL     1       0.513 -14.191 -24.326  1.00  0.00     0.122 C
HETATM   30 CL2  UNL     1       1.111 -13.518 -22.832  1.00  0.00    -0.069 Cl
HETATM   31 CL3  UNL     1       0.529 -13.229 -25.771  1.00  0.00    -0.069 Cl
ENDBRANCH   7  27
TORSDOF 7
ENDMDL