MODEL 3
REMARK VINA RESULT: -6.007323609      4.137      7.024
REMARK  7 active torsions:
REMARK  status: ('A' for Active; 'I' for Inactive)
REMARK    1  A    between atoms: C3_3  and  C4_4
REMARK    2  A    between atoms: C4_4  and  C5_5
REMARK       I    between atoms: C5_5  and  N1_7
REMARK    3  A    between atoms: N1_7  and  C6_9
REMARK    4  A    between atoms: C8_14  and  C9_15
REMARK    5  A    between atoms: C9_15  and  C10_18
REMARK    6  A    between atoms: C19_29  and  N4_30
REMARK    7  A    between atoms: C20_35  and  N6_36
ROOT
HETATM    1  C4  UNL     1       0.060 -13.126 -25.690  1.00  0.00     0.142 C
ENDROOT
BRANCH   1   2
HETATM    2  C3  UNL     1       0.741 -12.050 -26.380  1.00  0.00    -0.042 A
HETATM    3  C2  UNL     1       1.664 -12.454 -27.393  1.00  0.00    -0.039 A
HETATM    4  C1  UNL     1       1.901 -13.859 -27.712  1.00  0.00     0.050 C
HETATM    5  C21 UNL     1       2.310 -11.414 -28.049  1.00  0.00     0.042 A
HETATM    6  C18 UNL     1       2.087 -10.074 -27.752  1.00  0.00     0.063 A
HETATM    7  C20 UNL     1       3.220 -11.695 -29.045  1.00  0.00     0.127 A
HETATM    8  C17 UNL     1       1.209  -9.737 -26.791  1.00  0.00     0.031 A
HETATM    9  N3  UNL     1       2.735  -9.114 -28.413  1.00  0.00    -0.191 N
HETATM   10  C16 UNL     1       0.535 -10.734 -26.105  1.00  0.00     0.010 A
HETATM   11  C19 UNL     1       3.613  -9.410 -29.374  1.00  0.00     0.677 A
ATOM     12  H3  UNL     1       2.557  -8.137 -28.180  1.00  0.00     0.184 HD
HETATM   13  N5  UNL     1       3.854 -10.680 -29.688  1.00  0.00    -0.176 N
ATOM     14  H5  UNL     1       4.527 -10.895 -30.424  1.00  0.00     0.186 HD
BRANCH  11  15
HETATM   15  N4  UNL     1       4.223  -8.457 -29.995  1.00  0.00    -0.234 N
ATOM     16  H42 UNL     1       4.121  -7.491 -29.685  1.00  0.00     0.174 HD
ATOM     17  H41 UNL     1       4.811  -8.676 -30.800  1.00  0.00     0.174 HD
ENDBRANCH  11  15
BRANCH   7  18
HETATM   18  N6  UNL     1       3.469 -12.890 -29.368  1.00  0.00    -0.384 N
ATOM     19  H62 UNL     1       2.974 -13.661 -28.922  1.00  0.00     0.157 HD
ATOM     20  H61 UNL     1       4.170 -13.083 -30.084  1.00  0.00     0.157 HD
ENDBRANCH   7  18
ENDBRANCH   1   2
BRANCH   1  21
HETATM   21  C5  UNL     1       0.533 -13.597 -24.387  1.00  0.00     0.226 C
HETATM   22  O1  UNL     1       0.799 -12.963 -23.362  1.00  0.00    -0.273 OA
HETATM   23  N1  UNL     1       0.707 -15.051 -24.327  1.00  0.00    -0.319 N
ATOM     24  H1  UNL     1       0.511 -15.649 -25.129  1.00  0.00     0.169 HD
BRANCH  23  25
HETATM   25  C6  UNL     1       1.166 -15.585 -23.081  1.00  0.00     0.106 A
HETATM   26  S1  UNL     1       0.190 -16.236 -21.798  1.00  0.00    -0.065 SA
HETATM   27  C7  UNL     1       1.426 -16.617 -20.700  1.00  0.00     0.140 A
HETATM   28  N2  UNL     1       2.504 -16.238 -21.352  1.00  0.00    -0.356 N
HETATM   29  C8  UNL     1       2.410 -15.718 -22.546  1.00  0.00     0.116 A
ATOM     30  H2  UNL     1       3.422 -16.353 -20.922  1.00  0.00     0.165 HD
BRANCH  29  31
HETATM   31  C9  UNL     1       3.668 -15.330 -23.305  1.00  0.00     0.291 C
HETATM   32  F1  UNL     1       3.397 -15.430 -24.681  1.00  0.00    -0.199 F
HETATM   33  F2  UNL     1       4.011 -14.021 -23.091  1.00  0.00    -0.199 F
BRANCH  31  34
HETATM   34  C10 UNL     1       4.817 -16.255 -23.038  1.00  0.00     0.065 C
HETATM   35  C11 UNL     1       4.587 -17.573 -23.789  1.00  0.00     0.011 C
HETATM   36  C12 UNL     1       5.737 -18.487 -23.524  1.00  0.00     0.001 C
HETATM   37  C13 UNL     1       6.966 -17.881 -24.163  1.00  0.00     0.000 C
HETATM   38  C14 UNL     1       7.239 -16.484 -23.712  1.00  0.00     0.001 C
HETATM   39  C15 UNL     1       6.049 -15.587 -23.658  1.00  0.00     0.011 C
ENDBRANCH  31  34
ENDBRANCH  29  31
ENDBRANCH  23  25
ENDBRANCH   1  21
TORSDOF 7
ENDMDL