MODEL 4
REMARK VINA RESULT: -6.244685383      5.195      8.636
REMARK  6 active torsions:
REMARK  status: ('A' for Active; 'I' for Inactive)
REMARK       I    between atoms: C2_2  and  N1_4
REMARK    1  A    between atoms: N1_4  and  C3_6
REMARK    2  A    between atoms: C7_11  and  C8_12
REMARK    3  A    between atoms: C9_14  and  C10_15
REMARK    4  A    between atoms: C11_18  and  N3_19
REMARK    5  A    between atoms: N3_19  and  C12_21
REMARK    6  A    between atoms: C15_24  and  O3_25
ROOT
HETATM    1  C8  UNL     1      10.116 -20.117 -25.953  1.00  0.00     0.045 A
HETATM    2  S1  UNL     1      11.331 -19.266 -25.000  1.00  0.00    -0.080 SA
HETATM    3  C9  UNL     1      10.347 -18.639 -23.781  1.00  0.00     0.099 A
HETATM    4  C11 UNL     1       9.110 -19.089 -24.120  1.00  0.00     0.076 A
HETATM    5  C20 UNL     1       8.997 -19.844 -25.237  1.00  0.00     0.092 A
HETATM    6  N4  UNL     1       7.690 -20.276 -25.713  1.00  0.00    -0.099 NA
ENDROOT
BRANCH   1   7
HETATM    7  C7  UNL     1      10.450 -20.812 -27.193  1.00  0.00     0.024 A
HETATM    8  C6  UNL     1      10.768 -22.113 -27.323  1.00  0.00     0.128 A
HETATM    9  C5  UNL     1      11.001 -22.691 -28.592  1.00  0.00     0.045 A
HETATM   10  F1  UNL     1      10.953 -22.983 -26.314  1.00  0.00    -0.205 F
HETATM   11  C4  UNL     1      10.914 -21.942 -29.720  1.00  0.00     0.032 A
HETATM   12  C3  UNL     1      10.585 -20.572 -29.638  1.00  0.00     0.035 A
HETATM   13  C21 UNL     1      10.370 -20.069 -28.390  1.00  0.00     0.045 A
BRANCH  12  14
HETATM   14  N1  UNL     1      10.509 -19.906 -30.863  1.00  0.00    -0.327 N
HETATM   15  C2  UNL     1      11.186 -18.726 -31.181  1.00  0.00     0.218 C
HETATM   16  C1  UNL     1      11.012 -18.090 -32.565  1.00  0.00     0.117 C
HETATM   17  O1  UNL     1      11.957 -18.111 -30.404  1.00  0.00    -0.274 OA
ATOM     18  H1  UNL     1       9.913 -20.314 -31.583  1.00  0.00     0.169 HD
ENDBRANCH  12  14
ENDBRANCH   1   7
BRANCH   3  19
HETATM   19  C10 UNL     1      10.849 -17.791 -22.707  1.00  0.00     0.274 C
HETATM   20  N2  UNL     1      10.320 -17.902 -21.394  1.00  0.00    -0.057 NA
HETATM   21  O2  UNL     1      11.760 -16.923 -22.852  1.00  0.00    -0.270 OA
ENDBRANCH   3  19
BRANCH   4  22
HETATM   22  N3  UNL     1       7.999 -18.730 -23.270  1.00  0.00    -0.382 N
ATOM     23  H3  UNL     1       7.851 -19.264 -22.414  1.00  0.00     0.160 HD
BRANCH  22  24
HETATM   24  C12 UNL     1       7.099 -17.662 -23.571  1.00  0.00     0.089 C
HETATM   25  C13 UNL     1       7.532 -16.296 -23.090  1.00  0.00     0.028 C
HETATM   26  C14 UNL     1       6.689 -15.268 -23.815  1.00  0.00     0.034 C
HETATM   27  C15 UNL     1       5.221 -15.597 -23.647  1.00  0.00     0.119 C
HETATM   28  C16 UNL     1       5.098 -16.671 -22.583  1.00  0.00     0.042 C
HETATM   29  C17 UNL     1       5.711 -17.989 -23.039  1.00  0.00    -0.025 C
HETATM   30  C18 UNL     1       4.787 -18.536 -24.091  1.00  0.00     0.017 C
HETATM   31  C19 UNL     1       5.734 -18.928 -21.867  1.00  0.00     0.017 C
BRANCH  27  32
HETATM   32  O3  UNL     1       4.573 -14.472 -23.183  1.00  0.00    -0.396 OA
ATOM     33  H3  UNL     1       5.226 -13.868 -22.846  1.00  0.00     0.210 HD
ENDBRANCH  27  32
ENDBRANCH  22  24
ENDBRANCH   4  22
TORSDOF 6
ENDMDL