MODEL 4
REMARK VINA RESULT: -6.144711261     10.294     13.991
REMARK  10 active torsions:
REMARK  status: ('A' for Active; 'I' for Inactive)
REMARK    1  A    between atoms: O1_2  and  C2_3
REMARK    2  A    between atoms: C2_3  and  C3_4
REMARK    3  A    between atoms: C8_11  and  C9_12
REMARK    4  A    between atoms: C9_12  and  O2_13
REMARK    5  A    between atoms: C9_12  and  N2_15
REMARK    6  A    between atoms: N2_15  and  N3_16
REMARK    7  A    between atoms: N3_16  and  C10_18
REMARK    8  A    between atoms: C10_18  and  N4_20
REMARK    9  A    between atoms: C11_22  and  C12_23
REMARK   10  A    between atoms: C16_27  and  C17_28
ROOT
HETATM    1  C3  UNL     1       6.730 -16.855 -22.768  1.00  0.00     0.024 A
HETATM    2  C4  UNL     1       5.829 -17.963 -22.870  1.00  0.00     0.018 A
HETATM    3  C5  UNL     1       4.891 -18.229 -23.991  1.00  0.00     0.069 C
HETATM    4  N1  UNL     1       6.004 -18.680 -21.780  1.00  0.00    -0.358 N
ATOM      5  H1  UNL     1       5.500 -19.540 -21.565  1.00  0.00     0.166 HD
HETATM    6  C6  UNL     1       6.947 -18.119 -20.980  1.00  0.00     0.048 A
HETATM    7  C7  UNL     1       7.421 -18.500 -19.748  1.00  0.00     0.042 A
HETATM    8  C8  UNL     1       8.361 -17.763 -19.071  1.00  0.00     0.009 A
HETATM    9  C16 UNL     1       8.831 -16.616 -19.649  1.00  0.00     0.109 A
HETATM   10  C18 UNL     1       8.381 -16.175 -20.913  1.00  0.00     0.201 A
HETATM   11  O3  UNL     1       8.800 -15.088 -21.479  1.00  0.00    -0.287 OA
HETATM   12  C19 UNL     1       7.421 -16.968 -21.570  1.00  0.00     0.056 A
ENDROOT
BRANCH   8  13
HETATM   13  C9  UNL     1       8.808 -18.261 -17.774  1.00  0.00     0.266 C
BRANCH  13  14
HETATM   14  O2  UNL     1       7.748 -18.278 -16.837  1.00  0.00    -0.374 OA
ATOM     15  H2  UNL     1       7.663 -17.440 -16.397  1.00  0.00     0.212 HD
ENDBRANCH  13  14
BRANCH  13  16
HETATM   16  N2  UNL     1       9.140 -19.691 -17.981  1.00  0.00    -0.102 NA
BRANCH  16  17
HETATM   17  N3  UNL     1      10.430 -19.853 -18.435  1.00  0.00    -0.277 N
ATOM     18  H3  UNL     1      11.217 -19.564 -17.856  1.00  0.00     0.185 HD
BRANCH  17  19
HETATM   19  C10 UNL     1      10.655 -20.421 -19.709  1.00  0.00     0.187 C
HETATM   20  S1  UNL     1      10.731 -22.029 -19.877  1.00  0.00    -0.040 SA
BRANCH  19  21
HETATM   21  N4  UNL     1      10.813 -19.577 -20.829  1.00  0.00    -0.345 N
HETATM   22  C11 UNL     1      10.458 -20.020 -21.986  1.00  0.00     0.072 C
ATOM     23  H4  UNL     1      11.198 -18.639 -20.725  1.00  0.00     0.167 HD
BRANCH  22  24
HETATM   24  C12 UNL     1      10.636 -19.111 -23.147  1.00  0.00    -0.019 C
HETATM   25  C13 UNL     1      11.675 -19.612 -24.126  1.00  0.00     0.020 C
HETATM   26  C14 UNL     1       9.320 -19.059 -23.906  1.00  0.00     0.020 C
HETATM   27  C15 UNL     1      11.002 -17.745 -22.602  1.00  0.00     0.020 C
ENDBRANCH  22  24
ENDBRANCH  19  21
ENDBRANCH  17  19
ENDBRANCH  16  17
ENDBRANCH  13  16
ENDBRANCH   8  13
BRANCH   9  28
HETATM   28  C17 UNL     1       9.827 -15.854 -18.864  1.00  0.00     0.421 C
HETATM   29  F1  UNL     1      10.146 -14.623 -19.396  1.00  0.00    -0.166 F
HETATM   30  F2  UNL     1       9.329 -15.527 -17.586  1.00  0.00    -0.166 F
HETATM   31  F3  UNL     1      11.059 -16.504 -18.765  1.00  0.00    -0.166 F
ENDBRANCH   9  28
BRANCH   1  32
HETATM   32  C2  UNL     1       6.708 -15.851 -23.801  1.00  0.00     0.148 C
BRANCH  32  33
HETATM   33  O1  UNL     1       6.254 -14.593 -23.670  1.00  0.00    -0.367 OA
HETATM   34  C1  UNL     1       4.901 -14.476 -24.108  1.00  0.00     0.208 C
ENDBRANCH  32  33
ENDBRANCH   1  32
TORSDOF 10
ENDMDL