MODEL 1
REMARK VINA RESULT: -5.777259393      0.000      0.000
REMARK  6 active torsions:
REMARK  status: ('A' for Active; 'I' for Inactive)
REMARK    1  A    between atoms: C2_2  and  C4_5
REMARK       I    between atoms: C4_5  and  N1_7
REMARK    2  A    between atoms: C5_9  and  C6_10
REMARK    3  A    between atoms: C5_9  and  N3_25
REMARK    4  A    between atoms: C6_10  and  N2_11
REMARK    5  A    between atoms: C6_10  and  C14_21
REMARK       I    between atoms: N2_11  and  C7_13
REMARK    6  A    between atoms: C7_13  and  C8_15
ROOT
HETATM    1  C4  UNL     1      -6.629 -46.751  -1.644  1.00  0.00     0.246 C
HETATM    2  O1  UNL     1      -7.756 -47.220  -1.312  1.00  0.00    -0.271 OA
HETATM    3  N1  UNL     1      -5.664 -46.390  -0.731  1.00  0.00    -0.313 N
ATOM      4  H1  UNL     1      -4.731 -46.711  -0.988  1.00  0.00     0.170 HD
HETATM    5  C5  UNL     1      -5.682 -45.738   0.373  1.00  0.00     0.109 C
ENDROOT
BRANCH   5   6
HETATM    6  C6  UNL     1      -6.918 -45.196   0.912  1.00  0.00     0.206 C
BRANCH   6   7
HETATM    7  N2  UNL     1      -6.774 -44.763   2.285  1.00  0.00    -0.341 N
HETATM    8  C7  UNL     1      -6.623 -45.635   3.388  1.00  0.00     0.252 C
HETATM    9  O2  UNL     1      -6.618 -46.867   3.163  1.00  0.00    -0.268 OA
ATOM     10  H2  UNL     1      -6.782 -43.759   2.469  1.00  0.00     0.163 HD
BRANCH   8  11
HETATM   11  C8  UNL     1      -6.472 -45.203   4.763  1.00  0.00     0.032 A
HETATM   12  C9  UNL     1      -5.756 -45.948   5.678  1.00  0.00     0.017 A
HETATM   13  C10 UNL     1      -5.611 -45.537   6.997  1.00  0.00     0.001 A
HETATM   14  C11 UNL     1      -6.176 -44.369   7.442  1.00  0.00     0.000 A
HETATM   15  C12 UNL     1      -6.894 -43.613   6.537  1.00  0.00     0.001 A
HETATM   16  C13 UNL     1      -7.027 -44.034   5.244  1.00  0.00     0.017 A
ENDBRANCH   8  11
ENDBRANCH   6   7
BRANCH   6  17
HETATM   17  C14 UNL     1      -7.508 -44.078   0.061  1.00  0.00     0.215 C
HETATM   18 CL2  UNL     1      -6.271 -43.495  -1.083  1.00  0.00    -0.081 Cl
HETATM   19 CL3  UNL     1      -7.952 -42.728   1.114  1.00  0.00    -0.081 Cl
HETATM   20 CL4  UNL     1      -8.910 -44.561  -0.871  1.00  0.00    -0.081 Cl
ENDBRANCH   6  17
ENDBRANCH   5   6
BRANCH   5  21
HETATM   21  N3  UNL     1      -4.379 -45.630   0.974  1.00  0.00    -0.366 N
HETATM   22  C15 UNL     1      -3.601 -44.409   0.971  1.00  0.00     0.152 C
HETATM   23  C16 UNL     1      -2.385 -44.712   0.073  1.00  0.00     0.256 C
HETATM   24  N4  UNL     1      -1.766 -45.971   0.426  1.00  0.00    -0.072 N
HETATM   25  C17 UNL     1      -0.323 -45.681   0.588  1.00  0.00     0.272 C
HETATM   26  C18 UNL     1      -1.852 -46.870  -0.699  1.00  0.00     0.272 C
HETATM   27  C19 UNL     1      -2.243 -46.557   1.637  1.00  0.00     0.256 C
HETATM   28  C20 UNL     1      -3.768 -46.767   1.591  1.00  0.00     0.152 C
ENDBRANCH   5  21
BRANCH   1  29
HETATM   29  C2  UNL     1      -6.421 -46.620  -3.136  1.00  0.00     0.111 C
HETATM   30  C1  UNL     1      -7.613 -45.964  -3.768  1.00  0.00     0.042 C
HETATM   31  C3  UNL     1      -6.261 -48.007  -3.732  1.00  0.00     0.042 C
HETATM   32 CL1  UNL     1      -4.975 -45.707  -3.542  1.00  0.00    -0.110 Cl
ENDBRANCH   1  29
TORSDOF 6
ENDMDL