MODEL 5
REMARK VINA RESULT: -3.094893170      3.241      5.682
REMARK  5 active torsions:
REMARK  status: ('A' for Active; 'I' for Inactive)
REMARK    1  A    between atoms: N1_2  and  C3_4
REMARK    2  A    between atoms: C3_4  and  O1_5
REMARK    3  A    between atoms: C3_4  and  C4_7
REMARK    4  A    between atoms: C4_7  and  C5_8
REMARK       I    between atoms: N2_11  and  C8_12
REMARK    5  A    between atoms: C10_16  and  C12_18
ROOT
HETATM    1  C4  UNL     1      -5.157 -45.951  -1.479  1.00  0.00     0.107 C
HETATM    2  C10 UNL     1      -4.265 -46.901  -2.276  1.00  0.00    -0.004 C
HETATM    3  C11 UNL     1      -4.278 -46.693  -3.767  1.00  0.00     0.021 C
HETATM    4  C14 UNL     1      -4.702 -48.349  -2.126  1.00  0.00     0.016 C
HETATM    5  C15 UNL     1      -6.113 -48.624  -2.490  1.00  0.00     0.023 C
HETATM    6  C16 UNL     1      -7.065 -47.636  -1.844  1.00  0.00     0.131 C
HETATM    7 BR2  UNL     1      -8.673 -47.735  -2.991  1.00  0.00    -0.085 Br
HETATM    8  C17 UNL     1      -6.581 -46.259  -2.023  1.00  0.00     0.273 C
HETATM    9  F1  UNL     1      -7.518 -45.376  -1.577  1.00  0.00    -0.204 F
HETATM   10  F2  UNL     1      -6.651 -46.050  -3.414  1.00  0.00    -0.204 F
ENDROOT
BRANCH   1  11
HETATM   11  C3  UNL     1      -5.001 -44.544  -1.811  1.00  0.00     0.129 C
BRANCH  11  12
HETATM   12  N1  UNL     1      -5.725 -43.531  -2.422  1.00  0.00    -0.373 N
HETATM   13  C1  UNL     1      -5.637 -43.100  -3.768  1.00  0.00     0.150 C
HETATM   14  C2  UNL     1      -6.748 -42.725  -1.677  1.00  0.00     0.150 C
ENDBRANCH  11  12
BRANCH  11  15
HETATM   15  O1  UNL     1      -3.846 -43.964  -1.461  1.00  0.00    -0.349 OA
ATOM     16  H1  UNL     1      -3.647 -43.377  -2.182  1.00  0.00     0.219 HD
ENDBRANCH  11  15
ENDBRANCH   1  11
BRANCH   1  17
HETATM   17  C5  UNL     1      -5.210 -46.391  -0.068  1.00  0.00     0.029 C
HETATM   18  C6  UNL     1      -6.032 -45.689   0.909  1.00  0.00     0.027 C
HETATM   19  C7  UNL     1      -5.984 -46.733   2.067  1.00  0.00     0.127 C
HETATM   20  N2  UNL     1      -4.519 -46.720   2.121  1.00  0.00    -0.336 N
HETATM   21  C8  UNL     1      -3.778 -46.622   3.306  1.00  0.00     0.330 C
HETATM   22  C9  UNL     1      -4.059 -46.826   0.713  1.00  0.00     0.133 C
HETATM   23  N3  UNL     1      -2.338 -46.620   3.222  1.00  0.00    -0.040 NA
HETATM   24  O2  UNL     1      -4.329 -46.541   4.409  1.00  0.00    -0.251 OA
ENDBRANCH   1  17
BRANCH   2  25
HETATM   25  C12 UNL     1      -2.824 -46.828  -1.911  1.00  0.00    -0.009 C
HETATM   26  C13 UNL     1      -1.911 -47.654  -2.407  1.00  0.00     0.052 C
HETATM   27 BR1  UNL     1      -0.064 -47.594  -1.966  1.00  0.00    -0.064 Br
ENDBRANCH   2  25
TORSDOF 5
ENDMDL