MODEL 5
REMARK VINA RESULT: -8.565032533      2.985      8.886
REMARK  3 active torsions:
REMARK  status: ('A' for Active; 'I' for Inactive)
REMARK    1  A    between atoms: C4_4  and  C5_5
REMARK       I    between atoms: C5_5  and  N1_7
REMARK    2  A    between atoms: C8_11  and  N2_12
REMARK       I    between atoms: N2_12  and  C9_14
REMARK       I    between atoms: C9_14  and  N3_16
REMARK    3  A    between atoms: C13_21  and  C14_22
REMARK       I    between atoms: C14_22  and  N4_24
ROOT
HETATM    1  N2  UNL     1      -4.919 -47.296   2.570  1.00  0.00    -0.334 N
ATOM      2  H2  UNL     1      -4.236 -47.998   2.287  1.00  0.00     0.164 HD
HETATM    3  C9  UNL     1      -5.288 -46.278   1.652  1.00  0.00     0.319 C
HETATM    4  O2  UNL     1      -6.132 -45.452   2.061  1.00  0.00    -0.247 OA
HETATM    5  N3  UNL     1      -4.750 -46.201   0.381  1.00  0.00    -0.318 N
HETATM    6  C10 UNL     1      -3.688 -47.175  -0.050  1.00  0.00     0.166 C
HETATM    7  C11 UNL     1      -2.661 -46.245  -0.683  1.00  0.00     0.190 C
HETATM    8  F2  UNL     1      -1.586 -46.010   0.117  1.00  0.00    -0.248 F
HETATM    9  C12 UNL     1      -3.452 -44.949  -0.973  1.00  0.00     0.074 C
HETATM   10  C13 UNL     1      -4.852 -45.418  -0.814  1.00  0.00     0.184 C
ENDROOT
BRANCH   1  11
HETATM   11  C8  UNL     1      -5.503 -47.362   3.927  1.00  0.00     0.139 C
HETATM   12  C7  UNL     1      -6.110 -46.043   4.218  1.00  0.00     0.212 C
HETATM   13  C6  UNL     1      -5.513 -45.575   5.495  1.00  0.00     0.165 C
HETATM   14  F1  UNL     1      -7.477 -46.248   4.414  1.00  0.00    -0.245 F
HETATM   15  N1  UNL     1      -4.651 -46.630   5.988  1.00  0.00    -0.347 N
HETATM   16  C5  UNL     1      -4.131 -46.674   7.295  1.00  0.00     0.225 C
HETATM   17  C20 UNL     1      -4.429 -47.596   4.923  1.00  0.00     0.154 C
HETATM   18  O1  UNL     1      -3.396 -47.630   7.630  1.00  0.00    -0.273 OA
BRANCH  16  19
HETATM   19  C4  UNL     1      -4.426 -45.621   8.286  1.00  0.00     0.095 A
HETATM   20  C2  UNL     1      -4.477 -45.987   9.747  1.00  0.00    -0.027 A
HETATM   21  C1  UNL     1      -3.998 -44.939  10.751  1.00  0.00     0.016 C
HETATM   22  C3  UNL     1      -4.046 -47.365  10.087  1.00  0.00     0.016 C
HETATM   23  C21 UNL     1      -5.710 -45.638   9.040  1.00  0.00    -0.027 A
HETATM   24  C22 UNL     1      -6.330 -44.252   9.223  1.00  0.00     0.016 C
HETATM   25  C23 UNL     1      -6.731 -46.701   8.797  1.00  0.00     0.016 C
ENDBRANCH  16  19
ENDBRANCH   1  11
BRANCH  10  26
HETATM   26  C14 UNL     1      -5.960 -44.553  -1.043  1.00  0.00     0.243 C
HETATM   27  O3  UNL     1      -6.063 -43.522  -0.262  1.00  0.00    -0.271 OA
HETATM   28  N4  UNL     1      -6.999 -44.618  -1.995  1.00  0.00    -0.345 N
HETATM   29  C15 UNL     1      -7.047 -45.696  -2.945  1.00  0.00     0.126 C
HETATM   30  C19 UNL     1      -8.001 -43.566  -1.965  1.00  0.00     0.204 C
HETATM   31  C16 UNL     1      -8.357 -45.620  -3.759  1.00  0.00     0.026 C
HETATM   32  C17 UNL     1      -9.446 -45.473  -2.728  1.00  0.00     0.082 C
HETATM   33  C18 UNL     1      -9.392 -44.060  -2.203  1.00  0.00     0.259 C
HETATM   34  F3  UNL     1     -10.075 -43.253  -3.092  1.00  0.00    -0.205 F
HETATM   35  F4  UNL     1     -10.105 -44.047  -1.016  1.00  0.00    -0.205 F
ENDBRANCH  10  26
TORSDOF 3
ENDMDL