MODEL 3
REMARK VINA RESULT: -5.894041973      4.471      5.938
REMARK  3 active torsions:
REMARK  status: ('A' for Active; 'I' for Inactive)
REMARK    1  A    between atoms: C2_2  and  C3_3
REMARK    2  A    between atoms: C8_11  and  C9_12
REMARK       I    between atoms: C9_12  and  N1_14
REMARK    3  A    between atoms: C10_16  and  N2_18
ROOT
HETATM    1  C9  UNL     1      -5.021 -46.338   4.957  1.00  0.00     0.229 C
HETATM    2  O3  UNL     1      -5.216 -47.461   5.442  1.00  0.00    -0.273 OA
HETATM    3  N1  UNL     1      -5.530 -45.206   5.637  1.00  0.00    -0.307 N
ATOM      4  H1  UNL     1      -5.888 -44.441   5.064  1.00  0.00     0.171 HD
HETATM    5  C10 UNL     1      -5.581 -45.059   6.897  1.00  0.00     0.154 C
HETATM    6 BR2  UNL     1      -6.325 -43.415   7.559  1.00  0.00    -0.011 Br
ENDROOT
BRANCH   1   7
HETATM    7  C8  UNL     1      -4.289 -46.152   3.721  1.00  0.00     0.104 C
HETATM    8  C4  UNL     1      -3.709 -47.354   3.020  1.00  0.00     0.020 C
HETATM    9  C2  UNL     1      -3.818 -46.500   1.769  1.00  0.00     0.067 C
HETATM   10  C5  UNL     1      -4.865 -48.283   2.825  1.00  0.00     0.008 C
HETATM   11  C1  UNL     1      -4.011 -47.202   0.472  1.00  0.00     0.029 C
HETATM   12  C7  UNL     1      -5.117 -46.017   2.432  1.00  0.00     0.048 C
HETATM   13  C6  UNL     1      -5.948 -47.263   2.478  1.00  0.00     0.024 C
HETATM   14 BR1  UNL     1      -5.822 -44.384   1.974  1.00  0.00    -0.083 Br
BRANCH   9  15
HETATM   15  C3  UNL     1      -2.741 -45.510   1.679  1.00  0.00     0.183 C
HETATM   16  O1  UNL     1      -1.671 -45.543   2.339  1.00  0.00    -0.647 OA
HETATM   17  O2  UNL     1      -2.896 -44.444   0.799  1.00  0.00    -0.647 OA
ENDBRANCH   9  15
ENDBRANCH   1   7
BRANCH   5  18
HETATM   18  N2  UNL     1      -5.133 -46.011   7.851  1.00  0.00    -0.355 N
HETATM   19  C11 UNL     1      -5.837 -47.121   8.453  1.00  0.00     0.131 C
HETATM   20  C12 UNL     1      -5.134 -47.414   9.752  1.00  0.00     0.100 C
HETATM   21  C13 UNL     1      -4.124 -46.296   9.894  1.00  0.00     0.261 C
HETATM   22  F1  UNL     1      -4.799 -45.214  10.447  1.00  0.00    -0.204 F
HETATM   23  F2  UNL     1      -3.022 -46.658  10.614  1.00  0.00    -0.204 F
HETATM   24  C14 UNL     1      -3.784 -46.023   8.422  1.00  0.00     0.204 C
ENDBRANCH   5  18
TORSDOF 3
ENDMDL