MODEL 2
REMARK VINA RESULT: -5.480104157      1.414      1.792
REMARK  3 active torsions:
REMARK  status: ('A' for Active; 'I' for Inactive)
REMARK       I    between atoms: N1_4  and  C4_6
REMARK    1  A    between atoms: C4_6  and  C5_8
REMARK    2  A    between atoms: C14_21  and  C15_22
REMARK       I    between atoms: C15_22  and  N2_24
REMARK    3  A    between atoms: N2_24  and  C16_26
ROOT
HETATM    1  C5  UNL     1      -7.179 -45.320   0.119  1.00  0.00     0.101 C
HETATM    2  C6  UNL     1      -7.929 -45.906  -0.992  1.00  0.00     0.047 C
HETATM    3  C7  UNL     1      -8.563 -44.940  -1.945  1.00  0.00    -0.004 C
HETATM    4  C8  UNL     1      -8.856 -45.884  -3.117  1.00  0.00     0.024 C
HETATM    5  C9  UNL     1      -7.568 -46.691  -3.177  1.00  0.00     0.100 C
HETATM    6 BR1  UNL     1      -8.088 -48.555  -3.349  1.00  0.00    -0.088 Br
HETATM    7  C10 UNL     1      -6.878 -46.526  -1.879  1.00  0.00     0.144 C
HETATM    8  F1  UNL     1      -6.416 -47.706  -1.340  1.00  0.00    -0.239 F
HETATM    9  C11 UNL     1      -5.834 -45.430  -1.834  1.00  0.00     0.104 C
HETATM   10 CL1  UNL     1      -4.294 -46.154  -2.365  1.00  0.00    -0.113 Cl
HETATM   11  C12 UNL     1      -6.239 -44.304  -2.718  1.00  0.00     0.110 C
HETATM   12 CL2  UNL     1      -5.212 -42.892  -2.270  1.00  0.00    -0.123 Cl
HETATM   13  C13 UNL     1      -7.650 -43.902  -2.482  1.00  0.00     0.027 C
HETATM   14  C14 UNL     1      -5.817 -44.949  -0.409  1.00  0.00     0.119 C
ENDROOT
BRANCH  14  15
HETATM   15  C15 UNL     1      -4.731 -45.466   0.428  1.00  0.00     0.225 C
HETATM   16  O2  UNL     1      -3.575 -45.002   0.403  1.00  0.00    -0.273 OA
HETATM   17  N2  UNL     1      -4.958 -46.548   1.325  1.00  0.00    -0.356 N
ATOM     18  H2  UNL     1      -5.889 -46.958   1.377  1.00  0.00     0.162 HD
BRANCH  17  19
HETATM   19  C16 UNL     1      -3.905 -47.086   2.170  1.00  0.00     0.084 C
HETATM   20  C17 UNL     1      -4.370 -48.368   2.834  1.00  0.00     0.025 C
HETATM   21  C18 UNL     1      -3.338 -48.540   3.928  1.00  0.00     0.002 C
HETATM   22  C19 UNL     1      -3.216 -47.146   4.475  1.00  0.00     0.002 C
HETATM   23  C20 UNL     1      -3.633 -46.206   3.366  1.00  0.00     0.025 C
ENDBRANCH  17  19
ENDBRANCH  14  15
BRANCH   1  24
HETATM   24  C4  UNL     1      -7.868 -44.239   0.846  1.00  0.00     0.227 C
HETATM   25  N1  UNL     1      -7.292 -43.659   2.013  1.00  0.00    -0.335 N
HETATM   26  C2  UNL     1      -7.996 -43.362   3.047  1.00  0.00    -0.018 C
ATOM     27  H1  UNL     1      -6.289 -43.474   2.028  1.00  0.00     0.168 HD
HETATM   28  C1  UNL     1      -9.459 -43.599   3.105  1.00  0.00     0.062 C
HETATM   29  C3  UNL     1      -7.342 -42.762   4.230  1.00  0.00     0.062 C
HETATM   30  O1  UNL     1      -8.976 -43.772   0.496  1.00  0.00    -0.273 OA
ENDBRANCH   1  24
TORSDOF 3
ENDMDL