MODEL 1
REMARK VINA RESULT: -7.913110298      0.000      0.000
REMARK  4 active torsions:
REMARK  status: ('A' for Active; 'I' for Inactive)
REMARK    1  A    between atoms: C1_2  and  C2_3
REMARK       I    between atoms: C1_2  and  N3_22
REMARK    2  A    between atoms: C5_6  and  N1_7
REMARK       I    between atoms: N1_7  and  C6_9
REMARK       I    between atoms: C6_9  and  N2_11
REMARK    3  A    between atoms: C11_16  and  C12_17
REMARK    4  A    between atoms: C16_25  and  C17_26
REMARK       I    between atoms: C17_26  and  N4_28
ROOT
HETATM    1  C2  UNL     1      -2.979 -49.109   5.664  1.00  0.00     0.080 C
HETATM    2  C3  UNL     1      -3.158 -47.827   6.461  1.00  0.00     0.016 C
HETATM    3  C4  UNL     1      -3.223 -46.737   5.377  1.00  0.00     0.026 C
HETATM    4  C5  UNL     1      -4.054 -47.434   4.354  1.00  0.00     0.087 C
HETATM    5  C13 UNL     1      -3.484 -48.821   4.272  1.00  0.00     0.039 C
ENDROOT
BRANCH   1   6
HETATM    6  C1  UNL     1      -1.540 -49.503   5.621  1.00  0.00     0.224 C
HETATM    7  O1  UNL     1      -0.697 -48.543   5.648  1.00  0.00    -0.273 OA
HETATM    8  N3  UNL     1      -1.053 -50.808   5.551  1.00  0.00    -0.352 N
HETATM    9  C14 UNL     1      -1.924 -51.949   5.543  1.00  0.00     0.126 C
HETATM   10  C23 UNL     1       0.365 -51.067   5.478  1.00  0.00     0.126 C
HETATM   11  C15 UNL     1      -1.633 -52.785   6.764  1.00  0.00     0.034 C
HETATM   12  C16 UNL     1      -0.173 -53.059   6.890  1.00  0.00     0.081 C
HETATM   13  C22 UNL     1       0.605 -52.575   5.677  1.00  0.00     0.034 C
BRANCH  12  14
HETATM   14  C17 UNL     1       0.336 -52.428   8.129  1.00  0.00     0.224 C
HETATM   15  O3  UNL     1       1.423 -51.787   8.067  1.00  0.00    -0.273 OA
HETATM   16  N4  UNL     1      -0.331 -52.515   9.354  1.00  0.00    -0.349 N
HETATM   17  C18 UNL     1      -1.596 -53.164   9.617  1.00  0.00     0.129 C
HETATM   18  C21 UNL     1       0.073 -52.000  10.660  1.00  0.00     0.162 C
HETATM   19  C19 UNL     1      -1.292 -53.949  10.887  1.00  0.00     0.058 C
HETATM   20  C20 UNL     1      -0.170 -53.183  11.567  1.00  0.00     0.189 C
HETATM   21  F4  UNL     1      -0.534 -52.805  12.845  1.00  0.00    -0.248 F
ENDBRANCH  12  14
ENDBRANCH   1   6
BRANCH   4  22
HETATM   22  N1  UNL     1      -3.996 -46.765   3.055  1.00  0.00    -0.338 N
HETATM   23  C6  UNL     1      -5.130 -46.521   2.275  1.00  0.00     0.319 C
HETATM   24  O2  UNL     1      -6.259 -46.904   2.734  1.00  0.00    -0.247 OA
HETATM   25  N2  UNL     1      -5.135 -45.876   1.008  1.00  0.00    -0.321 N
HETATM   26  C7  UNL     1      -3.896 -45.439   0.436  1.00  0.00     0.128 C
HETATM   27  C11 UNL     1      -6.390 -45.657   0.310  1.00  0.00     0.196 C
HETATM   28  C8  UNL     1      -3.912 -45.417  -1.064  1.00  0.00     0.020 C
HETATM   29  C9  UNL     1      -4.992 -46.235  -1.696  1.00  0.00     0.004 C
HETATM   30  C10 UNL     1      -6.358 -45.965  -1.141  1.00  0.00     0.034 C
ATOM     31  H1  UNL     1      -3.088 -46.463   2.702  1.00  0.00     0.164 HD
BRANCH  27  32
HETATM   32  C12 UNL     1      -6.901 -44.236   0.585  1.00  0.00     0.407 C
HETATM   33  F1  UNL     1      -8.271 -44.244   0.771  1.00  0.00    -0.169 F
HETATM   34  F2  UNL     1      -6.328 -43.670   1.683  1.00  0.00    -0.169 F
HETATM   35  F3  UNL     1      -6.651 -43.427  -0.504  1.00  0.00    -0.169 F
ENDBRANCH  27  32
ENDBRANCH   4  22
TORSDOF 4
ENDMDL