MODEL 5
REMARK VINA RESULT: -4.801422508      2.961      3.695
REMARK  3 active torsions:
REMARK  status: ('A' for Active; 'I' for Inactive)
REMARK    1  A    between atoms: C2_2  and  C3_3
REMARK    2  A    between atoms: N1_8  and  C7_10
REMARK    3  A    between atoms: C7_10  and  C8_11
ROOT
HETATM    1  C8  UNL     1      -3.437 -46.357   1.555  1.00  0.00     0.013 C
HETATM    2  C9  UNL     1      -4.665 -47.037   0.950  1.00  0.00     0.015 C
HETATM    3  C10 UNL     1      -5.104 -46.101  -0.024  1.00  0.00     0.044 C
HETATM    4  C11 UNL     1      -3.791 -45.576  -0.640  1.00  0.00     0.027 C
HETATM    5  C12 UNL     1      -2.979 -46.607  -1.295  1.00  0.00     0.024 C
HETATM    6  C13 UNL     1      -3.182 -45.132   0.667  1.00  0.00     0.023 C
HETATM    7  C14 UNL     1      -4.371 -44.553  -1.493  1.00  0.00     0.173 C
HETATM    8  O3  UNL     1      -3.913 -43.444  -1.690  1.00  0.00    -0.294 OA
HETATM    9  C15 UNL     1      -5.625 -45.160  -2.056  1.00  0.00     0.190 C
HETATM   10 CL1  UNL     1      -5.452 -45.563  -3.766  1.00  0.00    -0.095 Cl
HETATM   11 BR1  UNL     1      -7.064 -43.895  -1.792  1.00  0.00    -0.056 Br
HETATM   12  C16 UNL     1      -5.889 -46.397  -1.206  1.00  0.00     0.156 C
HETATM   13 CL2  UNL     1      -5.557 -47.891  -2.032  1.00  0.00    -0.098 Cl
HETATM   14 CL3  UNL     1      -7.634 -46.387  -0.759  1.00  0.00    -0.098 Cl
ENDROOT
BRANCH   1  15
HETATM   15  C7  UNL     1      -3.839 -45.870   2.910  1.00  0.00     0.241 C
BRANCH  15  16
HETATM   16  N1  UNL     1      -4.569 -46.762   3.743  1.00  0.00    -0.070 N
HETATM   17  C5  UNL     1      -4.349 -48.164   3.597  1.00  0.00     0.238 C
HETATM   18  C4  UNL     1      -2.943 -48.576   3.978  1.00  0.00     0.048 C
HETATM   19  C2  UNL     1      -2.625 -48.219   5.392  1.00  0.00     0.048 C
HETATM   20  C1  UNL     1      -1.357 -47.396   5.420  1.00  0.00     0.027 C
HETATM   21  C18 UNL     1      -3.791 -47.461   5.985  1.00  0.00     0.048 C
HETATM   22  C17 UNL     1      -4.298 -46.348   5.135  1.00  0.00     0.238 C
HETATM   23  C6  UNL     1      -6.023 -46.558   3.530  1.00  0.00     0.272 C
BRANCH  19  24
HETATM   24  C3  UNL     1      -2.341 -49.433   6.220  1.00  0.00     0.181 C
HETATM   25  O1  UNL     1      -1.852 -50.441   5.665  1.00  0.00    -0.647 OA
HETATM   26  O2  UNL     1      -2.599 -49.477   7.574  1.00  0.00    -0.647 OA
ENDBRANCH  19  24
ENDBRANCH  15  16
ENDBRANCH   1  15
TORSDOF 3
ENDMDL