MODEL 3
REMARK VINA RESULT: -7.359376797      3.496      8.122
REMARK  5 active torsions:
REMARK  status: ('A' for Active; 'I' for Inactive)
REMARK    1  A    between atoms: C7_8  and  C8_9
REMARK    2  A    between atoms: C8_9  and  O1_10
REMARK    3  A    between atoms: C8_9  and  N1_12
REMARK    4  A    between atoms: C10_14  and  C11_15
REMARK       I    between atoms: C11_15  and  N2_17
REMARK    5  A    between atoms: N2_17  and  C12_19
ROOT
HETATM    1  N1  UNL     1      -4.655 -45.534   1.965  1.00  0.00    -0.359 N
HETATM    2  C9  UNL     1      -5.664 -44.854   2.743  1.00  0.00     0.144 C
HETATM    3  C10 UNL     1      -5.617 -45.587   4.069  1.00  0.00     0.059 C
HETATM    4  C13 UNL     1      -6.230 -46.944   3.807  1.00  0.00     0.023 C
HETATM    5  C14 UNL     1      -5.202 -47.683   2.971  1.00  0.00     0.026 C
HETATM    6  C15 UNL     1      -4.138 -46.663   2.769  1.00  0.00     0.087 C
HETATM    7  C16 UNL     1      -4.150 -45.961   4.135  1.00  0.00     0.046 C
ENDROOT
BRANCH   1   8
HETATM    8  C8  UNL     1      -4.201 -45.214   0.670  1.00  0.00     0.123 C
BRANCH   8   9
HETATM    9  C7  UNL     1      -4.735 -45.491  -0.622  1.00  0.00     0.035 C
HETATM   10  C2  UNL     1      -6.166 -45.142  -0.957  1.00  0.00    -0.015 C
HETATM   11  C1  UNL     1      -7.129 -46.232  -0.548  1.00  0.00     0.018 C
HETATM   12  C3  UNL     1      -6.656 -43.783  -0.610  1.00  0.00     0.018 C
HETATM   13  C4  UNL     1      -5.672 -45.279  -2.406  1.00  0.00     0.027 C
HETATM   14 BR1  UNL     1      -6.550 -44.382  -3.749  1.00  0.00    -0.085 Br
HETATM   15  C5  UNL     1      -5.296 -46.714  -2.511  1.00  0.00     0.023 C
HETATM   16  C17 UNL     1      -4.373 -44.677  -1.828  1.00  0.00     0.040 C
HETATM   17  C6  UNL     1      -4.582 -46.894  -1.177  1.00  0.00     0.020 C
ENDBRANCH   8   9
BRANCH   8  18
HETATM   18  O1  UNL     1      -3.085 -44.544   0.641  1.00  0.00    -0.349 OA
ATOM     19  H1  UNL     1      -2.386 -44.946   1.143  1.00  0.00     0.219 HD
ENDBRANCH   8  18
ENDBRANCH   1   8
BRANCH   3  20
HETATM   20  C11 UNL     1      -6.131 -44.887   5.206  1.00  0.00     0.233 C
HETATM   21  O2  UNL     1      -7.183 -44.172   5.080  1.00  0.00    -0.272 OA
HETATM   22  N2  UNL     1      -5.539 -44.940   6.469  1.00  0.00    -0.288 N
ATOM     23  H2  UNL     1      -4.699 -45.509   6.580  1.00  0.00     0.169 HD
BRANCH  22  24
HETATM   24  C12 UNL     1      -6.045 -44.235   7.641  1.00  0.00     0.384 C
HETATM   25  F1  UNL     1      -7.424 -44.320   7.713  1.00  0.00    -0.171 F
HETATM   26  F2  UNL     1      -5.728 -42.883   7.597  1.00  0.00    -0.171 F
HETATM   27 BR2  UNL     1      -5.319 -44.982   9.263  1.00  0.00     0.016 Br
ENDBRANCH  22  24
ENDBRANCH   3  20
TORSDOF 5
ENDMDL