MODEL 2
REMARK VINA RESULT: -7.849860706      3.834      6.570
REMARK  4 active torsions:
REMARK  status: ('A' for Active; 'I' for Inactive)
REMARK       I    between atoms: N1_4  and  C4_5
REMARK    1  A    between atoms: C4_5  and  C5_7
REMARK    2  A    between atoms: C9_14  and  C10_15
REMARK       I    between atoms: C10_15  and  N2_17
REMARK    3  A    between atoms: C12_21  and  C13_22
REMARK       I    between atoms: C13_22  and  N3_24
REMARK    4  A    between atoms: N3_24  and  C14_26
ROOT
HETATM    1  C1  UNL     1      -3.103 -46.746   1.651  1.00  0.00     0.018 C
HETATM    2  C2  UNL     1      -4.043 -46.982   2.770  1.00  0.00    -0.009 C
HETATM    3  C3  UNL     1      -4.082 -48.473   3.032  1.00  0.00     0.137 C
HETATM    4  N1  UNL     1      -3.256 -48.728   4.174  1.00  0.00    -0.339 N
HETATM    5  C4  UNL     1      -2.673 -49.984   4.483  1.00  0.00     0.328 C
HETATM    6  O1  UNL     1      -2.893 -50.947   3.708  1.00  0.00    -0.263 OA
HETATM    7  C6  UNL     1      -3.118 -47.514   4.951  1.00  0.00     0.093 C
HETATM    8  C7  UNL     1      -4.382 -47.254   5.742  1.00  0.00     0.031 C
HETATM    9  C8  UNL     1      -4.596 -46.021   4.895  1.00  0.00     0.008 C
HETATM   10  C9  UNL     1      -5.838 -46.074   4.034  1.00  0.00     0.096 C
HETATM   11  C12 UNL     1      -5.406 -46.368   2.638  1.00  0.00     0.101 C
HETATM   12  C20 UNL     1      -3.428 -46.397   4.021  1.00  0.00     0.024 C
ENDROOT
BRANCH  11  13
HETATM   13  C13 UNL     1      -5.592 -45.372   1.623  1.00  0.00     0.223 C
HETATM   14  O3  UNL     1      -4.714 -44.431   1.506  1.00  0.00    -0.273 OA
HETATM   15  N3  UNL     1      -6.620 -45.223   0.675  1.00  0.00    -0.356 N
ATOM     16  H3  UNL     1      -7.357 -45.928   0.688  1.00  0.00     0.162 HD
BRANCH  15  17
HETATM   17  C14 UNL     1      -6.741 -44.181  -0.312  1.00  0.00     0.084 C
HETATM   18  C15 UNL     1      -7.746 -43.145   0.173  1.00  0.00     0.025 C
HETATM   19  C16 UNL     1      -9.161 -43.664   0.080  1.00  0.00     0.002 C
HETATM   20  C17 UNL     1      -9.456 -43.966  -1.372  1.00  0.00     0.000 C
HETATM   21  C18 UNL     1      -8.538 -45.089  -1.802  1.00  0.00     0.002 C
HETATM   22  C19 UNL     1      -7.087 -44.706  -1.664  1.00  0.00     0.025 C
ENDBRANCH  15  17
ENDBRANCH  11  13
BRANCH  10  23
HETATM   23  C10 UNL     1      -6.619 -44.881   4.278  1.00  0.00     0.227 C
HETATM   24  O2  UNL     1      -7.601 -44.593   3.546  1.00  0.00    -0.273 OA
HETATM   25  N2  UNL     1      -6.352 -43.962   5.324  1.00  0.00    -0.331 N
HETATM   26  C11 UNL     1      -7.325 -43.514   6.035  1.00  0.00     0.147 C
ATOM     27  H2  UNL     1      -5.397 -43.659   5.511  1.00  0.00     0.168 HD
HETATM   28 BR1  UNL     1      -7.020 -42.266   7.467  1.00  0.00    -0.045 Br
ENDBRANCH  10  23
BRANCH   5  29
HETATM   29  C5  UNL     1      -1.821 -50.159   5.691  1.00  0.00     0.472 C
HETATM   30  F1  UNL     1      -2.525 -49.849   6.819  1.00  0.00    -0.162 F
HETATM   31  F2  UNL     1      -0.710 -49.347   5.574  1.00  0.00    -0.162 F
HETATM   32  F3  UNL     1      -1.426 -51.470   5.767  1.00  0.00    -0.162 F
ENDBRANCH   5  29
TORSDOF 4
ENDMDL