MODEL 2
REMARK VINA RESULT: -4.712420022      3.511      7.393
REMARK  3 active torsions:
REMARK  status: ('A' for Active; 'I' for Inactive)
REMARK    1  A    between atoms: C4_4  and  C5_5
REMARK    2  A    between atoms: C8_8  and  N1_9
REMARK       I    between atoms: N1_9  and  C9_11
REMARK       I    between atoms: C9_11  and  N2_13
REMARK    3  A    between atoms: C13_18  and  C14_19
ROOT
HETATM    1  N1  UNL     1      -5.827 -45.356   1.060  1.00  0.00    -0.321 N
ATOM      2  H1  UNL     1      -5.763 -44.349   1.207  1.00  0.00     0.166 HD
HETATM    3  C9  UNL     1      -6.703 -45.831   0.045  1.00  0.00     0.320 C
HETATM    4  O1  UNL     1      -6.750 -47.079  -0.098  1.00  0.00    -0.247 OA
HETATM    5  N2  UNL     1      -7.483 -44.965  -0.763  1.00  0.00    -0.326 N
HETATM    6  C10 UNL     1      -7.462 -43.536  -0.634  1.00  0.00     0.153 C
HETATM    7  C11 UNL     1      -8.716 -43.085  -1.305  1.00  0.00     0.078 A
HETATM    8 BR1  UNL     1     -10.117 -42.233  -0.319  1.00  0.00    -0.080 Br
HETATM    9  C12 UNL     1      -9.077 -44.145  -2.330  1.00  0.00     0.074 A
HETATM   10  C13 UNL     1      -8.404 -45.333  -1.818  1.00  0.00     0.115 C
HETATM   11  C16 UNL     1      -8.565 -42.873  -2.771  1.00  0.00     0.140 A
HETATM   12 CL2  UNL     1      -6.949 -42.552  -3.370  1.00  0.00    -0.099 Cl
HETATM   13 CL3  UNL     1      -9.746 -41.654  -3.386  1.00  0.00    -0.099 Cl
ENDROOT
BRANCH   1  14
HETATM   14  C8  UNL     1      -5.025 -46.216   1.893  1.00  0.00     0.195 C
HETATM   15  C4  UNL     1      -3.616 -46.385   1.470  1.00  0.00     0.033 C
HETATM   16  C3  UNL     1      -2.617 -46.457   2.612  1.00  0.00     0.022 C
HETATM   17  C2  UNL     1      -3.142 -47.262   3.774  1.00  0.00     0.074 C
HETATM   18  C1  UNL     1      -2.152 -47.088   4.913  1.00  0.00     0.020 C
HETATM   19  C18 UNL     1      -4.430 -46.641   4.238  1.00  0.00     0.225 C
HETATM   20  N3  UNL     1      -5.163 -45.881   3.299  1.00  0.00    -0.334 N
HETATM   21  O2  UNL     1      -4.781 -46.831   5.428  1.00  0.00    -0.273 OA
HETATM   22  C17 UNL     1      -6.004 -44.820   3.810  1.00  0.00     0.154 C
BRANCH  15  23
HETATM   23  C5  UNL     1      -3.071 -45.335   0.527  1.00  0.00    -0.015 C
HETATM   24  C6  UNL     1      -3.383 -45.585  -0.909  1.00  0.00     0.010 C
HETATM   25  C7  UNL     1      -1.662 -44.922   0.816  1.00  0.00     0.010 C
ENDBRANCH  15  23
ENDBRANCH   1  14
BRANCH  10  26
HETATM   26  C14 UNL     1      -7.858 -46.289  -2.823  1.00  0.00     0.101 C
HETATM   27  C15 UNL     1      -9.006 -46.671  -3.768  1.00  0.00     0.029 C
HETATM   28 CL1  UNL     1      -6.504 -45.770  -3.768  1.00  0.00    -0.123 Cl
ENDBRANCH  10  26
TORSDOF 3
ENDMDL