MODEL 3
REMARK VINA RESULT: -5.452042524      2.025      4.170
REMARK  2 active torsions:
REMARK  status: ('A' for Active; 'I' for Inactive)
REMARK    1  A    between atoms: C2_2  and  O1_3
REMARK    2  A    between atoms: O1_3  and  C3_4
ROOT
HETATM    1  C3  UNL     1      29.704  -8.761 -26.112  1.00  0.00     0.065 C
HETATM    2  C4  UNL     1      29.486  -7.618 -25.168  1.00  0.00     0.071 C
HETATM    3  C5  UNL     1      29.830  -7.915 -23.740  1.00  0.00     0.189 C
HETATM    4  C6  UNL     1      28.722  -8.545 -22.966  1.00  0.00     0.034 C
HETATM    5  C7  UNL     1      28.178  -9.812 -23.436  1.00  0.00     0.011 C
HETATM    6  C8  UNL     1      28.888 -10.535 -24.520  1.00  0.00    -0.039 C
HETATM    7  C9  UNL     1      28.198 -11.902 -24.668  1.00  0.00     0.015 C
HETATM    8  C10 UNL     1      30.300 -10.807 -24.147  1.00  0.00     0.042 C
HETATM    9  C11 UNL     1      31.264  -9.717 -24.437  1.00  0.00     0.190 C
HETATM   10  C12 UNL     1      31.103  -9.285 -25.865  1.00  0.00     0.071 C
HETATM   11  N1  UNL     1      31.099  -8.559 -23.598  1.00  0.00    -0.066 N
ATOM     12  H11 UNL     1      31.273  -8.796 -22.622  1.00  0.00     0.278 HD
ATOM     13  H12 UNL     1      31.857  -7.894 -23.751  1.00  0.00     0.278 HD
HETATM   14  C13 UNL     1      28.690  -9.823 -25.815  1.00  0.00     0.047 C
ENDROOT
BRANCH   1  15
HETATM   15  O1  UNL     1      29.586  -8.365 -27.418  1.00  0.00    -0.380 OA
BRANCH  15  16
HETATM   16  C2  UNL     1      28.428  -8.742 -28.049  1.00  0.00     0.164 C
HETATM   17  C1  UNL     1      27.732  -7.547 -28.687  1.00  0.00     0.033 C
ENDBRANCH  15  16
ENDBRANCH   1  15
TORSDOF 2
ENDMDL