MODEL 5
REMARK VINA RESULT: -5.637390998      1.569      5.528
REMARK  2 active torsions:
REMARK  status: ('A' for Active; 'I' for Inactive)
REMARK    1  A    between atoms: C2_2  and  N1_4
REMARK    2  A    between atoms: N1_4  and  C4_6
ROOT
HETATM    1  C4  UNL     1      27.339 -10.494 -21.276  1.00  0.00     0.026 C
HETATM    2  C5  UNL     1      28.005  -9.758 -20.162  1.00  0.00     0.031 C
HETATM    3  C6  UNL     1      27.883 -10.249 -18.802  1.00  0.00     0.007 C
HETATM    4  C7  UNL     1      26.969 -11.397 -18.519  1.00  0.00    -0.014 C
HETATM    5  C8  UNL     1      25.535 -11.129 -18.852  1.00  0.00     0.009 C
HETATM    6  C9  UNL     1      25.256 -11.484 -20.261  1.00  0.00    -0.012 C
HETATM    7  C10 UNL     1      25.672 -12.875 -20.651  1.00  0.00     0.009 C
HETATM    8  C11 UNL     1      27.180 -12.903 -20.505  1.00  0.00    -0.012 C
HETATM    9  C12 UNL     1      27.503 -12.688 -19.061  1.00  0.00     0.009 C
HETATM   10  C13 UNL     1      27.873 -11.945 -21.380  1.00  0.00     0.035 C
HETATM   11  C14 UNL     1      25.856 -10.483 -21.228  1.00  0.00     0.035 C
ENDROOT
BRANCH   1  12
HETATM   12  N1  UNL     1      27.880  -9.914 -22.476  1.00  0.00    -0.409 N
ATOM     13  H1  UNL     1      27.262  -9.706 -23.261  1.00  0.00     0.154 HD
BRANCH  12  14
HETATM   14  C2  UNL     1      29.254  -9.630 -22.577  1.00  0.00     0.069 C
HETATM   15  C1  UNL     1      30.080 -10.446 -23.502  1.00  0.00     0.031 C
HETATM   16  C3  UNL     1      29.353  -8.198 -23.069  1.00  0.00     0.031 C
ENDBRANCH  12  14
ENDBRANCH   1  12
TORSDOF 2
ENDMDL