MODEL 5
REMARK VINA RESULT: -6.052033683      2.355      4.868
REMARK  3 active torsions:
REMARK  status: ('A' for Active; 'I' for Inactive)
REMARK    1  A    between atoms: C2_2  and  C4_4
REMARK    2  A    between atoms: C9_12  and  C10_13
REMARK    3  A    between atoms: C10_13  and  O1_14
ROOT
HETATM    1  C4  UNL     1      25.834 -11.215 -20.148  1.00  0.00    -0.005 C
HETATM    2  C5  UNL     1      25.999 -11.115 -18.669  1.00  0.00     0.005 C
HETATM    3  C6  UNL     1      27.350 -10.860 -18.137  1.00  0.00     0.002 C
HETATM    4  C7  UNL     1      27.876  -9.616 -18.873  1.00  0.00     0.033 C
HETATM    5  C8  UNL     1      28.030 -10.119 -20.291  1.00  0.00     0.191 C
HETATM    6  N1  UNL     1      28.867  -9.183 -20.990  1.00  0.00    -0.064 N
ATOM      7  H11 UNL     1      29.771  -9.097 -20.525  1.00  0.00     0.278 HD
ATOM      8  H12 UNL     1      28.519  -8.233 -20.869  1.00  0.00     0.278 HD
HETATM    9  C9  UNL     1      29.045  -9.479 -22.383  1.00  0.00     0.209 C
HETATM   10  C11 UNL     1      27.774  -9.860 -23.096  1.00  0.00     0.036 C
HETATM   11  C12 UNL     1      27.120 -10.983 -22.302  1.00  0.00     0.009 C
HETATM   12  C13 UNL     1      26.699 -10.346 -20.980  1.00  0.00     0.020 C
ENDROOT
BRANCH   1  13
HETATM   13  C2  UNL     1      24.357 -11.068 -20.394  1.00  0.00    -0.018 C
HETATM   14  C1  UNL     1      23.628 -11.053 -19.063  1.00  0.00     0.010 C
HETATM   15  C3  UNL     1      23.742 -12.074 -21.279  1.00  0.00     0.010 C
ENDBRANCH   1  13
BRANCH   9  16
HETATM   16  C10 UNL     1      29.653  -8.316 -23.095  1.00  0.00     0.197 C
BRANCH  16  17
HETATM   17  O1  UNL     1      29.655  -7.144 -22.358  1.00  0.00    -0.399 OA
ATOM     18  H1  UNL     1      29.108  -6.459 -22.723  1.00  0.00     0.209 HD
ENDBRANCH  16  17
ENDBRANCH   9  16
TORSDOF 3
ENDMDL