MODEL 2
REMARK VINA RESULT: -5.739267112      2.240      3.142
REMARK  4 active torsions:
REMARK  status: ('A' for Active; 'I' for Inactive)
REMARK    1  A    between atoms: N1_1  and  C1_5
REMARK    2  A    between atoms: C1_5  and  C2_6
REMARK    3  A    between atoms: C2_6  and  O1_7
REMARK    4  A    between atoms: C7_13  and  C8_14
ROOT
HETATM    1  C2  UNL     1      27.435 -10.971 -19.628  1.00  0.00     0.085 C
HETATM    2  C3  UNL     1      26.005 -10.964 -19.065  1.00  0.00     0.040 C
HETATM    3  C4  UNL     1      25.154 -11.894 -19.878  1.00  0.00     0.003 C
HETATM    4  C5  UNL     1      24.975 -11.310 -21.237  1.00  0.00     0.001 C
HETATM    5  C6  UNL     1      26.007 -10.205 -21.506  1.00  0.00     0.008 C
HETATM    6  C7  UNL     1      27.360 -10.807 -21.084  1.00  0.00     0.026 C
ENDROOT
BRANCH   1   7
HETATM    7  C1  UNL     1      28.222 -10.016 -18.820  1.00  0.00     0.267 C
BRANCH   7   8
HETATM    8  N1  UNL     1      27.333  -9.570 -17.724  1.00  0.00    -0.076 N
ATOM      9  H13 UNL     1      26.592 -10.236 -17.507  1.00  0.00     0.274 HD
ATOM     10  H12 UNL     1      27.781  -9.581 -16.808  1.00  0.00     0.274 HD
ATOM     11  H11 UNL     1      26.986  -8.650 -17.994  1.00  0.00     0.274 HD
ENDBRANCH   7   8
ENDBRANCH   1   7
BRANCH   1  12
HETATM   12  O1  UNL     1      27.949 -12.263 -19.334  1.00  0.00    -0.388 OA
ATOM     13  H1  UNL     1      27.893 -12.762 -20.140  1.00  0.00     0.210 HD
ENDBRANCH   1  12
BRANCH   6  14
HETATM   14  C8  UNL     1      28.494 -10.112 -21.777  1.00  0.00    -0.008 C
HETATM   15  C9  UNL     1      28.170  -8.771 -22.351  1.00  0.00     0.005 C
HETATM   16  C10 UNL     1      29.061  -8.576 -23.592  1.00  0.00     0.000 C
HETATM   17  C11 UNL     1      28.518  -9.584 -24.598  1.00  0.00     0.000 C
HETATM   18  C12 UNL     1      29.025 -10.929 -24.129  1.00  0.00     0.000 C
HETATM   19  C13 UNL     1      29.251 -11.034 -22.673  1.00  0.00     0.005 C
ENDBRANCH   6  14
TORSDOF 4
ENDMDL