MODEL 2
REMARK VINA RESULT: -5.469070561      4.118      5.776
REMARK  2 active torsions:
REMARK  status: ('A' for Active; 'I' for Inactive)
REMARK    1  A    between atoms: C2_2  and  C3_3
REMARK    2  A    between atoms: C6_11  and  C7_12
ROOT
HETATM    1  C3  UNL     1      30.064  -8.308 -25.478  1.00  0.00     0.089 C
HETATM    2  N1  UNL     1      30.687  -7.905 -24.262  1.00  0.00    -0.375 N
ATOM      3  H1  UNL     1      31.600  -7.451 -24.280  1.00  0.00     0.161 HD
HETATM    4  C4  UNL     1      30.038  -8.135 -23.040  1.00  0.00     0.071 C
HETATM    5  N2  UNL     1      30.498  -7.646 -21.950  1.00  0.00    -0.389 N
ATOM      6  H21 UNL     1      30.027  -7.813 -21.062  1.00  0.00     0.157 HD
ATOM      7  H22 UNL     1      31.344  -7.078 -21.926  1.00  0.00     0.157 HD
HETATM    8  C5  UNL     1      28.804  -8.964 -23.077  1.00  0.00     0.085 C
HETATM    9  C6  UNL     1      28.980 -10.096 -24.071  1.00  0.00    -0.025 C
HETATM   10  C9  UNL     1      29.971 -11.046 -23.380  1.00  0.00     0.036 C
HETATM   11  C10 UNL     1      30.339 -12.107 -24.358  1.00  0.00     0.168 C
HETATM   12  O1  UNL     1      31.057 -11.467 -25.356  1.00  0.00    -0.391 OA
HETATM   13  C11 UNL     1      30.275 -10.667 -26.161  1.00  0.00     0.174 C
HETATM   14  C12 UNL     1      29.423  -9.675 -25.416  1.00  0.00     0.041 C
ENDROOT
BRANCH   1  15
HETATM   15  C2  UNL     1      29.107  -7.243 -26.021  1.00  0.00     0.021 C
HETATM   16  C1  UNL     1      28.392  -7.829 -27.233  1.00  0.00     0.007 C
ENDBRANCH   1  15
BRANCH   9  17
HETATM   17  C7  UNL     1      27.660 -10.857 -24.083  1.00  0.00     0.006 C
HETATM   18  C8  UNL     1      27.079 -11.096 -22.738  1.00  0.00     0.006 C
ENDBRANCH   9  17
TORSDOF 2
ENDMDL