MODEL 3
REMARK VINA RESULT: -5.842266949      0.972      1.002
REMARK  4 active torsions:
REMARK  status: ('A' for Active; 'I' for Inactive)
REMARK    1  A    between atoms: O1_2  and  N1_3
REMARK    2  A    between atoms: N1_3  and  C2_5
REMARK    3  A    between atoms: C2_5  and  C3_6
REMARK    4  A    between atoms: C4_7  and  C5_8
ROOT
HETATM    1  C5  UNL     1      28.586 -10.004 -22.552  1.00  0.00     0.020 C
HETATM    2  C6  UNL     1      27.546 -10.567 -23.561  1.00  0.00     0.029 C
HETATM    3  C7  UNL     1      29.916 -10.595 -22.797  1.00  0.00     0.022 C
HETATM    4  C8  UNL     1      30.343 -10.559 -24.264  1.00  0.00     0.002 C
HETATM    5  C9  UNL     1      31.348  -9.499 -24.579  1.00  0.00     0.000 C
HETATM    6  C10 UNL     1      30.762  -8.291 -25.270  1.00  0.00     0.000 C
HETATM    7  C11 UNL     1      29.669  -7.590 -24.546  1.00  0.00     0.000 C
HETATM    8  C12 UNL     1      29.676  -7.785 -23.056  1.00  0.00     0.002 C
HETATM    9  C13 UNL     1      28.473  -8.520 -22.586  1.00  0.00     0.022 C
ENDROOT
BRANCH   1  10
HETATM   10  C4  UNL     1      28.079 -10.439 -21.255  1.00  0.00    -0.095 C
HETATM   11  C3  UNL     1      27.736 -10.836 -20.197  1.00  0.00    -0.084 C
BRANCH  11  12
HETATM   12  C2  UNL     1      27.494 -11.323 -18.835  1.00  0.00     0.239 C
BRANCH  12  13
HETATM   13  N1  UNL     1      26.988 -10.196 -18.140  1.00  0.00    -0.292 N
ATOM     14  H1  UNL     1      27.453  -9.295 -18.254  1.00  0.00     0.188 HD
BRANCH  13  15
HETATM   15  O1  UNL     1      25.959 -10.275 -17.368  1.00  0.00    -0.289 OA
HETATM   16  C1  UNL     1      25.176 -11.400 -17.441  1.00  0.00     0.237 C
ENDBRANCH  13  15
ENDBRANCH  12  13
ENDBRANCH  11  12
ENDBRANCH   1  10
TORSDOF 4
ENDMDL