MODEL 5
REMARK VINA RESULT: -5.913527615      1.372      2.508
REMARK  2 active torsions:
REMARK  status: ('A' for Active; 'I' for Inactive)
REMARK    1  A    between atoms: C8_10  and  C9_11
REMARK    2  A    between atoms: C9_11  and  C10_12
ROOT
HETATM    1  C1  UNL     1      26.212 -13.195 -18.919  1.00  0.00     0.060 C
HETATM    2  N1  UNL     1      25.854 -13.838 -19.964  1.00  0.00    -0.397 N
ATOM      3  H1  UNL     1      25.710 -14.837 -19.812  1.00  0.00     0.159 HD
HETATM    4  C2  UNL     1      25.616 -13.403 -21.331  1.00  0.00     0.081 C
HETATM    5  C3  UNL     1      24.470 -12.425 -21.271  1.00  0.00     0.029 C
HETATM    6  C4  UNL     1      24.849 -11.090 -20.733  1.00  0.00    -0.011 C
HETATM    7  C5  UNL     1      25.202 -11.048 -19.293  1.00  0.00     0.014 C
HETATM    8  C6  UNL     1      26.480 -11.706 -18.915  1.00  0.00     0.025 C
HETATM    9  C7  UNL     1      27.605 -11.490 -19.887  1.00  0.00     0.019 C
HETATM   10  C8  UNL     1      27.192 -11.451 -21.317  1.00  0.00    -0.036 C
HETATM   11  C13 UNL     1      25.984 -10.531 -21.540  1.00  0.00     0.014 C
HETATM   12  C14 UNL     1      26.887 -12.816 -21.840  1.00  0.00     0.034 C
ENDROOT
BRANCH  10  13
HETATM   13  C9  UNL     1      28.299 -10.796 -22.110  1.00  0.00     0.042 C
BRANCH  13  14
HETATM   14  C10 UNL     1      28.288  -9.296 -22.012  1.00  0.00     0.188 A
HETATM   15  C11 UNL     1      28.668  -8.694 -23.350  1.00  0.00     0.060 A
HETATM   16  C12 UNL     1      29.858  -8.052 -22.708  1.00  0.00     0.235 A
HETATM   17  N2  UNL     1      29.483  -8.694 -21.458  1.00  0.00    -0.071 N
ATOM     18  H22 UNL     1      29.392  -8.115 -20.624  1.00  0.00     0.277 HD
ATOM     19  H21 UNL     1      30.164  -9.302 -21.002  1.00  0.00     0.277 HD
ENDBRANCH  13  14
ENDBRANCH  10  13
TORSDOF 2
ENDMDL