MODEL 2
REMARK VINA RESULT: -6.281681151      1.205      5.201
REMARK  4 active torsions:
REMARK  status: ('A' for Active; 'I' for Inactive)
REMARK    1  A    between atoms: O1_1  and  N1_3
REMARK    2  A    between atoms: C1_5  and  N2_6
REMARK    3  A    between atoms: C1_5  and  C8_14
REMARK    4  A    between atoms: N2_6  and  C2_8
ROOT
HETATM    1  N1  UNL     1      29.064  -9.121 -20.836  1.00  0.00    -0.257 N
ATOM      2  H1  UNL     1      28.296  -9.026 -20.171  1.00  0.00     0.195 HD
HETATM    3  C1  UNL     1      28.939  -9.912 -21.841  1.00  0.00     0.101 C
ENDROOT
BRANCH   3   4
HETATM    4  N2  UNL     1      30.026 -10.026 -22.749  1.00  0.00    -0.373 N
ATOM      5  H2  UNL     1      30.855 -10.558 -22.485  1.00  0.00     0.161 HD
BRANCH   4   6
HETATM    6  C2  UNL     1      29.963  -9.404 -24.018  1.00  0.00     0.082 C
HETATM    7  C3  UNL     1      29.695  -7.917 -23.962  1.00  0.00     0.025 C
HETATM    8  C4  UNL     1      30.008  -7.392 -25.355  1.00  0.00     0.002 C
HETATM    9  C5  UNL     1      29.009  -7.950 -26.314  1.00  0.00     0.000 C
HETATM   10  C6  UNL     1      28.788  -9.412 -26.229  1.00  0.00     0.002 C
HETATM   11  C7  UNL     1      28.850 -10.002 -24.863  1.00  0.00     0.025 C
ENDBRANCH   4   6
ENDBRANCH   3   4
BRANCH   3  12
HETATM   12  C8  UNL     1      27.677 -10.683 -22.031  1.00  0.00     0.055 C
HETATM   13  C9  UNL     1      27.629 -11.757 -20.969  1.00  0.00     0.012 C
HETATM   14  C10 UNL     1      26.164 -11.911 -20.628  1.00  0.00     0.001 C
HETATM   15  C11 UNL     1      25.422 -10.811 -21.309  1.00  0.00     0.001 C
HETATM   16  C12 UNL     1      26.452  -9.838 -21.841  1.00  0.00     0.012 C
ENDBRANCH   3  12
BRANCH   1  17
HETATM   17  O1  UNL     1      30.200  -8.414 -20.648  1.00  0.00    -0.288 OA
ATOM     18  H1  UNL     1      30.632  -8.401 -19.801  1.00  0.00     0.244 HD
ENDBRANCH   1  17
TORSDOF 4
ENDMDL