MODEL 5
REMARK VINA RESULT: -5.946852482      1.642      5.213
REMARK  4 active torsions:
REMARK  status: ('A' for Active; 'I' for Inactive)
REMARK    1  A    between atoms: C2_2  and  C3_3
REMARK    2  A    between atoms: C8_8  and  O1_9
REMARK    3  A    between atoms: C9_11  and  N1_12
REMARK    4  A    between atoms: N1_12  and  C10_14
ROOT
HETATM    1  C3  UNL     1      -9.118 -26.022  30.445  1.00  0.00     0.032 C
HETATM    2  C4  UNL     1      -8.758 -27.213  31.254  1.00  0.00     0.011 C
HETATM    3  C5  UNL     1      -7.741 -26.982  32.317  1.00  0.00     0.007 C
HETATM    4  C6  UNL     1      -6.611 -26.114  31.919  1.00  0.00     0.012 C
HETATM    5  C7  UNL     1      -5.446 -26.888  31.288  1.00  0.00     0.012 C
HETATM    6  C8  UNL     1      -6.984 -24.895  31.107  1.00  0.00     0.144 C
HETATM    7  C9  UNL     1      -7.904 -25.237  30.009  1.00  0.00     0.113 C
ENDROOT
BRANCH   7   8
HETATM    8  N1  UNL     1      -8.290 -24.244  29.097  1.00  0.00    -0.410 N
ATOM      9  H1  UNL     1      -8.068 -24.378  28.110  1.00  0.00     0.154 HD
BRANCH   8  10
HETATM   10  C10 UNL     1      -8.963 -23.082  29.474  1.00  0.00     0.077 C
HETATM   11  C11 UNL     1      -8.137 -21.853  29.304  1.00  0.00     0.024 C
HETATM   12  C12 UNL     1      -8.988 -20.663  28.857  1.00  0.00     0.002 C
HETATM   13  C13 UNL     1      -9.577 -20.919  27.489  1.00  0.00     0.000 C
HETATM   14  C14 UNL     1     -10.016 -22.386  27.348  1.00  0.00     0.002 C
HETATM   15  C15 UNL     1     -10.290 -22.900  28.717  1.00  0.00     0.024 C
ENDBRANCH   8  10
ENDBRANCH   7   8
BRANCH   1  16
HETATM   16  C2  UNL     1      -9.699 -26.593  29.162  1.00  0.00    -0.030 C
HETATM   17  C1  UNL     1      -9.574 -27.877  28.894  1.00  0.00     0.007 C
ENDBRANCH   1  16
BRANCH   6  18
HETATM   18  O1  UNL     1      -5.754 -24.476  30.520  1.00  0.00    -0.393 OA
ATOM     19  H1  UNL     1      -5.512 -25.193  29.946  1.00  0.00     0.210 HD
ENDBRANCH   6  18
TORSDOF 4
ENDMDL