MODEL 1
REMARK VINA RESULT: -6.547864332      0.000      0.000
REMARK  4 active torsions:
REMARK  status: ('A' for Active; 'I' for Inactive)
REMARK    1  A    between atoms: C2_2  and  N1_3
REMARK    2  A    between atoms: N1_3  and  C3_5
REMARK    3  A    between atoms: C3_5  and  C4_6
REMARK    4  A    between atoms: C4_6  and  O1_7
ROOT
HETATM    1  C4  UNL     1      -8.093 -23.939  28.942  1.00  0.00     0.078 C
HETATM    2  C5  UNL     1      -9.527 -24.045  28.370  1.00  0.00     0.045 C
HETATM    3  C6  UNL     1     -10.070 -25.062  29.320  1.00  0.00    -0.002 A
HETATM    4  C7  UNL     1     -10.106 -26.454  29.473  1.00  0.00    -0.005 A
HETATM    5  C8  UNL     1      -9.745 -27.200  30.769  1.00  0.00     0.010 C
HETATM    6  C9  UNL     1      -8.760 -26.514  31.613  1.00  0.00    -0.010 C
HETATM    7  C10 UNL     1      -7.743 -27.549  32.113  1.00  0.00     0.005 C
HETATM    8  C11 UNL     1      -6.774 -26.564  32.771  1.00  0.00     0.001 C
HETATM    9  C12 UNL     1      -6.543 -25.626  31.608  1.00  0.00     0.005 C
HETATM   10  C13 UNL     1      -7.968 -25.381  31.055  1.00  0.00    -0.003 C
HETATM   11  C14 UNL     1      -7.840 -25.306  29.601  1.00  0.00     0.031 C
HETATM   12  C15 UNL     1      -8.906 -26.053  28.904  1.00  0.00     0.002 A
ENDROOT
BRANCH   1  13
HETATM   13  C3  UNL     1      -7.921 -22.792  29.824  1.00  0.00     0.152 C
BRANCH  13  14
HETATM   14  N1  UNL     1      -7.566 -21.587  29.149  1.00  0.00    -0.419 N
ATOM     15  H1  UNL     1      -6.776 -21.546  28.504  1.00  0.00     0.153 HD
BRANCH  14  16
HETATM   16  C2  UNL     1      -8.366 -20.445  29.421  1.00  0.00     0.109 C
HETATM   17  C1  UNL     1      -9.471 -20.403  28.352  1.00  0.00     0.026 C
ENDBRANCH  14  16
ENDBRANCH  13  14
ENDBRANCH   1  13
BRANCH   1  18
HETATM   18  O1  UNL     1      -7.251 -23.914  27.833  1.00  0.00    -0.388 OA
ATOM     19  H1  UNL     1      -6.947 -24.775  27.571  1.00  0.00     0.210 HD
ENDBRANCH   1  18
TORSDOF 4
ENDMDL