MODEL 1
REMARK VINA RESULT: -6.412957747      0.000      0.000
REMARK  5 active torsions:
REMARK  status: ('A' for Active; 'I' for Inactive)
REMARK    1  A    between atoms: C6_9  and  N2_10
REMARK    2  A    between atoms: N2_10  and  C7_12
REMARK    3  A    between atoms: C7_12  and  C8_13
REMARK    4  A    between atoms: C8_13  and  C9_14
REMARK    5  A    between atoms: C10_15  and  C11_16
ROOT
HETATM    1  N2  UNL     1      -9.809 -24.132  27.955  1.00  0.00    -0.414 N
ATOM      2  H2  UNL     1     -10.051 -24.448  27.016  1.00  0.00     0.153 HD
ENDROOT
BRANCH   1   3
HETATM    3  C6  UNL     1      -9.235 -22.841  28.170  1.00  0.00     0.105 C
HETATM    4  C2  UNL     1     -10.153 -21.674  28.089  1.00  0.00     0.007 C
HETATM    5  C1  UNL     1     -11.125 -21.502  29.198  1.00  0.00     0.012 C
HETATM    6  C3  UNL     1      -9.261 -20.417  28.061  1.00  0.00     0.034 C
HETATM    7  C4  UNL     1      -8.420 -20.435  29.316  1.00  0.00     0.232 C
HETATM    8  N1  UNL     1      -7.570 -21.613  29.368  1.00  0.00    -0.073 N
HETATM    9  C5  UNL     1      -8.317 -22.832  29.346  1.00  0.00     0.257 C
ATOM     10  H12 UNL     1      -6.874 -21.596  28.623  1.00  0.00     0.277 HD
ATOM     11  H11 UNL     1      -6.947 -21.579  30.175  1.00  0.00     0.277 HD
ENDBRANCH   1   3
BRANCH   1  12
HETATM   12  C7  UNL     1     -10.030 -24.959  29.083  1.00  0.00     0.126 C
BRANCH  12  13
HETATM   13  C8  UNL     1      -9.363 -26.298  28.821  1.00  0.00     0.113 C
BRANCH  13  14
HETATM   14  C9  UNL     1      -8.153 -26.480  29.592  1.00  0.00    -0.105 C
HETATM   15  C10 UNL     1      -7.145 -26.595  30.239  1.00  0.00    -0.101 C
BRANCH  15  16
HETATM   16  C11 UNL     1      -5.903 -26.703  31.051  1.00  0.00     0.068 C
HETATM   17  C12 UNL     1      -6.190 -26.408  32.485  1.00  0.00     0.044 C
HETATM   18  C13 UNL     1      -6.353 -27.565  33.370  1.00  0.00    -0.029 C
HETATM   19  C14 UNL     1      -6.458 -28.786  32.909  1.00  0.00    -0.031 C
HETATM   20  C15 UNL     1      -6.415 -29.029  31.455  1.00  0.00     0.028 C
HETATM   21  C16 UNL     1      -5.317 -28.093  30.926  1.00  0.00     0.021 C
ENDBRANCH  15  16
ENDBRANCH  13  14
ENDBRANCH  12  13
ENDBRANCH   1  12
TORSDOF 5
ENDMDL