MODEL 3
REMARK VINA RESULT: -6.121094528      2.079      6.144
REMARK  3 active torsions:
REMARK  status: ('A' for Active; 'I' for Inactive)
REMARK    1  A    between atoms: C3_3  and  C4_4
REMARK    2  A    between atoms: C4_4  and  N1_5
REMARK    3  A    between atoms: N1_5  and  C5_7
ROOT
HETATM    1  C5  UNL     1      -9.494 -23.117  28.610  1.00  0.00     0.084 C
HETATM    2  C6  UNL     1     -10.485 -24.194  28.777  1.00  0.00     0.009 C
HETATM    3  C7  UNL     1     -10.168 -25.330  27.807  1.00  0.00     0.011 C
HETATM    4  C8  UNL     1     -10.071 -24.820  26.409  1.00  0.00    -0.013 C
HETATM    5  C9  UNL     1     -11.470 -24.322  26.011  1.00  0.00     0.009 C
HETATM    6  C10 UNL     1     -11.882 -23.229  26.940  1.00  0.00    -0.013 C
HETATM    7  C11 UNL     1     -11.868 -23.713  28.372  1.00  0.00     0.011 C
HETATM    8  C12 UNL     1     -10.917 -22.052  26.894  1.00  0.00     0.011 C
HETATM    9  C13 UNL     1      -9.561 -22.561  27.161  1.00  0.00     0.009 C
HETATM   10  C14 UNL     1      -9.164 -23.636  26.210  1.00  0.00     0.011 C
ENDROOT
BRANCH   1  11
HETATM   11  N1  UNL     1      -8.135 -23.352  28.819  1.00  0.00    -0.416 N
ATOM     12  H1  UNL     1      -7.466 -23.299  28.051  1.00  0.00     0.153 HD
BRANCH  11  13
HETATM   13  C4  UNL     1      -7.721 -23.666  30.128  1.00  0.00     0.120 C
BRANCH  13  14
HETATM   14  C3  UNL     1      -6.995 -25.019  30.146  1.00  0.00     0.030 C
HETATM   15  C2  UNL     1      -7.850 -26.156  30.564  1.00  0.00     0.035 C
HETATM   16  C1  UNL     1      -6.950 -26.834  31.585  1.00  0.00     0.232 C
HETATM   17  N2  UNL     1      -6.478 -25.632  32.294  1.00  0.00    -0.075 N
HETATM   18  C15 UNL     1      -5.884 -24.899  31.163  1.00  0.00     0.238 C
ATOM     19  H22 UNL     1      -7.179 -25.126  32.835  1.00  0.00     0.277 HD
ATOM     20  H21 UNL     1      -5.864 -25.794  33.093  1.00  0.00     0.277 HD
ENDBRANCH  13  14
ENDBRANCH  11  13
ENDBRANCH   1  11
TORSDOF 3
ENDMDL