MODEL 3
REMARK VINA RESULT: -6.471956208      1.144      1.520
REMARK  4 active torsions:
REMARK  status: ('A' for Active; 'I' for Inactive)
REMARK    1  A    between atoms: O1_1  and  C1_3
REMARK    2  A    between atoms: C5_7  and  N1_8
REMARK    3  A    between atoms: N1_8  and  C6_11
REMARK    4  A    between atoms: C6_11  and  C7_12
ROOT
HETATM    1  C7  UNL     1      -7.895 -25.767  30.132  1.00  0.00    -0.012 C
HETATM    2  C8  UNL     1      -8.879 -26.272  29.142  1.00  0.00     0.016 C
HETATM    3  C9  UNL     1      -9.599 -27.498  29.699  1.00  0.00    -0.010 C
HETATM    4  C10 UNL     1      -8.633 -28.575  30.087  1.00  0.00     0.037 C
HETATM    5  C11 UNL     1      -7.598 -28.031  31.061  1.00  0.00     0.187 C
HETATM    6  C12 UNL     1      -6.882 -26.863  30.385  1.00  0.00     0.044 C
HETATM    7  N2  UNL     1      -8.310 -27.635  32.252  1.00  0.00    -0.067 N
ATOM      8  H21 UNL     1      -7.670 -27.348  32.992  1.00  0.00     0.278 HD
ATOM      9  H22 UNL     1      -8.737 -28.437  32.716  1.00  0.00     0.278 HD
HETATM   10  C13 UNL     1      -9.294 -26.597  31.960  1.00  0.00     0.187 C
HETATM   11  C14 UNL     1     -10.322 -27.033  30.955  1.00  0.00     0.037 C
HETATM   12  C15 UNL     1      -8.537 -25.415  31.465  1.00  0.00     0.044 C
ENDROOT
BRANCH   1  13
HETATM   13  C6  UNL     1      -7.150 -24.571  29.581  1.00  0.00     0.242 C
BRANCH  13  14
HETATM   14  N1  UNL     1      -7.663 -23.321  30.002  1.00  0.00    -0.068 N
ATOM     15  H12 UNL     1      -7.063 -22.913  30.719  1.00  0.00     0.277 HD
ATOM     16  H11 UNL     1      -8.517 -23.450  30.543  1.00  0.00     0.277 HD
BRANCH  14  17
HETATM   17  C5  UNL     1      -7.878 -22.398  28.952  1.00  0.00     0.214 C
HETATM   18  C1  UNL     1      -8.404 -21.058  29.481  1.00  0.00     0.148 C
HETATM   19  C2  UNL     1      -9.870 -21.122  29.128  1.00  0.00     0.034 C
HETATM   20  C3  UNL     1      -9.824 -21.709  27.731  1.00  0.00     0.005 C
HETATM   21  C4  UNL     1      -8.907 -22.904  27.976  1.00  0.00     0.036 C
BRANCH  18  22
HETATM   22  O1  UNL     1      -7.798 -20.014  28.744  1.00  0.00    -0.393 OA
ATOM     23  H1  UNL     1      -6.884 -20.228  28.600  1.00  0.00     0.210 HD
ENDBRANCH  18  22
ENDBRANCH  14  17
ENDBRANCH  13  14
ENDBRANCH   1  13
TORSDOF 4
ENDMDL