MODEL 3
REMARK VINA RESULT: -6.201905402      1.583      2.528
REMARK  5 active torsions:
REMARK  status: ('A' for Active; 'I' for Inactive)
REMARK    1  A    between atoms: C2_3  and  C3_4
REMARK    2  A    between atoms: C6_7  and  C7_8
REMARK    3  A    between atoms: C7_8  and  N2_9
REMARK    4  A    between atoms: C7_8  and  C8_13
REMARK    5  A    between atoms: C8_13  and  O1_14
ROOT
HETATM    1  C1  UNL     1     -13.582 -21.480  26.696  1.00  0.00     0.222 C
HETATM    2  N1  UNL     1     -12.833 -22.252  27.152  1.00  0.00    -0.460 NA
HETATM    3  C2  UNL     1     -11.944 -23.202  27.704  1.00  0.00     0.096 C
HETATM    4  C5  UNL     1     -11.015 -22.577  28.716  1.00  0.00     0.057 C
HETATM    5  C6  UNL     1      -9.651 -22.334  28.107  1.00  0.00    -0.006 C
HETATM    6  C9  UNL     1      -9.802 -21.370  26.990  1.00  0.00     0.012 C
HETATM    7  C10 UNL     1     -10.110 -21.898  25.662  1.00  0.00     0.006 C
HETATM    8  C11 UNL     1     -10.701 -23.212  25.502  1.00  0.00    -0.006 C
HETATM    9  C12 UNL     1      -9.627 -24.311  25.430  1.00  0.00     0.010 C
HETATM   10  C13 UNL     1      -9.945 -24.531  26.920  1.00  0.00    -0.006 C
HETATM   11  C14 UNL     1      -9.023 -23.657  27.682  1.00  0.00     0.016 C
HETATM   12  C15 UNL     1     -11.291 -23.933  26.616  1.00  0.00     0.035 C
ENDROOT
BRANCH   3  13
HETATM   13  C3  UNL     1     -12.831 -24.188  28.481  1.00  0.00     0.042 C
HETATM   14  C4  UNL     1     -13.586 -25.098  27.546  1.00  0.00     0.009 C
ENDBRANCH   3  13
BRANCH   5  15
HETATM   15  C7  UNL     1      -8.751 -21.778  29.173  1.00  0.00     0.215 C
BRANCH  15  16
HETATM   16  N2  UNL     1      -7.422 -22.326  29.153  1.00  0.00    -0.072 N
ATOM     17  H23 UNL     1      -7.379 -23.140  28.541  1.00  0.00     0.274 HD
ATOM     18  H22 UNL     1      -6.784 -21.704  28.656  1.00  0.00     0.274 HD
ATOM     19  H21 UNL     1      -7.056 -22.551  30.078  1.00  0.00     0.274 HD
ENDBRANCH  15  16
BRANCH  15  20
HETATM   20  C8  UNL     1      -8.651 -20.284  29.179  1.00  0.00     0.197 C
BRANCH  20  21
HETATM   21  O1  UNL     1      -7.386 -19.816  28.825  1.00  0.00    -0.399 OA
ATOM     22  H1  UNL     1      -7.392 -19.274  28.046  1.00  0.00     0.209 HD
ENDBRANCH  20  21
ENDBRANCH  15  20
ENDBRANCH   5  15
TORSDOF 5
ENDMDL