MODEL 5
REMARK VINA RESULT: -6.712697398      2.820      6.200
REMARK  3 active torsions:
REMARK  status: ('A' for Active; 'I' for Inactive)
REMARK    1  A    between atoms: C4_5  and  C5_6
REMARK    2  A    between atoms: C5_6  and  N1_7
REMARK    3  A    between atoms: N1_7  and  C6_10
ROOT
HETATM    1  N1  UNL     1      -8.731 -26.014  29.091  1.00  0.00    -0.070 N
ATOM      2  H11 UNL     1      -8.288 -25.761  28.208  1.00  0.00     0.277 HD
ATOM      3  H12 UNL     1      -9.450 -26.650  28.747  1.00  0.00     0.277 HD
ENDROOT
BRANCH   1   4
HETATM    4  C5  UNL     1      -9.325 -24.866  29.698  1.00  0.00     0.239 C
BRANCH   4   5
HETATM    5  C4  UNL     1      -9.159 -23.701  28.743  1.00  0.00     0.029 C
HETATM    6  C3  UNL     1     -10.219 -22.692  29.038  1.00  0.00     0.017 C
HETATM    7  C2  UNL     1      -9.846 -21.320  28.491  1.00  0.00     0.103 C
HETATM    8  C1  UNL     1      -8.609 -20.890  29.183  1.00  0.00     0.217 C
HETATM    9  O1  UNL     1      -8.384 -19.685  29.443  1.00  0.00    -0.274 OA
HETATM   10  N2  UNL     1      -7.679 -21.902  29.545  1.00  0.00    -0.361 N
HETATM   11  C14 UNL     1      -7.754 -23.160  28.832  1.00  0.00     0.128 C
ATOM     12  H2  UNL     1      -6.987 -21.748  30.277  1.00  0.00     0.162 HD
ENDBRANCH   4   5
ENDBRANCH   1   4
BRANCH   1  13
HETATM   13  C6  UNL     1      -7.790 -26.724  29.953  1.00  0.00     0.185 C
HETATM   14  C7  UNL     1      -7.603 -25.963  31.214  1.00  0.00     0.033 C
HETATM   15  C8  UNL     1      -6.270 -26.024  31.843  1.00  0.00     0.002 C
HETATM   16  C9  UNL     1      -5.370 -27.136  31.427  1.00  0.00     0.000 C
HETATM   17  C10 UNL     1      -5.828 -28.509  31.720  1.00  0.00     0.000 C
HETATM   18  C11 UNL     1      -7.154 -28.655  32.358  1.00  0.00     0.000 C
HETATM   19  C12 UNL     1      -8.329 -28.673  31.460  1.00  0.00     0.002 C
HETATM   20  C13 UNL     1      -8.120 -28.156  30.082  1.00  0.00     0.033 C
ENDBRANCH   1  13
TORSDOF 3
ENDMDL