MODEL 4
REMARK VINA RESULT: -5.837277757      3.013      4.087
REMARK  5 active torsions:
REMARK  status: ('A' for Active; 'I' for Inactive)
REMARK    1  A    between atoms: C3_4  and  C4_5
REMARK    2  A    between atoms: C7_8  and  N2_9
REMARK    3  A    between atoms: N2_9  and  C8_11
REMARK    4  A    between atoms: C8_11  and  N3_13
REMARK    5  A    between atoms: N3_13  and  C9_15
ROOT
HETATM    1  N1  UNL     1      -9.950 -19.941  28.505  1.00  0.00    -0.192 NA
HETATM    2  C1  UNL     1      -9.125 -20.706  28.867  1.00  0.00     0.087 C
HETATM    3  C2  UNL     1      -8.120 -21.577  29.313  1.00  0.00     0.090 C
HETATM    4  C3  UNL     1      -8.118 -22.855  29.340  1.00  0.00    -0.009 C
ENDROOT
BRANCH   4   5
HETATM    5  C4  UNL     1      -9.178 -23.750  28.903  1.00  0.00     0.032 C
HETATM    6  C5  UNL     1      -9.280 -23.853  27.375  1.00  0.00     0.012 C
HETATM    7  C6  UNL     1      -9.885 -25.258  27.652  1.00  0.00     0.026 C
HETATM    8  C7  UNL     1      -8.943 -25.234  28.873  1.00  0.00     0.091 C
BRANCH   8   9
HETATM    9  N2  UNL     1      -9.401 -26.053  29.932  1.00  0.00    -0.362 N
ATOM     10  H2  UNL     1     -10.299 -25.781  30.331  1.00  0.00     0.162 HD
BRANCH   9  11
HETATM   11  C8  UNL     1      -8.805 -27.186  30.520  1.00  0.00     0.168 C
HETATM   12  S1  UNL     1      -8.768 -28.586  29.702  1.00  0.00    -0.041 SA
BRANCH  11  13
HETATM   13  N3  UNL     1      -8.260 -27.120  31.846  1.00  0.00    -0.363 N
ATOM     14  H3  UNL     1      -8.589 -27.767  32.561  1.00  0.00     0.162 HD
BRANCH  13  15
HETATM   15  C9  UNL     1      -7.259 -26.152  32.169  1.00  0.00     0.083 C
HETATM   16  C10 UNL     1      -6.433 -26.576  33.376  1.00  0.00     0.025 C
HETATM   17  C11 UNL     1      -5.612 -27.738  32.840  1.00  0.00     0.002 C
HETATM   18  C12 UNL     1      -5.348 -27.371  31.407  1.00  0.00     0.002 C
HETATM   19  C13 UNL     1      -6.130 -26.101  31.127  1.00  0.00     0.025 C
ENDBRANCH  13  15
ENDBRANCH  11  13
ENDBRANCH   9  11
ENDBRANCH   8   9
ENDBRANCH   4   5
TORSDOF 5
ENDMDL