MODEL 4
REMARK VINA RESULT: -5.748768284      0.722      1.971
REMARK  4 active torsions:
REMARK  status: ('A' for Active; 'I' for Inactive)
REMARK    1  A    between atoms: C8_8  and  N1_9
REMARK    2  A    between atoms: N1_9  and  C9_11
REMARK    3  A    between atoms: C9_11  and  C10_13
REMARK    4  A    between atoms: C10_13  and  C11_14
ROOT
HETATM    1  N1  UNL     1      -7.292 -25.483  29.357  1.00  0.00    -0.379 N
ATOM      2  H1  UNL     1      -6.395 -25.362  28.887  1.00  0.00     0.160 HD
ENDROOT
BRANCH   1   3
HETATM    3  C8  UNL     1      -7.248 -26.322  30.522  1.00  0.00     0.085 C
HETATM    4  C2  UNL     1      -7.052 -27.785  30.212  1.00  0.00     0.004 C
HETATM    5  C1  UNL     1      -8.102 -28.684  30.827  1.00  0.00     0.012 C
HETATM    6  C3  UNL     1      -5.677 -28.278  30.547  1.00  0.00     0.006 C
HETATM    7  C4  UNL     1      -5.204 -28.212  31.921  1.00  0.00     0.000 C
HETATM    8  C5  UNL     1      -6.085 -27.762  33.009  1.00  0.00     0.000 C
HETATM    9  C6  UNL     1      -6.514 -26.342  32.879  1.00  0.00     0.002 C
HETATM   10  C7  UNL     1      -6.179 -25.840  31.505  1.00  0.00     0.025 C
ENDBRANCH   1   3
BRANCH   1  11
HETATM   11  C9  UNL     1      -8.357 -24.805  28.758  1.00  0.00     0.075 C
HETATM   12  S1  UNL     1      -9.746 -25.750  28.583  1.00  0.00    -0.066 SA
BRANCH  11  13
HETATM   13  C10 UNL     1      -8.431 -23.431  28.289  1.00  0.00     0.102 C
BRANCH  13  14
HETATM   14  C11 UNL     1      -8.617 -22.354  29.289  1.00  0.00     0.193 C
HETATM   15  C12 UNL     1      -9.832 -21.476  28.964  1.00  0.00     0.060 C
HETATM   16  C13 UNL     1      -8.834 -20.448  28.544  1.00  0.00     0.235 C
HETATM   17  N2  UNL     1      -7.796 -21.196  29.273  1.00  0.00    -0.070 N
ATOM     18  H22 UNL     1      -7.428 -20.826  30.149  1.00  0.00     0.277 HD
ATOM     19  H21 UNL     1      -6.852 -21.251  28.892  1.00  0.00     0.277 HD
ENDBRANCH  13  14
ENDBRANCH  11  13
ENDBRANCH   1  11
TORSDOF 4
ENDMDL