MODEL 4
REMARK VINA RESULT: -5.454700104      3.069      4.879
REMARK  2 active torsions:
REMARK  status: ('A' for Active; 'I' for Inactive)
REMARK    1  A    between atoms: C2_2  and  O1_4
REMARK    2  A    between atoms: O1_4  and  C4_5
ROOT
HETATM    1  C4  UNL     1      10.663 -92.282 151.366  1.00  0.00     0.334 C
HETATM    2  N1  UNL     1       9.510 -91.733 151.964  1.00  0.00    -0.036 N
ATOM      3  H11 UNL     1       9.084 -92.394 152.613  1.00  0.00     0.281 HD
ATOM      4  H12 UNL     1       8.750 -91.652 151.288  1.00  0.00     0.281 HD
HETATM    5  C5  UNL     1       9.804 -90.289 152.698  1.00  0.00     0.139 C
HETATM    6  C6  UNL     1       8.451 -89.674 152.776  1.00  0.00     0.050 C
HETATM    7  C7  UNL     1      10.367 -90.737 153.983  1.00  0.00     0.050 C
HETATM    8  C8  UNL     1      10.582 -89.961 151.644  1.00  0.00     0.008 C
HETATM    9  C9  UNL     1      10.990 -90.242 150.909  1.00  0.00    -0.015 C
HETATM   10  C10 UNL     1      11.286 -91.299 150.122  1.00  0.00     0.022 C
HETATM   11  C11 UNL     1      10.388 -91.604 148.965  1.00  0.00     0.023 C
HETATM   12  C12 UNL     1      12.687 -91.751 149.936  1.00  0.00     0.023 C
ENDROOT
BRANCH   1  13
HETATM   13  O1  UNL     1      10.477 -93.484 150.771  1.00  0.00    -0.354 OA
BRANCH  13  14
HETATM   14  C2  UNL     1      10.758 -94.608 151.496  1.00  0.00     0.116 C
HETATM   15  C1  UNL     1       9.750 -94.997 152.523  1.00  0.00     0.039 C
HETATM   16  C3  UNL     1      12.061 -94.272 152.258  1.00  0.00     0.039 C
ENDBRANCH  13  14
ENDBRANCH   1  13
TORSDOF 2
ENDMDL