MODEL 4
REMARK VINA RESULT: -5.219396173      2.129      5.795
REMARK  2 active torsions:
REMARK  status: ('A' for Active; 'I' for Inactive)
REMARK    1  A    between atoms: C4_4  and  C5_5
REMARK    2  A    between atoms: C5_5  and  N1_6
ROOT
HETATM    1  N1  UNL     1       9.514 -90.934 154.037  1.00  0.00    -0.371 N
ATOM      2  H1  UNL     1       9.592 -91.744 154.652  1.00  0.00     0.161 HD
HETATM    3  C6  UNL     1       8.852 -89.965 154.485  1.00  0.00     0.136 C
HETATM    4  N2  UNL     1       8.203 -89.850 155.727  1.00  0.00    -0.370 N
ATOM      5  H2  UNL     1       7.873 -90.646 156.274  1.00  0.00     0.161 HD
HETATM    6  C7  UNL     1       8.058 -88.479 156.136  1.00  0.00     0.132 C
HETATM    7  C8  UNL     1       7.482 -87.698 154.960  1.00  0.00     0.102 C
HETATM    8  S1  UNL     1       8.550 -88.427 153.642  1.00  0.00    -0.093 SA
ENDROOT
BRANCH   1   9
HETATM    9  C5  UNL     1      10.170 -91.041 152.778  1.00  0.00     0.126 C
BRANCH   9  10
HETATM   10  C4  UNL     1       9.704 -92.313 152.102  1.00  0.00     0.003 C
HETATM   11  C3  UNL     1       9.300 -93.333 153.148  1.00  0.00     0.006 C
HETATM   12  C2  UNL     1       9.284 -94.704 152.521  1.00  0.00     0.000 C
HETATM   13  C1  UNL     1      10.601 -95.126 151.963  1.00  0.00     0.000 C
HETATM   14  C10 UNL     1      11.532 -93.925 152.005  1.00  0.00     0.000 C
HETATM   15  C9  UNL     1      10.820 -92.816 151.234  1.00  0.00     0.006 C
ENDBRANCH   9  10
ENDBRANCH   1   9
TORSDOF 2
ENDMDL