MODEL 3
REMARK VINA RESULT: -6.153336781      1.210      2.593
REMARK  3 active torsions:
REMARK  status: ('A' for Active; 'I' for Inactive)
REMARK    1  A    between atoms: C8_8  and  C9_9
REMARK    2  A    between atoms: C9_9  and  C10_10
REMARK    3  A    between atoms: C10_10  and  N1_11
ROOT
HETATM    1  C1  UNL     1       9.205 -88.761 152.740  1.00  0.00     0.015 C
HETATM    2  C2  UNL     1      10.563 -89.431 152.921  1.00  0.00    -0.040 C
HETATM    3  C3  UNL     1      11.186 -88.952 154.167  1.00  0.00     0.009 C
HETATM    4  C4  UNL     1      10.239 -89.557 155.219  1.00  0.00     0.001 C
HETATM    5  C5  UNL     1       9.614 -90.769 154.582  1.00  0.00     0.006 C
HETATM    6  C6  UNL     1      10.376 -90.924 153.293  1.00  0.00    -0.001 C
HETATM    7  C7  UNL     1       9.718 -91.537 152.168  1.00  0.00     0.004 A
HETATM    8  C8  UNL     1       9.923 -92.596 151.235  1.00  0.00     0.001 A
HETATM    9  C11 UNL     1      10.921 -91.582 151.171  1.00  0.00    -0.035 A
HETATM   10  C12 UNL     1      12.277 -91.955 151.624  1.00  0.00     0.016 C
HETATM   11  C13 UNL     1      10.873 -90.225 150.562  1.00  0.00     0.011 C
HETATM   12  C14 UNL     1      11.318 -89.240 151.661  1.00  0.00     0.010 C
ENDROOT
BRANCH   8  13
HETATM   13  C9  UNL     1      10.256 -94.015 151.604  1.00  0.00     0.033 C
BRANCH  13  14
HETATM   14  C10 UNL     1       9.321 -94.552 152.694  1.00  0.00     0.230 C
BRANCH  14  15
HETATM   15  N1  UNL     1       8.679 -95.781 152.282  1.00  0.00    -0.079 N
ATOM     16  H13 UNL     1       7.679 -95.648 152.135  1.00  0.00     0.274 HD
ATOM     17  H12 UNL     1       8.945 -96.041 151.332  1.00  0.00     0.274 HD
ATOM     18  H11 UNL     1       8.861 -96.537 152.941  1.00  0.00     0.274 HD
ENDBRANCH  14  15
ENDBRANCH  13  14
ENDBRANCH   8  13
TORSDOF 3
ENDMDL