MODEL 4
REMARK VINA RESULT: -5.151650707      0.671      1.044
REMARK  2 active torsions:
REMARK  status: ('A' for Active; 'I' for Inactive)
REMARK    1  A    between atoms: N1_2  and  C3_4
REMARK    2  A    between atoms: C3_4  and  C4_5
ROOT
HETATM    1  C4  UNL     1       8.868 -90.220 153.137  1.00  0.00     0.018 C
HETATM    2  C5  UNL     1      10.195 -89.578 152.944  1.00  0.00     0.036 C
HETATM    3  C6  UNL     1      10.437 -88.302 153.630  1.00  0.00     0.019 C
HETATM    4  C7  UNL     1      11.603 -88.424 154.631  1.00  0.00     0.037 C
HETATM    5  C8  UNL     1      10.946 -87.250 152.618  1.00  0.00     0.037 C
HETATM    6  N2  UNL     1       9.408 -87.676 154.321  1.00  0.00    -0.405 N
ATOM      7  H2  UNL     1       9.578 -86.738 154.683  1.00  0.00     0.154 HD
HETATM    8  C9  UNL     1       8.164 -88.243 154.551  1.00  0.00     0.019 C
HETATM    9  C10 UNL     1       7.933 -88.188 156.076  1.00  0.00     0.037 C
HETATM   10  C11 UNL     1       7.118 -87.272 153.972  1.00  0.00     0.037 C
HETATM   11  C12 UNL     1       7.899 -89.609 154.049  1.00  0.00     0.036 C
ENDROOT
BRANCH   1  12
HETATM   12  C3  UNL     1       9.091 -91.669 153.529  1.00  0.00     0.276 C
BRANCH  12  13
HETATM   13  N1  UNL     1       9.704 -92.456 152.466  1.00  0.00     0.080 N
HETATM   14  C1  UNL     1       9.306 -93.871 152.673  1.00  0.00     0.309 C
HETATM   15  C2  UNL     1       8.965 -92.081 151.228  1.00  0.00     0.309 C
ENDBRANCH  12  13
ENDBRANCH   1  12
TORSDOF 2
ENDMDL