MODEL 4
REMARK VINA RESULT: -4.910508123      1.634      2.081
REMARK  2 active torsions:
REMARK  status: ('A' for Active; 'I' for Inactive)
REMARK    1  A    between atoms: C1_2  and  C2_3
REMARK    2  A    between atoms: C2_3  and  N1_4
ROOT
HETATM    1  C2  UNL     1      10.698 -91.785 152.709  1.00  0.00     0.084 C
ENDROOT
BRANCH   1   2
HETATM    2  C1  UNL     1      10.141 -90.410 152.810  1.00  0.00     0.050 C
HETATM    3  S1  UNL     1      10.821 -89.202 151.685  1.00  0.00    -0.081 SA
HETATM    4  C8  UNL     1       8.633 -90.343 152.770  1.00  0.00     0.027 C
HETATM    5  C9  UNL     1       8.367 -88.945 153.335  1.00  0.00     0.002 C
HETATM    6  C10 UNL     1       9.636 -88.510 154.035  1.00  0.00     0.002 C
HETATM    7  C11 UNL     1      10.368 -89.831 154.227  1.00  0.00     0.027 C
ENDBRANCH   1   2
BRANCH   1   8
HETATM    8  N1  UNL     1       9.986 -92.742 151.972  1.00  0.00    -0.372 N
HETATM    9  C3  UNL     1      10.301 -92.986 150.630  1.00  0.00     0.063 C
HETATM   10  C4  UNL     1      10.512 -94.444 150.275  1.00  0.00     0.044 C
HETATM   11  C5  UNL     1      10.969 -95.134 151.561  1.00  0.00     0.007 C
HETATM   12  C6  UNL     1       9.712 -95.137 152.444  1.00  0.00     0.021 C
HETATM   13  C7  UNL     1       9.236 -93.721 152.672  1.00  0.00     0.127 C
ENDBRANCH   1   8
TORSDOF 2
ENDMDL