MODEL 2
REMARK VINA RESULT: -5.452578697      1.529      2.132
REMARK  2 active torsions:
REMARK  status: ('A' for Active; 'I' for Inactive)
REMARK    1  A    between atoms: C5_5  and  C6_6
REMARK    2  A    between atoms: C6_6  and  N1_7
ROOT
HETATM    1  N1  UNL     1       9.375 -92.965 151.438  1.00  0.00     0.092 N
HETATM    2  C7  UNL     1      10.430 -93.518 150.619  1.00  0.00     0.300 C
HETATM    3  C8  UNL     1      10.418 -95.012 150.553  1.00  0.00     0.262 C
HETATM    4  N2  UNL     1      10.411 -95.609 151.882  1.00  0.00    -0.072 N
ATOM      5  H21 UNL     1      11.255 -95.413 152.419  1.00  0.00     0.277 HD
ATOM      6  H22 UNL     1      10.502 -96.625 151.872  1.00  0.00     0.277 HD
HETATM    7  C9  UNL     1       9.193 -95.144 152.530  1.00  0.00     0.262 C
HETATM    8  C10 UNL     1       9.325 -93.644 152.715  1.00  0.00     0.300 C
ENDROOT
BRANCH   1   9
HETATM    9  C6  UNL     1       9.648 -91.575 151.621  1.00  0.00     0.288 C
BRANCH   9  10
HETATM   10  C5  UNL     1      10.727 -91.346 152.697  1.00  0.00     0.083 C
HETATM   11  C4  UNL     1      10.406 -90.531 153.792  1.00  0.00    -0.176 C
HETATM   12  C3  UNL     1      10.151 -89.657 154.865  1.00  0.00     0.084 C
HETATM   13  C2  UNL     1      11.057 -88.402 154.632  1.00  0.00     0.038 C
HETATM   14  C1  UNL     1      12.178 -88.691 153.650  1.00  0.00    -0.030 C
HETATM   15  C12 UNL     1      11.957 -89.141 152.306  1.00  0.00    -0.029 C
HETATM   16  C11 UNL     1      11.887 -90.620 151.929  1.00  0.00     0.045 C
ENDBRANCH   9  10
ENDBRANCH   1   9
TORSDOF 2
ENDMDL