MODEL 2
REMARK VINA RESULT: -6.086581564      1.503      1.982
REMARK  3 active torsions:
REMARK  status: ('A' for Active; 'I' for Inactive)
REMARK    1  A    between atoms: C2_3  and  C3_4
REMARK    2  A    between atoms: C3_4  and  O1_5
REMARK    3  A    between atoms: C3_4  and  C4_7
ROOT
HETATM    1  N1  UNL     1       9.025 -95.024 152.769  1.00  0.00    -0.197 NA
HETATM    2  C1  UNL     1       9.321 -93.904 152.601  1.00  0.00     0.061 C
HETATM    3  C2  UNL     1       9.705 -92.512 152.372  1.00  0.00     0.155 C
ENDROOT
BRANCH   3   4
HETATM    4  C3  UNL     1       8.571 -91.567 152.744  1.00  0.00     0.136 C
BRANCH   4   5
HETATM    5  O1  UNL     1       7.552 -91.772 151.797  1.00  0.00    -0.394 OA
ATOM      6  H1  UNL     1       6.959 -91.034 151.873  1.00  0.00     0.210 HD
ENDBRANCH   4   5
BRANCH   4   7
HETATM    7  C4  UNL     1       8.976 -90.129 152.653  1.00  0.00     0.023 C
HETATM    8  C5  UNL     1      10.350 -89.843 153.166  1.00  0.00    -0.007 C
HETATM    9  C6  UNL     1      10.473 -90.028 154.660  1.00  0.00     0.010 C
HETATM   10  C10 UNL     1      10.633 -88.382 152.867  1.00  0.00     0.010 C
HETATM   11  C7  UNL     1       9.502 -89.139 155.380  1.00  0.00    -0.013 C
HETATM   12  C8  UNL     1       9.698 -87.689 155.077  1.00  0.00     0.009 C
HETATM   13  C13 UNL     1       8.103 -89.521 154.911  1.00  0.00     0.010 C
HETATM   14  C9  UNL     1       9.619 -87.504 153.576  1.00  0.00    -0.013 C
HETATM   15  C11 UNL     1       8.226 -87.850 153.108  1.00  0.00     0.010 C
HETATM   16  C12 UNL     1       7.992 -89.308 153.437  1.00  0.00    -0.007 C
ENDBRANCH   4   7
ENDBRANCH   3   4
TORSDOF 3
ENDMDL