MODEL 4
REMARK VINA RESULT: -5.283637573      1.960      3.345
REMARK  2 active torsions:
REMARK  status: ('A' for Active; 'I' for Inactive)
REMARK    1  A    between atoms: N1_2  and  C3_4
REMARK    2  A    between atoms: C3_4  and  C4_5
ROOT
HETATM    1  C4  UNL     1       9.123 -90.092 153.090  1.00  0.00     0.033 C
HETATM    2  C5  UNL     1       7.861 -89.691 153.846  1.00  0.00     0.008 C
HETATM    3  C6  UNL     1       7.884 -89.334 155.247  1.00  0.00     0.001 C
HETATM    4  C7  UNL     1       7.984 -87.855 155.663  1.00  0.00     0.011 C
HETATM    5  C8  UNL     1       9.336 -87.232 155.182  1.00  0.00     0.081 C
HETATM    6  C9  UNL     1       9.829 -88.056 154.153  1.00  0.00    -0.173 C
HETATM    7  C10 UNL     1      10.231 -89.014 153.191  1.00  0.00     0.017 A
HETATM    8  C11 UNL     1      11.631 -89.501 153.252  1.00  0.00     0.022 A
HETATM    9  C12 UNL     1      11.993 -88.908 151.916  1.00  0.00     0.003 A
HETATM   10  C13 UNL     1      10.584 -88.396 151.829  1.00  0.00     0.022 A
ENDROOT
BRANCH   1  11
HETATM   11  C3  UNL     1       9.547 -91.473 153.377  1.00  0.00     0.277 C
BRANCH  11  12
HETATM   12  N1  UNL     1       8.936 -92.321 152.327  1.00  0.00     0.080 N
HETATM   13  C1  UNL     1       9.276 -93.730 152.616  1.00  0.00     0.309 C
HETATM   14  C2  UNL     1       9.565 -91.997 151.027  1.00  0.00     0.309 C
ENDBRANCH  11  12
ENDBRANCH   1  11
TORSDOF 2
ENDMDL