MODEL 2
REMARK VINA RESULT: -5.606792051      0.983      2.291
REMARK  2 active torsions:
REMARK  status: ('A' for Active; 'I' for Inactive)
REMARK    1  A    between atoms: C5_5  and  C6_6
REMARK    2  A    between atoms: C6_6  and  N1_7
ROOT
HETATM    1  C1  UNL     1       8.813 -87.999 153.456  1.00  0.00     0.000 C
HETATM    2  C2  UNL     1       7.821 -88.806 154.249  1.00  0.00     0.000 C
HETATM    3  C3  UNL     1       8.118 -90.301 154.183  1.00  0.00     0.001 C
HETATM    4  C4  UNL     1       8.169 -90.754 152.748  1.00  0.00     0.010 C
HETATM    5  C5  UNL     1       9.529 -90.814 152.156  1.00  0.00     0.024 C
HETATM    6  C11 UNL     1      10.200 -89.455 152.081  1.00  0.00     0.010 C
HETATM    7  C12 UNL     1      10.153 -88.681 153.355  1.00  0.00     0.001 C
ENDROOT
BRANCH   5   8
HETATM    8  C6  UNL     1      10.469 -91.817 152.694  1.00  0.00     0.063 C
BRANCH   8   9
HETATM    9  N1  UNL     1      10.467 -93.123 152.249  1.00  0.00    -0.389 N
HETATM   10  C7  UNL     1       9.357 -93.965 152.303  1.00  0.00     0.148 C
HETATM   11  C8  UNL     1       9.912 -95.361 152.665  1.00  0.00     0.187 C
HETATM   12  O1  UNL     1      10.654 -95.872 151.616  1.00  0.00    -0.388 OA
HETATM   13  C9  UNL     1      11.606 -94.996 151.129  1.00  0.00     0.187 C
HETATM   14  C10 UNL     1      11.723 -93.733 151.941  1.00  0.00     0.148 C
ENDBRANCH   8   9
ENDBRANCH   5   8
TORSDOF 2
ENDMDL