MODEL 3
REMARK VINA RESULT: -5.851754143      1.183      1.472
REMARK  2 active torsions:
REMARK  status: ('A' for Active; 'I' for Inactive)
REMARK    1  A    between atoms: N1_2  and  C2_4
REMARK    2  A    between atoms: C2_4  and  C3_5
ROOT
HETATM    1  C3  UNL     1       9.619 -93.083 152.781  1.00  0.00     0.140 C
HETATM    2  C4  UNL     1       9.385 -92.174 151.579  1.00  0.00     0.036 C
HETATM    3  C5  UNL     1       8.272 -91.289 152.112  1.00  0.00     0.040 C
HETATM    4  C6  UNL     1       8.729 -91.175 153.581  1.00  0.00     0.061 C
HETATM    5  C7  UNL     1       7.559 -90.613 154.323  1.00  0.00     0.038 C
HETATM    6  C8  UNL     1       7.515 -89.132 154.117  1.00  0.00     0.003 C
HETATM    7  C9  UNL     1       8.278 -88.416 155.195  1.00  0.00     0.000 C
HETATM    8  C10 UNL     1       9.385 -89.230 155.776  1.00  0.00     0.000 C
HETATM    9  C11 UNL     1      10.396 -89.712 154.820  1.00  0.00     0.003 C
HETATM   10  C12 UNL     1       9.954 -90.353 153.584  1.00  0.00     0.038 C
HETATM   11  O1  UNL     1       8.980 -92.498 153.852  1.00  0.00    -0.373 OA
ENDROOT
BRANCH   1  12
HETATM   12  C2  UNL     1       8.996 -94.421 152.433  1.00  0.00     0.145 C
BRANCH  12  13
HETATM   13  N1  UNL     1       9.919 -95.504 152.383  1.00  0.00    -0.423 N
HETATM   14  C1  UNL     1      10.842 -95.484 151.294  1.00  0.00     0.139 C
ATOM     15  H1  UNL     1       9.920 -96.248 153.081  1.00  0.00     0.152 HD
ENDBRANCH  12  13
ENDBRANCH   1  12
TORSDOF 2
ENDMDL