MODEL 4
REMARK VINA RESULT: -6.642396799      5.941      7.518
REMARK  4 active torsions:
REMARK  status: ('A' for Active; 'I' for Inactive)
REMARK    1  A    between atoms: C2_2  and  C3_4
REMARK       I    between atoms: C3_4  and  N1_6
REMARK    2  A    between atoms: N1_6  and  O2_7
REMARK       I    between atoms: N1_6  and  C4_9
REMARK    3  A    between atoms: C4_9  and  C5_11
REMARK    4  A    between atoms: C6_12  and  C7_13
ROOT
HETATM    1  C5  UNL     1      -9.195 -10.579  -2.711  1.00  0.00     0.102 A
HETATM    2  C6  UNL     1     -10.394  -9.758  -2.940  1.00  0.00     0.107 A
HETATM    3  C8  UNL     1      -9.877  -9.347  -4.311  1.00  0.00     0.043 A
HETATM    4  C9  UNL     1      -8.705 -10.203  -4.101  1.00  0.00     0.042 A
HETATM    5  C10 UNL     1      -8.526  -8.773  -4.445  1.00  0.00     0.104 A
HETATM    6 CL1  UNL     1      -7.851  -7.728  -3.186  1.00  0.00    -0.106 Cl
HETATM    7 BR2  UNL     1      -7.950  -8.392  -6.236  1.00  0.00    -0.067 Br
ENDROOT
BRANCH   1   8
HETATM    8  C4  UNL     1      -9.293 -12.012  -2.490  1.00  0.00     0.256 C
HETATM    9  N1  UNL     1      -8.203 -12.771  -1.931  1.00  0.00    -0.151 N
HETATM   10  C3  UNL     1      -8.300 -14.143  -1.720  1.00  0.00     0.290 C
HETATM   11  O1  UNL     1      -9.418 -14.684  -2.056  1.00  0.00    -0.264 OA
HETATM   12  O3  UNL     1     -10.331 -12.632  -2.781  1.00  0.00    -0.270 OA
BRANCH   9  13
HETATM   13  O2  UNL     1      -7.052 -12.129  -1.600  1.00  0.00    -0.277 OA
ATOM     14  H2  UNL     1      -6.400 -12.585  -1.081  1.00  0.00     0.245 HD
ENDBRANCH   9  13
BRANCH  10  15
HETATM   15  C2  UNL     1      -7.311 -15.028  -1.178  1.00  0.00     0.071 C
HETATM   16  C1  UNL     1      -6.817 -15.031   0.028  1.00  0.00     0.037 C
HETATM   17 BR1  UNL     1      -6.565 -16.428  -2.330  1.00  0.00    -0.046 Br
ENDBRANCH  10  15
ENDBRANCH   1   8
BRANCH   2  18
HETATM   18  C7  UNL     1     -11.716 -10.361  -3.079  1.00  0.00     0.178 C
HETATM   19  O4  UNL     1     -12.152 -10.606  -4.239  1.00  0.00    -0.648 OA
HETATM   20  O5  UNL     1     -12.476 -10.657  -1.969  1.00  0.00    -0.648 OA
ENDBRANCH   2  18
TORSDOF 4
ENDMDL