MODEL 3
REMARK VINA RESULT: -5.999876013      2.322      3.600
REMARK  6 active torsions:
REMARK  status: ('A' for Active; 'I' for Inactive)
REMARK    1  A    between atoms: C2_2  and  C3_4
REMARK    2  A    between atoms: C3_4  and  C4_6
REMARK    3  A    between atoms: C3_4  and  N2_14
REMARK    4  A    between atoms: C4_6  and  C5_7
REMARK    5  A    between atoms: C5_7  and  N1_8
REMARK    6  A    between atoms: C5_7  and  O1_12
ROOT
HETATM    1  C3  UNL     1      -8.390  -9.170  -4.159  1.00  0.00     0.131 C
HETATM    2 CL2  UNL     1      -6.940 -10.235  -4.541  1.00  0.00    -0.094 Cl
ENDROOT
BRANCH   1   3
HETATM    3  C2  UNL     1      -7.819  -8.205  -3.153  1.00  0.00     0.122 C
HETATM    4  C1  UNL     1      -7.856  -6.783  -3.572  1.00  0.00     0.030 C
HETATM    5 CL1  UNL     1      -6.124  -8.649  -2.832  1.00  0.00    -0.121 Cl
ENDBRANCH   1   3
BRANCH   1   6
HETATM    6  C4  UNL     1      -8.760  -8.636  -5.466  1.00  0.00     0.110 C
BRANCH   6   7
HETATM    7  C5  UNL     1      -7.780  -8.505  -6.553  1.00  0.00     0.319 C
BRANCH   7   8
HETATM    8  N1  UNL     1      -8.556  -8.082  -7.751  1.00  0.00    -0.053 N
ATOM      9  H13 UNL     1      -9.074  -8.842  -8.192  1.00  0.00     0.277 HD
ATOM     10  H12 UNL     1      -9.362  -7.497  -7.530  1.00  0.00     0.277 HD
ATOM     11  H11 UNL     1      -7.884  -7.632  -8.373  1.00  0.00     0.277 HD
ENDBRANCH   7   8
BRANCH   7  12
HETATM   12  O1  UNL     1      -6.858  -7.462  -6.415  1.00  0.00    -0.370 OA
ATOM     13  H1  UNL     1      -6.614  -7.020  -7.219  1.00  0.00     0.212 HD
ENDBRANCH   7  12
ENDBRANCH   6   7
ENDBRANCH   1   6
BRANCH   1  14
HETATM   14  N2  UNL     1      -9.315 -10.033  -3.478  1.00  0.00    -0.345 N
HETATM   15  C6  UNL     1     -10.764  -9.956  -3.391  1.00  0.00     0.147 C
HETATM   16  C7  UNL     1     -11.114 -11.425  -3.450  1.00  0.00     0.119 C
HETATM   17 BR1  UNL     1     -12.846 -11.811  -2.729  1.00  0.00    -0.084 Br
HETATM   18  C8  UNL     1     -10.011 -12.036  -2.689  1.00  0.00     0.043 C
HETATM   19 BR2  UNL     1     -10.158 -13.743  -1.840  1.00  0.00    -0.051 Br
HETATM   20  C9  UNL     1      -8.985 -11.221  -2.718  1.00  0.00     0.118 C
HETATM   21 CL3  UNL     1      -7.442 -11.515  -1.956  1.00  0.00    -0.063 Cl
ENDBRANCH   1  14
TORSDOF 6
ENDMDL