MODEL 4
REMARK VINA RESULT: -7.472314613      5.738      8.511
REMARK  4 active torsions:
REMARK  status: ('A' for Active; 'I' for Inactive)
REMARK    1  A    between atoms: O1_2  and  C2_3
REMARK    2  A    between atoms: C2_3  and  C3_4
REMARK    3  A    between atoms: C3_4  and  N1_5
REMARK       I    between atoms: N1_5  and  C4_7
REMARK    4  A    between atoms: C4_7  and  C5_9
ROOT
HETATM    1  C5  UNL     1     -13.545 -14.239  -1.917  1.00  0.00     0.100 A
HETATM    2  C6  UNL     1     -13.295 -12.892  -2.171  1.00  0.00     0.038 A
HETATM    3  C7  UNL     1     -11.978 -12.507  -2.262  1.00  0.00     0.014 A
HETATM    4  C8  UNL     1     -11.626 -11.173  -2.490  1.00  0.00     0.065 A
HETATM    5 BR1  UNL     1     -13.028  -9.887  -2.674  1.00  0.00    -0.047 Br
HETATM    6  C9  UNL     1     -10.306 -10.774  -2.564  1.00  0.00     0.174 A
HETATM    7  F1  UNL     1     -10.020  -9.466  -2.780  1.00  0.00    -0.201 F
HETATM    8  C10 UNL     1      -9.281 -11.702  -2.411  1.00  0.00     0.175 A
HETATM    9  F2  UNL     1      -7.979 -11.329  -2.487  1.00  0.00    -0.201 F
HETATM   10  C11 UNL     1      -9.608 -13.029  -2.184  1.00  0.00     0.080 A
HETATM   11 BR2  UNL     1      -8.166 -14.286  -1.980  1.00  0.00    -0.045 Br
HETATM   12  C12 UNL     1     -10.930 -13.401  -2.114  1.00  0.00     0.067 A
HETATM   13  N2  UNL     1     -11.184 -14.698  -1.871  1.00  0.00    -0.321 N
ATOM     14  H2  UNL     1     -10.428 -15.373  -1.760  1.00  0.00     0.169 HD
HETATM   15  C13 UNL     1     -12.465 -15.073  -1.781  1.00  0.00     0.261 A
HETATM   16  O3  UNL     1     -12.670 -16.314  -1.551  1.00  0.00    -0.267 OA
ENDROOT
BRANCH   1  17
HETATM   17  C4  UNL     1     -14.893 -14.744  -1.725  1.00  0.00     0.257 C
HETATM   18  N1  UNL     1     -15.526 -15.438  -2.765  1.00  0.00    -0.355 N
ATOM     19  H1  UNL     1     -15.042 -15.588  -3.650  1.00  0.00     0.162 HD
HETATM   20  O2  UNL     1     -15.474 -14.551  -0.610  1.00  0.00    -0.267 OA
BRANCH  18  21
HETATM   21  C3  UNL     1     -16.872 -15.938  -2.575  1.00  0.00     0.149 C
BRANCH  21  22
HETATM   22  C2  UNL     1     -17.006 -17.380  -3.027  1.00  0.00     0.186 C
BRANCH  22  23
HETATM   23  O1  UNL     1     -17.894 -17.455  -4.067  1.00  0.00    -0.394 OA
HETATM   24  C1  UNL     1     -18.892 -18.367  -3.891  1.00  0.00     0.201 C
ENDBRANCH  22  23
ENDBRANCH  21  22
ENDBRANCH  18  21
ENDBRANCH   1  17
TORSDOF 4
ENDMDL