MODEL 4
REMARK VINA RESULT: -5.701611583      2.222      3.045
REMARK  5 active torsions:
REMARK  status: ('A' for Active; 'I' for Inactive)
REMARK    1  A    between atoms: N1_1  and  C1_5
REMARK    2  A    between atoms: C1_5  and  C2_6
REMARK    3  A    between atoms: C1_5  and  C4_10
REMARK    4  A    between atoms: C2_6  and  C3_7
REMARK       I    between atoms: C4_10  and  N2_12
REMARK    5  A    between atoms: N2_12  and  N3_14
ROOT
HETATM    1  C4  UNL     1      -6.699  -4.872  -7.482  1.00  0.00     0.266 C
HETATM    2  O1  UNL     1      -6.244  -4.615  -6.341  1.00  0.00    -0.269 OA
HETATM    3  N2  UNL     1      -6.006  -4.451  -8.677  1.00  0.00    -0.268 N
ATOM      4  H2  UNL     1      -6.370  -4.658  -9.607  1.00  0.00     0.190 HD
ENDROOT
BRANCH   1   5
HETATM    5  C1  UNL     1      -7.972  -5.626  -7.574  1.00  0.00     0.281 C
BRANCH   5   6
HETATM    6  N1  UNL     1      -7.988  -6.361  -8.804  1.00  0.00    -0.066 N
ATOM      7  H13 UNL     1      -8.304  -5.781  -9.580  1.00  0.00     0.275 HD
ATOM      8  H12 UNL     1      -7.042  -6.562  -9.129  1.00  0.00     0.275 HD
ATOM      9  H11 UNL     1      -8.542  -7.214  -8.727  1.00  0.00     0.275 HD
ENDBRANCH   5   6
BRANCH   5  10
HETATM   10  C2  UNL     1      -8.009  -6.553  -6.360  1.00  0.00     0.113 C
BRANCH  10  11
HETATM   11  C3  UNL     1      -8.217  -7.989  -6.779  1.00  0.00     0.355 C
HETATM   12  F1  UNL     1      -6.977  -8.596  -6.767  1.00  0.00    -0.214 F
HETATM   13  F2  UNL     1      -9.060  -8.590  -5.862  1.00  0.00    -0.214 F
ENDBRANCH  10  11
ENDBRANCH   5  10
ENDBRANCH   1   5
BRANCH   3  14
HETATM   14  N3  UNL     1      -4.818  -3.749  -8.497  1.00  0.00    -0.304 N
HETATM   15  C5  UNL     1      -3.936  -3.615  -9.420  1.00  0.00     0.035 C
HETATM   16  C6  UNL     1      -2.625  -2.917  -9.435  1.00  0.00     0.122 C
HETATM   17  C8  UNL     1      -3.689  -3.999 -10.832  1.00  0.00     0.122 C
HETATM   18 BR1  UNL     1      -2.889  -1.034  -9.762  1.00  0.00    -0.084 Br
HETATM   19  C7  UNL     1      -2.210  -3.675 -10.675  1.00  0.00     0.098 C
HETATM   20 BR2  UNL     1      -1.123  -5.191 -10.191  1.00  0.00    -0.088 Br
HETATM   21 BR3  UNL     1      -4.565  -2.846 -12.119  1.00  0.00    -0.084 Br
ATOM     22  H3  UNL     1      -4.640  -3.320  -7.589  1.00  0.00     0.186 HD
ENDBRANCH   3  14
TORSDOF 5
ENDMDL