MODEL 2
REMARK VINA RESULT: -7.312113567      1.167      1.703
REMARK  5 active torsions:
REMARK  status: ('A' for Active; 'I' for Inactive)
REMARK    1  A    between atoms: C2_2  and  N1_4
REMARK    2  A    between atoms: C8_9  and  N2_10
REMARK    3  A    between atoms: N2_10  and  S1_12
REMARK    4  A    between atoms: S1_12  and  C9_15
REMARK    5  A    between atoms: C11_18  and  O3_19
ROOT
HETATM    1  S1  UNL     1      -9.103 -11.740  -2.396  1.00  0.00     0.265 S
HETATM    2  O1  UNL     1      -8.442 -11.787  -1.014  1.00  0.00    -0.200 OA
HETATM    3  O2  UNL     1      -8.337 -12.666  -3.329  1.00  0.00    -0.200 OA
ENDROOT
BRANCH   1   4
HETATM    4  N2  UNL     1      -8.990 -10.139  -2.922  1.00  0.00    -0.301 N
ATOM      5  H2  UNL     1      -9.422  -9.351  -2.441  1.00  0.00     0.173 HD
BRANCH   4   6
HETATM    6  C8  UNL     1      -8.230 -10.018  -4.100  1.00  0.00     0.194 C
HETATM    7  C5  UNL     1      -6.814  -9.543  -3.915  1.00  0.00    -0.002 C
HETATM    8  C4  UNL     1      -6.986  -8.053  -3.762  1.00  0.00     0.137 C
HETATM    9  C6  UNL     1      -6.101  -9.765  -5.247  1.00  0.00     0.019 C
HETATM   10  C7  UNL     1      -6.067 -10.151  -2.791  1.00  0.00     0.019 C
HETATM   11  N1  UNL     1      -7.946  -7.745  -4.800  1.00  0.00    -0.346 N
HETATM   12  C15 UNL     1      -8.747  -8.896  -4.986  1.00  0.00     0.244 C
HETATM   13  O4  UNL     1      -9.734  -9.032  -5.741  1.00  0.00    -0.271 OA
BRANCH  11  14
HETATM   14  C2  UNL     1      -8.092  -6.492  -5.542  1.00  0.00     0.079 C
HETATM   15  C1  UNL     1      -7.357  -5.436  -4.741  1.00  0.00     0.032 C
HETATM   16  C3  UNL     1      -7.510  -6.599  -6.913  1.00  0.00     0.032 C
ENDBRANCH  11  14
ENDBRANCH   4   6
ENDBRANCH   1   4
BRANCH   1  17
HETATM   17  C9  UNL     1     -10.677 -12.405  -2.212  1.00  0.00     0.162 A
HETATM   18  C10 UNL     1     -11.784 -11.617  -2.392  1.00  0.00     0.177 A
HETATM   19  F1  UNL     1     -11.719 -10.268  -2.659  1.00  0.00    -0.201 F
HETATM   20  C11 UNL     1     -13.084 -12.095  -2.285  1.00  0.00     0.131 A
HETATM   21  C12 UNL     1     -13.273 -13.426  -1.982  1.00  0.00     0.112 A
HETATM   22 CL1  UNL     1     -14.916 -14.028  -1.848  1.00  0.00    -0.078 Cl
HETATM   23  C13 UNL     1     -12.176 -14.231  -1.798  1.00  0.00     0.181 A
HETATM   24  F2  UNL     1     -12.423 -15.546  -1.499  1.00  0.00    -0.201 F
HETATM   25  C14 UNL     1     -10.900 -13.746  -1.907  1.00  0.00     0.183 A
HETATM   26  F3  UNL     1      -9.811 -14.520  -1.730  1.00  0.00    -0.201 F
BRANCH  20  27
HETATM   27  O3  UNL     1     -14.171 -11.243  -2.479  1.00  0.00    -0.356 OA
ATOM     28  H3  UNL     1     -14.388 -10.930  -3.350  1.00  0.00     0.218 HD
ENDBRANCH  20  27
ENDBRANCH   1  17
TORSDOF 5
ENDMDL