MODEL 2
REMARK VINA RESULT: -8.991929682      1.008      2.021
REMARK  6 active torsions:
REMARK  status: ('A' for Active; 'I' for Inactive)
REMARK    1  A    between atoms: C4_6  and  N2_7
REMARK    2  A    between atoms: N2_7  and  S1_9
REMARK    3  A    between atoms: S1_9  and  C5_12
REMARK    4  A    between atoms: C5_12  and  C6_13
REMARK    5  A    between atoms: C12_23  and  N3_24
REMARK       I    between atoms: N3_24  and  C13_26
REMARK    6  A    between atoms: C13_26  and  C14_28
ROOT
HETATM    1  C1  UNL     1     -13.519 -12.637  -2.253  1.00  0.00     0.069 C
HETATM    2  C2  UNL     1     -12.160 -12.010  -2.341  1.00  0.00     0.022 A
HETATM    3  C3  UNL     1     -12.092 -10.690  -2.701  1.00  0.00     0.114 A
HETATM    4  N1  UNL     1     -10.848 -10.173  -2.908  1.00  0.00    -0.347 N
ATOM      5  H1  UNL     1     -10.765  -9.193  -3.181  1.00  0.00     0.167 HD
HETATM    6  C4  UNL     1      -9.756 -10.879  -2.773  1.00  0.00     0.159 A
HETATM    7  C12 UNL     1      -9.808 -12.265  -2.378  1.00  0.00     0.153 A
HETATM    8  N4  UNL     1     -11.033 -12.754  -2.187  1.00  0.00    -0.342 N
ATOM      9  H4  UNL     1     -11.129 -13.732  -1.913  1.00  0.00     0.167 HD
ENDROOT
BRANCH   6  10
HETATM   10  N2  UNL     1      -8.645 -10.580  -3.240  1.00  0.00    -0.266 N
ATOM     11  H2  UNL     1      -7.961 -11.206  -2.815  1.00  0.00     0.180 HD
BRANCH  10  12
HETATM   12  S1  UNL     1      -7.839  -9.605  -4.246  1.00  0.00     0.236 S
HETATM   13  O1  UNL     1      -7.160  -8.490  -3.356  1.00  0.00    -0.205 OA
HETATM   14  O2  UNL     1      -6.723 -10.273  -4.988  1.00  0.00    -0.205 OA
BRANCH  12  15
HETATM   15  C5  UNL     1      -8.915  -8.678  -5.382  1.00  0.00     0.208 C
BRANCH  15  16
HETATM   16  C6  UNL     1      -8.104  -7.469  -5.768  1.00  0.00     0.041 A
HETATM   17  C7  UNL     1      -7.932  -6.410  -4.962  1.00  0.00     0.165 A
HETATM   18  F1  UNL     1      -8.291  -6.452  -3.646  1.00  0.00    -0.202 F
HETATM   19  C8  UNL     1      -7.316  -5.238  -5.478  1.00  0.00     0.158 A
HETATM   20  F2  UNL     1      -7.122  -4.201  -4.676  1.00  0.00    -0.203 F
HETATM   21  C9  UNL     1      -6.891  -5.221  -6.828  1.00  0.00     0.090 A
HETATM   22  C10 UNL     1      -7.100  -6.357  -7.596  1.00  0.00     0.158 A
HETATM   23  F3  UNL     1      -6.726  -6.351  -8.893  1.00  0.00    -0.203 F
HETATM   24  C11 UNL     1      -7.692  -7.479  -7.115  1.00  0.00     0.165 A
HETATM   25  F4  UNL     1      -7.938  -8.611  -7.879  1.00  0.00    -0.202 F
ENDBRANCH  15  16
ENDBRANCH  12  15
ENDBRANCH  10  12
ENDBRANCH   6  10
BRANCH   7  26
HETATM   26  N3  UNL     1      -8.699 -12.851  -2.289  1.00  0.00    -0.310 N
HETATM   27  C13 UNL     1      -8.260 -14.128  -2.068  1.00  0.00     0.226 C
HETATM   28  O3  UNL     1      -8.400 -14.997  -2.971  1.00  0.00    -0.273 OA
ATOM     29  H3  UNL     1      -7.921 -12.203  -2.413  1.00  0.00     0.170 HD
BRANCH  27  30
HETATM   30  C14 UNL     1      -7.590 -14.590  -0.797  1.00  0.00     0.070 C
HETATM   31  C15 UNL     1      -6.727 -15.785  -1.083  1.00  0.00     0.019 C
HETATM   32  C16 UNL     1      -6.689 -13.442  -0.371  1.00  0.00     0.019 C
ENDBRANCH  27  30
ENDBRANCH   7  26
TORSDOF 6
ENDMDL