MODEL 3
REMARK VINA RESULT: -9.558392094      3.737      9.036
REMARK  7 active torsions:
REMARK  status: ('A' for Active; 'I' for Inactive)
REMARK    1  A    between atoms: C5_7  and  C6_8
REMARK    2  A    between atoms: C6_8  and  C7_9
REMARK    3  A    between atoms: C7_9  and  N2_10
REMARK    4  A    between atoms: C7_9  and  C8_14
REMARK    5  A    between atoms: C8_14  and  C9_15
REMARK    6  A    between atoms: C10_16  and  S1_17
REMARK    7  A    between atoms: N3_28  and  O3_29
ROOT
HETATM    1  C7  UNL     1      -8.374  -8.568  -6.378  1.00  0.00     0.195 C
ENDROOT
BRANCH   1   2
HETATM    2  C6  UNL     1      -8.860  -7.724  -7.442  1.00  0.00     0.112 C
BRANCH   2   3
HETATM    3  C5  UNL     1      -7.866  -6.808  -8.067  1.00  0.00     0.112 A
HETATM    4  N1  UNL     1      -7.247  -6.846  -9.241  1.00  0.00    -0.342 N
HETATM    5  C4  UNL     1      -6.431  -5.784  -9.371  1.00  0.00     0.063 A
ATOM      6  H1  UNL     1      -7.372  -7.575  -9.943  1.00  0.00     0.167 HD
HETATM    7  C3  UNL     1      -5.594  -5.405 -10.411  1.00  0.00     0.039 A
HETATM    8  C15 UNL     1      -6.550  -5.047  -8.214  1.00  0.00     0.091 A
HETATM    9  C2  UNL     1      -4.872  -4.236 -10.234  1.00  0.00    -0.054 A
HETATM   10  C1  UNL     1      -3.969  -3.807 -11.333  1.00  0.00     0.049 C
HETATM   11  C17 UNL     1      -4.979  -3.486  -9.085  1.00  0.00    -0.054 A
HETATM   12  C16 UNL     1      -5.822  -3.883  -8.054  1.00  0.00     0.041 A
HETATM   13  C18 UNL     1      -4.170  -2.247  -8.981  1.00  0.00     0.049 C
HETATM   14  N3  UNL     1      -7.431  -5.698  -7.444  1.00  0.00    -0.210 N
BRANCH  14  15
HETATM   15  O3  UNL     1      -7.814  -5.253  -6.181  1.00  0.00    -0.281 OA
ATOM     16  H3  UNL     1      -7.515  -5.594  -5.346  1.00  0.00     0.245 HD
ENDBRANCH  14  15
ENDBRANCH   2   3
ENDBRANCH   1   2
BRANCH   1  17
HETATM   17  N2  UNL     1      -6.961  -8.927  -6.621  1.00  0.00    -0.074 N
ATOM     18  H23 UNL     1      -6.447  -8.171  -7.074  1.00  0.00     0.274 HD
ATOM     19  H22 UNL     1      -6.424  -8.975  -5.755  1.00  0.00     0.274 HD
ATOM     20  H21 UNL     1      -6.908  -9.796  -7.152  1.00  0.00     0.274 HD
ENDBRANCH   1  17
BRANCH   1  21
HETATM   21  C8  UNL     1      -8.639  -8.445  -4.951  1.00  0.00     0.076 C
BRANCH  21  22
HETATM   22  C9  UNL     1      -9.012  -9.614  -4.165  1.00  0.00     0.010 A
HETATM   23  C10 UNL     1      -8.206 -10.238  -3.271  1.00  0.00     0.103 A
HETATM   24  C11 UNL     1      -8.790 -11.305  -2.544  1.00  0.00     0.072 A
HETATM   25  C12 UNL     1     -10.084 -11.703  -2.716  1.00  0.00     0.159 A
HETATM   26  F2  UNL     1     -10.639 -12.727  -2.017  1.00  0.00    -0.203 F
HETATM   27  C13 UNL     1     -10.861 -11.046  -3.634  1.00  0.00     0.193 A
HETATM   28  F3  UNL     1     -12.164 -11.435  -3.822  1.00  0.00    -0.200 F
HETATM   29  C14 UNL     1     -10.362 -10.011  -4.364  1.00  0.00     0.166 A
HETATM   30  F4  UNL     1     -11.163  -9.402  -5.261  1.00  0.00    -0.202 F
BRANCH  23  31
HETATM   31  S1  UNL     1      -6.510  -9.912  -2.995  1.00  0.00     0.333 S
HETATM   32  O1  UNL     1      -5.761 -10.178  -4.301  1.00  0.00    -0.189 OA
HETATM   33  O2  UNL     1      -6.327  -8.388  -2.824  1.00  0.00    -0.189 OA
HETATM   34  F1  UNL     1      -5.793 -10.686  -1.766  1.00  0.00    -0.100 F
ENDBRANCH  23  31
ENDBRANCH  21  22
ENDBRANCH   1  21
TORSDOF 7
ENDMDL