MODEL 1
REMARK VINA RESULT: -8.444729327      0.000      0.000
REMARK  5 active torsions:
REMARK  status: ('A' for Active; 'I' for Inactive)
REMARK    1  A    between atoms: C2_2  and  C4_4
REMARK    2  A    between atoms: C4_4  and  N1_5
REMARK    3  A    between atoms: C4_4  and  C5_9
REMARK       I    between atoms: C5_9  and  N2_11
REMARK    4  A    between atoms: N2_11  and  N3_13
REMARK    5  A    between atoms: C6_15  and  C7_16
ROOT
HETATM    1  N3  UNL     1      -9.795 -10.098  -4.466  1.00  0.00    -0.308 N
ATOM      2  H3  UNL     1      -9.600 -10.934  -5.017  1.00  0.00     0.186 HD
HETATM    3  C6  UNL     1     -10.456 -10.212  -3.360  1.00  0.00     0.120 C
ENDROOT
BRANCH   1   4
HETATM    4  N2  UNL     1      -9.344  -8.865  -4.923  1.00  0.00    -0.269 N
HETATM    5  C5  UNL     1      -7.990  -8.512  -5.107  1.00  0.00     0.267 C
HETATM    6  O1  UNL     1      -7.155  -9.419  -4.822  1.00  0.00    -0.269 OA
ATOM      7  H2  UNL     1     -10.048  -8.160  -5.144  1.00  0.00     0.190 HD
BRANCH   5   8
HETATM    8  C4  UNL     1      -7.498  -7.233  -5.582  1.00  0.00     0.279 C
BRANCH   8   9
HETATM    9  C2  UNL     1      -8.077  -6.770  -6.884  1.00  0.00     0.017 C
HETATM   10  C1  UNL     1      -7.644  -7.760  -7.955  1.00  0.00     0.012 C
HETATM   11  C3  UNL     1      -7.656  -5.394  -7.279  1.00  0.00     0.012 C
ENDBRANCH   8   9
BRANCH   8  12
HETATM   12  N1  UNL     1      -7.700  -6.217  -4.580  1.00  0.00    -0.066 N
ATOM     13  H13 UNL     1      -6.917  -5.566  -4.527  1.00  0.00     0.275 HD
ATOM     14  H12 UNL     1      -8.425  -5.550  -4.847  1.00  0.00     0.275 HD
ATOM     15  H11 UNL     1      -7.896  -6.660  -3.682  1.00  0.00     0.275 HD
ENDBRANCH   8  12
ENDBRANCH   5   8
ENDBRANCH   1   4
BRANCH   3  16
HETATM   16  C7  UNL     1     -10.940 -11.475  -2.854  1.00  0.00     0.005 A
HETATM   17  C8  UNL     1     -12.277 -11.814  -2.804  1.00  0.00     0.054 A
HETATM   18  C9  UNL     1     -12.681 -13.055  -2.301  1.00  0.00     0.117 A
HETATM   19 BR1  UNL     1     -14.512 -13.549  -2.219  1.00  0.00    -0.028 Br
HETATM   20  N4  UNL     1     -11.760 -13.926  -1.861  1.00  0.00    -0.144 N
HETATM   21  F1  UNL     1     -12.147 -15.137  -1.370  1.00  0.00    -0.090 F
HETATM   22  C10 UNL     1     -10.440 -13.641  -1.890  1.00  0.00     0.238 A
HETATM   23  F2  UNL     1      -9.526 -14.537  -1.440  1.00  0.00    -0.182 F
HETATM   24  C11 UNL     1     -10.044 -12.406  -2.391  1.00  0.00     0.081 A
HETATM   25 BR2  UNL     1      -8.154 -12.064  -2.402  1.00  0.00    -0.045 Br
ENDBRANCH   3  16
TORSDOF 5
ENDMDL