MODEL 1
REMARK VINA RESULT: -10.350237894      0.000      0.000
REMARK  4 active torsions:
REMARK  status: ('A' for Active; 'I' for Inactive)
REMARK    1  A    between atoms: C1_2  and  C2_4
REMARK    2  A    between atoms: C8_10  and  N2_11
REMARK    3  A    between atoms: N2_11  and  S1_13
REMARK    4  A    between atoms: S1_13  and  C9_16
ROOT
HETATM    1  N2  UNL     1     -12.452 -13.470  -1.922  1.00  0.00    -0.310 N
ATOM      2  H2  UNL     1     -11.766 -13.678  -1.197  1.00  0.00     0.172 HD
ENDROOT
BRANCH   1   3
HETATM    3  C8  UNL     1     -13.285 -14.501  -2.272  1.00  0.00     0.101 C
HETATM    4  C6  UNL     1     -13.047 -15.871  -1.731  1.00  0.00     0.011 C
HETATM    5  C5  UNL     1     -13.457 -16.088  -0.321  1.00  0.00     0.011 C
HETATM    6  C7  UNL     1     -13.918 -16.808  -2.559  1.00  0.00     0.025 C
HETATM    7  C4  UNL     1     -14.917 -15.750  -0.158  1.00  0.00    -0.013 C
HETATM    8  C3  UNL     1     -15.794 -16.612  -1.004  1.00  0.00     0.023 C
HETATM    9  C16 UNL     1     -15.081 -14.296  -0.524  1.00  0.00     0.011 C
HETATM   10  C2  UNL     1     -15.362 -16.433  -2.463  1.00  0.00     0.040 C
HETATM   11  C17 UNL     1     -15.619 -14.982  -2.805  1.00  0.00     0.025 C
HETATM   12  C15 UNL     1     -14.734 -14.093  -1.959  1.00  0.00     0.011 C
BRANCH  10  13
HETATM   13  C1  UNL     1     -16.160 -17.264  -3.369  1.00  0.00     0.239 C
HETATM   14  N1  UNL     1     -17.573 -17.178  -3.382  1.00  0.00    -0.061 NA
HETATM   15  O1  UNL     1     -15.587 -18.062  -4.147  1.00  0.00    -0.276 OA
ENDBRANCH  10  13
ENDBRANCH   1   3
BRANCH   1  16
HETATM   16  S1  UNL     1     -12.422 -11.948  -2.519  1.00  0.00     0.265 S
HETATM   17  O2  UNL     1     -12.919 -10.850  -1.621  1.00  0.00    -0.200 OA
HETATM   18  O3  UNL     1     -13.166 -11.918  -3.851  1.00  0.00    -0.200 OA
BRANCH  16  19
HETATM   19  C9  UNL     1     -10.773 -11.496  -2.925  1.00  0.00     0.162 A
HETATM   20  C10 UNL     1     -10.557 -10.452  -3.830  1.00  0.00     0.184 A
HETATM   21  F1  UNL     1     -11.624  -9.803  -4.399  1.00  0.00    -0.201 F
HETATM   22  C11 UNL     1      -9.283 -10.056  -4.169  1.00  0.00     0.198 A
HETATM   23  F2  UNL     1      -9.069  -9.039  -5.052  1.00  0.00    -0.199 F
HETATM   24  C12 UNL     1      -8.167 -10.666  -3.635  1.00  0.00     0.199 A
HETATM   25  F3  UNL     1      -6.916 -10.269  -3.975  1.00  0.00    -0.199 F
HETATM   26  C13 UNL     1      -8.398 -11.691  -2.745  1.00  0.00     0.198 A
HETATM   27  F4  UNL     1      -7.344 -12.318  -2.196  1.00  0.00    -0.199 F
HETATM   28  C14 UNL     1      -9.678 -12.104  -2.390  1.00  0.00     0.184 A
HETATM   29  F5  UNL     1      -9.823 -13.128  -1.484  1.00  0.00    -0.201 F
ENDBRANCH  16  19
ENDBRANCH   1  16
TORSDOF 4
ENDMDL