MODEL 1
REMARK VINA RESULT: -7.753382415      0.000      0.000
REMARK  5 active torsions:
REMARK  status: ('A' for Active; 'I' for Inactive)
REMARK    1  A    between atoms: C3_3  and  N1_4
REMARK    2  A    between atoms: C3_3  and  C15_23
REMARK       I    between atoms: N1_4  and  C4_6
REMARK       I    between atoms: C4_6  and  N2_8
REMARK    3  A    between atoms: C8_13  and  C9_14
REMARK    4  A    between atoms: C9_14  and  N3_15
REMARK    5  A    between atoms: C15_23  and  O2_24
ROOT
HETATM    1  C1  UNL     1      -8.220  -4.636  -6.209  1.00  0.00     0.014 C
HETATM    2  C2  UNL     1      -7.817  -5.757  -6.468  1.00  0.00    -0.089 C
HETATM    3  C3  UNL     1      -7.341  -7.105  -6.802  1.00  0.00     0.201 C
ENDROOT
BRANCH   3   4
HETATM    4  N1  UNL     1      -7.932  -8.083  -5.919  1.00  0.00    -0.325 N
HETATM    5  C4  UNL     1      -7.548  -8.106  -4.548  1.00  0.00     0.319 C
HETATM    6  O1  UNL     1      -6.705  -7.298  -4.076  1.00  0.00    -0.247 OA
HETATM    7  N2  UNL     1      -8.122  -9.058  -3.690  1.00  0.00    -0.325 N
HETATM    8  C5  UNL     1      -7.846  -9.213  -2.288  1.00  0.00     0.165 C
HETATM    9  C8  UNL     1      -9.108 -10.090  -3.991  1.00  0.00     0.120 C
HETATM   10  C6  UNL     1      -7.666 -10.695  -2.125  1.00  0.00     0.190 C
HETATM   11  F1  UNL     1      -6.342 -11.091  -2.153  1.00  0.00    -0.248 F
HETATM   12  C7  UNL     1      -8.485 -11.288  -3.245  1.00  0.00     0.066 C
ATOM     13  H1  UNL     1      -8.618  -8.750  -6.273  1.00  0.00     0.165 HD
BRANCH   9  14
HETATM   14  C9  UNL     1     -10.451  -9.763  -3.415  1.00  0.00     0.305 C
BRANCH  14  15
HETATM   15  N3  UNL     1     -11.202 -10.940  -3.166  1.00  0.00     0.162 N
HETATM   16  C10 UNL     1     -10.786 -11.551  -1.877  1.00  0.00     0.280 C
HETATM   17  C11 UNL     1     -11.249 -12.968  -1.926  1.00  0.00     0.031 C
HETATM   18  C12 UNL     1     -12.690 -13.166  -2.262  1.00  0.00     0.009 C
HETATM   19  C13 UNL     1     -13.223 -12.160  -3.249  1.00  0.00     0.114 C
HETATM   20  C14 UNL     1     -12.629 -10.768  -2.971  1.00  0.00     0.437 C
HETATM   21  F2  UNL     1     -13.235  -9.869  -3.747  1.00  0.00    -0.172 F
HETATM   22  F3  UNL     1     -12.951 -10.492  -1.645  1.00  0.00    -0.172 F
ENDBRANCH  14  15
ENDBRANCH   9  14
ENDBRANCH   3   4
BRANCH   3  23
HETATM   23  C15 UNL     1      -7.696  -7.350  -8.252  1.00  0.00     0.117 C
HETATM   24  C16 UNL     1      -7.589  -6.023  -8.965  1.00  0.00     0.073 C
HETATM   25  C17 UNL     1      -6.113  -5.955  -9.282  1.00  0.00     0.275 C
HETATM   26  N4  UNL     1      -5.852  -7.302  -9.752  1.00  0.00     0.087 N
HETATM   27  C18 UNL     1      -6.293  -7.403 -11.134  1.00  0.00     0.310 C
HETATM   28  C19 UNL     1      -6.674  -8.188  -8.961  1.00  0.00     0.312 C
BRANCH  23  29
HETATM   29  O2  UNL     1      -8.983  -7.850  -8.401  1.00  0.00    -0.385 OA
ATOM     30  H2  UNL     1      -9.293  -7.785  -9.297  1.00  0.00     0.210 HD
ENDBRANCH  23  29
ENDBRANCH   3  23
TORSDOF 5
ENDMDL