MODEL 2
REMARK VINA RESULT: -5.733433399      1.986      2.636
REMARK  3 active torsions:
REMARK  status: ('A' for Active; 'I' for Inactive)
REMARK    1  A    between atoms: C7_7  and  C9_9
REMARK    2  A    between atoms: C9_9  and  N1_10
REMARK    3  A    between atoms: N2_15  and  O1_16
ROOT
HETATM    1  N1  UNL     1      -0.842   2.527  84.514  1.00  0.00    -0.373 N
HETATM    2  C10 UNL     1      -0.338   1.969  85.709  1.00  0.00     0.129 C
HETATM    3  C11 UNL     1      -1.258   0.772  85.984  1.00  0.00     0.022 C
HETATM    4  C12 UNL     1      -2.558   1.360  85.408  1.00  0.00     0.051 C
HETATM    5  C13 UNL     1      -1.898   1.684  84.047  1.00  0.00     0.184 C
HETATM    6  N2  UNL     1      -1.445   0.346  83.714  1.00  0.00    -0.176 NA
HETATM    7  C14 UNL     1      -0.965  -0.246  84.944  1.00  0.00     0.129 C
ENDROOT
BRANCH   1   8
HETATM    8  C9  UNL     1      -0.032   3.144  83.580  1.00  0.00     0.070 C
BRANCH   8   9
HETATM    9  C7  UNL     1      -0.223   4.613  83.452  1.00  0.00    -0.005 C
HETATM   10  C2  UNL     1       0.834   5.268  82.605  1.00  0.00    -0.036 C
HETATM   11  C1  UNL     1       1.065   6.728  82.877  1.00  0.00     0.016 C
HETATM   12  C3  UNL     1       2.176   4.576  82.720  1.00  0.00     0.016 C
HETATM   13  C4  UNL     1       0.382   5.099  81.157  1.00  0.00     0.010 C
HETATM   14  C5  UNL     1      -1.013   4.570  81.216  1.00  0.00     0.002 C
HETATM   15  C6  UNL     1      -1.480   4.863  82.597  1.00  0.00     0.015 C
HETATM   16  C8  UNL     1      -0.469   5.361  84.732  1.00  0.00     0.021 C
ENDBRANCH   8   9
ENDBRANCH   1   8
BRANCH   6  17
HETATM   17  O1  UNL     1      -0.488   0.307  82.793  1.00  0.00    -0.311 OA
ATOM     18  H1  UNL     1      -0.306  -0.562  82.457  1.00  0.00     0.237 HD
ENDBRANCH   6  17
TORSDOF 3
ENDMDL