MODEL 5
REMARK VINA RESULT: -5.947960263      1.821      2.938
REMARK  3 active torsions:
REMARK  status: ('A' for Active; 'I' for Inactive)
REMARK    1  A    between atoms: C2_2  and  C3_3
REMARK    2  A    between atoms: C3_3  and  O1_5
REMARK    3  A    between atoms: C3_3  and  C5_7
ROOT
HETATM    1  C5  UNL     1      -0.461   2.932  84.762  1.00  0.00     0.054 C
HETATM    2  C6  UNL     1       1.040   2.970  84.930  1.00  0.00     0.281 C
HETATM    3  N1  UNL     1       1.527   3.817  83.832  1.00  0.00     0.094 N
HETATM    4  C7  UNL     1       1.345   5.167  84.216  1.00  0.00     0.273 C
HETATM    5  C8  UNL     1      -0.023   5.718  84.103  1.00  0.00     0.036 C
HETATM    6  C9  UNL     1      -0.991   4.902  83.322  1.00  0.00     0.002 C
HETATM    7  C10 UNL     1      -0.670   3.401  83.382  1.00  0.00     0.032 C
HETATM    8  C11 UNL     1       0.706   3.437  82.708  1.00  0.00     0.228 C
HETATM    9  C12 UNL     1       0.623   4.525  81.662  1.00  0.00     0.046 C
HETATM   10  C13 UNL     1      -0.707   5.159  81.843  1.00  0.00    -0.034 A
HETATM   11  C14 UNL     1      -1.781   5.108  80.850  1.00  0.00     0.011 A
HETATM   12  C15 UNL     1      -1.098   6.441  81.267  1.00  0.00     0.011 A
ENDROOT
BRANCH   1  13
HETATM   13  C3  UNL     1      -0.958   1.559  85.073  1.00  0.00     0.059 C
HETATM   14  C4  UNL     1      -1.256   0.706  83.900  1.00  0.00     0.046 C
BRANCH  13  15
HETATM   15  C2  UNL     1      -2.247   1.652  85.905  1.00  0.00     0.033 C
HETATM   16  C1  UNL     1      -2.271   0.482  86.851  1.00  0.00     0.008 C
ENDBRANCH  13  15
BRANCH  13  17
HETATM   17  O1  UNL     1      -0.017   0.961  85.926  1.00  0.00    -0.390 OA
ATOM     18  H1  UNL     1      -0.219   0.033  85.902  1.00  0.00     0.210 HD
ENDBRANCH  13  17
ENDBRANCH   1  13
TORSDOF 3
ENDMDL