MODEL 2
REMARK VINA RESULT: -5.433291691      1.429      2.816
REMARK  1 active torsions:
REMARK  status: ('A' for Active; 'I' for Inactive)
REMARK    1  A    between atoms: C10_13  and  N2_14
ROOT
HETATM    1  C1  UNL     1       1.170   6.420  84.023  1.00  0.00     0.013 C
HETATM    2  C2  UNL     1       1.228   5.507  82.890  1.00  0.00     0.026 C
HETATM    3  C3  UNL     1       1.716   4.079  83.178  1.00  0.00     0.004 C
HETATM    4  C4  UNL     1       1.402   3.640  84.520  1.00  0.00     0.039 C
HETATM    5  C5  UNL     1       0.011   3.266  84.861  1.00  0.00     0.191 C
HETATM    6  N1  UNL     1      -0.330   1.904  84.409  1.00  0.00    -0.066 N
ATOM      7  H11 UNL     1      -0.907   1.352  85.044  1.00  0.00     0.278 HD
ATOM      8  H12 UNL     1       0.436   1.231  84.396  1.00  0.00     0.278 HD
HETATM    9  C6  UNL     1      -0.925   2.222  83.117  1.00  0.00     0.192 C
HETATM   10  C7  UNL     1       0.191   2.365  82.142  1.00  0.00     0.045 C
HETATM   11  C8  UNL     1       0.839   3.665  82.059  1.00  0.00    -0.001 C
HETATM   12  C9  UNL     1       1.578   3.824  80.721  1.00  0.00     0.018 C
HETATM   13  C10 UNL     1       0.011   4.880  82.308  1.00  0.00     0.174 C
HETATM   14  C13 UNL     1      -1.154   4.736  83.169  1.00  0.00     0.038 A
HETATM   15  C14 UNL     1      -1.077   4.145  84.473  1.00  0.00     0.030 A
HETATM   16  C15 UNL     1      -1.765   3.413  83.325  1.00  0.00     0.030 A
ENDROOT
BRANCH  13  17
HETATM   17  N2  UNL     1      -0.321   5.612  81.072  1.00  0.00     0.091 N
HETATM   18  C11 UNL     1      -1.519   5.139  80.454  1.00  0.00     0.310 C
HETATM   19  C12 UNL     1      -0.437   7.028  81.323  1.00  0.00     0.310 C
ENDBRANCH  13  17
TORSDOF 1
ENDMDL