MODEL 1
REMARK VINA RESULT: -5.494258524      0.000      0.000
REMARK  3 active torsions:
REMARK  status: ('A' for Active; 'I' for Inactive)
REMARK    1  A    between atoms: C2_2  and  C3_3
REMARK    2  A    between atoms: C3_3  and  N1_5
REMARK    3  A    between atoms: N1_5  and  C4_7
ROOT
HETATM    1  C4  UNL     1      -0.589   3.095  84.064  1.00  0.00     0.097 C
HETATM    2  C5  UNL     1       0.597   3.231  83.195  1.00  0.00     0.038 C
HETATM    3  C6  UNL     1       0.270   3.729  81.800  1.00  0.00     0.014 C
HETATM    4  C7  UNL     1      -0.389   5.062  81.908  1.00  0.00     0.015 C
HETATM    5  C8  UNL     1       0.468   6.056  82.647  1.00  0.00     0.277 C
HETATM    6  N2  UNL     1       0.801   5.562  83.965  1.00  0.00     0.090 N
HETATM    7  C9  UNL     1       1.488   4.320  83.818  1.00  0.00     0.279 C
HETATM    8  C10 UNL     1      -0.420   5.451  84.729  1.00  0.00     0.283 C
HETATM    9  C11 UNL     1      -1.318   4.437  84.072  1.00  0.00     0.004 C
HETATM   10  C12 UNL     1      -2.597   4.246  84.855  1.00  0.00     0.019 C
HETATM   11  C13 UNL     1      -1.669   4.895  82.690  1.00  0.00     0.019 C
ENDROOT
BRANCH   1  12
HETATM   12  N1  UNL     1      -1.467   1.999  83.828  1.00  0.00    -0.379 N
ATOM     13  H1  UNL     1      -2.454   2.249  83.777  1.00  0.00     0.160 HD
BRANCH  12  14
HETATM   14  C3  UNL     1      -1.202   0.650  83.654  1.00  0.00     0.073 C
HETATM   15  S1  UNL     1      -1.122  -0.317  84.971  1.00  0.00    -0.066 SA
BRANCH  14  16
HETATM   16  C2  UNL     1      -0.985   0.017  82.339  1.00  0.00     0.065 C
HETATM   17  C1  UNL     1      -1.796   0.640  81.223  1.00  0.00     0.012 C
ENDBRANCH  14  16
ENDBRANCH  12  14
ENDBRANCH   1  12
TORSDOF 3
ENDMDL