MODEL 4
REMARK VINA RESULT: -5.500659955      1.692      3.958
REMARK  2 active torsions:
REMARK  status: ('A' for Active; 'I' for Inactive)
REMARK    1  A    between atoms: C2_2  and  C4_4
REMARK    2  A    between atoms: C8_9  and  C9_10
ROOT
HETATM    1  C4  UNL     1      -0.470   1.657  81.574  1.00  0.00     0.025 C
HETATM    2  C5  UNL     1      -0.899   2.600  80.450  1.00  0.00     0.037 C
HETATM    3  C6  UNL     1       0.275   3.573  80.494  1.00  0.00     0.273 C
HETATM    4  N1  UNL     1       0.955   3.364  81.760  1.00  0.00     0.090 N
HETATM    5  C7  UNL     1       2.187   2.688  81.592  1.00  0.00     0.310 C
HETATM    6  C8  UNL     1      -0.011   2.609  82.587  1.00  0.00     0.247 C
ENDROOT
BRANCH   6   7
HETATM    7  C9  UNL     1      -0.978   3.502  83.246  1.00  0.00     0.131 C
HETATM    8  N2  UNL     1      -2.353   3.233  83.091  1.00  0.00    -0.157 NA
HETATM    9  N3  UNL     1      -3.036   3.166  84.316  1.00  0.00    -0.234 NA
HETATM   10  C10 UNL     1      -2.951   4.399  85.064  1.00  0.00     0.110 C
HETATM   11  C14 UNL     1      -2.543   2.099  85.156  1.00  0.00     0.110 C
HETATM   12  C11 UNL     1      -1.499   4.734  85.321  1.00  0.00     0.022 C
HETATM   13  C12 UNL     1      -0.674   3.603  84.734  1.00  0.00     0.011 C
HETATM   14  C13 UNL     1      -1.085   2.340  85.459  1.00  0.00     0.022 C
ENDBRANCH   6   7
BRANCH   1  15
HETATM   15  C2  UNL     1      -1.399   0.591  81.881  1.00  0.00    -0.016 C
HETATM   16  C1  UNL     1      -0.695  -0.496  82.657  1.00  0.00     0.010 C
HETATM   17  C3  UNL     1      -1.850  -0.037  80.554  1.00  0.00     0.010 C
ENDBRANCH   1  15
TORSDOF 2
ENDMDL