MODEL 4
REMARK VINA RESULT: -5.365897826      1.302      2.022
REMARK  4 active torsions:
REMARK  status: ('A' for Active; 'I' for Inactive)
REMARK    1  A    between atoms: C2_2  and  C3_3
REMARK    2  A    between atoms: C2_2  and  N2_6
REMARK    3  A    between atoms: N2_6  and  C5_8
REMARK    4  A    between atoms: C5_8  and  N3_10
ROOT
HETATM    1  C3  UNL     1      -1.734   1.397  81.857  1.00  0.00     0.148 C
HETATM    2  C4  UNL     1      -1.297   2.208  80.755  1.00  0.00     0.061 C
HETATM    3  N1  UNL     1      -0.973   2.879  79.849  1.00  0.00    -0.197 NA
ENDROOT
BRANCH   1   4
HETATM    4  C2  UNL     1      -0.595   0.636  82.548  1.00  0.00     0.092 C
HETATM    5  C1  UNL     1      -0.885  -0.839  82.123  1.00  0.00     0.033 C
BRANCH   4   6
HETATM    6  N2  UNL     1      -0.751   0.628  83.981  1.00  0.00    -0.362 N
ATOM      7  H2  UNL     1      -0.821  -0.278  84.444  1.00  0.00     0.162 HD
BRANCH   6   8
HETATM    8  C5  UNL     1      -0.815   1.771  84.781  1.00  0.00     0.170 C
HETATM    9  S1  UNL     1       0.322   2.934  84.591  1.00  0.00    -0.041 SA
BRANCH   8  10
HETATM   10  N3  UNL     1      -1.836   1.918  85.798  1.00  0.00    -0.350 N
HETATM   11  C6  UNL     1      -2.796   2.967  85.920  1.00  0.00     0.083 C
HETATM   12  C7  UNL     1      -3.303   3.476  84.593  1.00  0.00     0.032 C
HETATM   13  C8  UNL     1      -3.877   2.453  86.797  1.00  0.00     0.027 C
HETATM   14  C9  UNL     1      -3.062   1.584  87.769  1.00  0.00     0.027 C
HETATM   15  C10 UNL     1      -2.006   0.977  86.864  1.00  0.00     0.083 C
HETATM   16  C11 UNL     1      -2.532  -0.358  86.394  1.00  0.00     0.032 C
ENDBRANCH   8  10
ENDBRANCH   6   8
ENDBRANCH   4   6
ENDBRANCH   1   4
TORSDOF 4
ENDMDL