MODEL 2
REMARK VINA RESULT: -6.361739934      1.749      2.827
REMARK  2 active torsions:
REMARK  status: ('A' for Active; 'I' for Inactive)
REMARK    1  A    between atoms: N2_15  and  C11_16
REMARK    2  A    between atoms: C11_16  and  C12_17
ROOT
HETATM    1  C1  UNL     1      -2.721   4.465  85.163  1.00  0.00     0.043 C
HETATM    2  C2  UNL     1      -2.081   3.505  84.188  1.00  0.00     0.221 C
HETATM    3  C3  UNL     1      -0.889   4.252  83.611  1.00  0.00     0.073 C
HETATM    4  C4  UNL     1      -0.104   3.427  82.646  1.00  0.00     0.066 C
HETATM    5  C5  UNL     1      -0.041   4.041  81.266  1.00  0.00     0.065 C
HETATM    6  C6  UNL     1       1.253   3.592  80.622  1.00  0.00     0.235 C
HETATM    7  N1  UNL     1       2.265   4.630  80.762  1.00  0.00    -0.073 N
ATOM      8  H11 UNL     1       1.889   5.570  80.635  1.00  0.00     0.277 HD
ATOM      9  H12 UNL     1       2.928   4.644  79.987  1.00  0.00     0.277 HD
HETATM   10  C7  UNL     1       2.910   4.449  82.052  1.00  0.00     0.258 C
HETATM   11  C8  UNL     1       1.837   4.513  83.117  1.00  0.00     0.196 C
HETATM   12  O1  UNL     1       1.205   3.261  83.148  1.00  0.00    -0.378 OA
HETATM   13  C9  UNL     1      -0.743   2.083  82.530  1.00  0.00     0.068 C
HETATM   14  C10 UNL     1      -1.042   1.429  83.847  1.00  0.00     0.276 C
HETATM   15  N2  UNL     1      -1.712   2.262  84.785  1.00  0.00     0.093 N
ENDROOT
BRANCH  15  16
HETATM   16  C11 UNL     1      -2.867   1.609  85.305  1.00  0.00     0.277 C
BRANCH  16  17
HETATM   17  C12 UNL     1      -2.571   0.802  86.559  1.00  0.00     0.014 A
HETATM   18  C13 UNL     1      -3.811   0.110  87.160  1.00  0.00     0.007 A
HETATM   19  C14 UNL     1      -3.070   1.229  87.868  1.00  0.00     0.007 A
ENDBRANCH  16  17
ENDBRANCH  15  16
TORSDOF 2
ENDMDL