MODEL 3
REMARK VINA RESULT: -6.300580759      0.575      1.586
REMARK  4 active torsions:
REMARK  status: ('A' for Active; 'I' for Inactive)
REMARK    1  A    between atoms: C3_3  and  O1_4
REMARK    2  A    between atoms: O1_4  and  C4_5
REMARK    3  A    between atoms: C4_5  and  N1_7
REMARK    4  A    between atoms: N1_7  and  C5_9
ROOT
HETATM    1  C1  UNL     1      -3.695   2.516  86.930  1.00  0.00     0.014 C
HETATM    2  C2  UNL     1      -2.629   2.239  86.439  1.00  0.00    -0.091 C
HETATM    3  C3  UNL     1      -1.329   1.904  85.812  1.00  0.00     0.271 C
ENDROOT
BRANCH   3   4
HETATM    4  O1  UNL     1      -1.531   1.631  84.429  1.00  0.00    -0.315 OA
BRANCH   4   5
HETATM    5  C4  UNL     1      -0.711   2.336  83.546  1.00  0.00     0.211 C
HETATM    6  S1  UNL     1      -0.754   1.854  81.999  1.00  0.00    -0.033 SA
BRANCH   5   7
HETATM    7  N1  UNL     1       0.078   3.395  84.061  1.00  0.00    -0.352 N
ATOM      8  H1  UNL     1       0.848   3.137  84.677  1.00  0.00     0.163 HD
BRANCH   7   9
HETATM    9  C5  UNL     1      -0.103   4.792  83.802  1.00  0.00     0.034 C
HETATM   10  C6  UNL     1      -1.320   5.288  84.601  1.00  0.00     0.035 C
HETATM   11  C7  UNL     1      -1.651   6.716  84.298  1.00  0.00    -0.012 C
HETATM   12  C8  UNL     1      -0.484   7.579  84.757  1.00  0.00     0.009 C
HETATM   13  C12 UNL     1      -1.885   6.951  82.840  1.00  0.00     0.009 C
HETATM   14  C9  UNL     1       0.743   7.101  84.050  1.00  0.00    -0.012 C
HETATM   15  C10 UNL     1       0.540   7.338  82.557  1.00  0.00     0.009 C
HETATM   16  C14 UNL     1       1.059   5.650  84.245  1.00  0.00     0.035 C
HETATM   17  C11 UNL     1      -0.638   6.529  82.102  1.00  0.00    -0.012 C
HETATM   18  C13 UNL     1      -0.447   5.048  82.360  1.00  0.00     0.035 C
ENDBRANCH   7   9
ENDBRANCH   5   7
ENDBRANCH   4   5
ENDBRANCH   3   4
TORSDOF 4
ENDMDL