MODEL 3
REMARK VINA RESULT: -7.166611468      1.588      2.247
REMARK  2 active torsions:
REMARK  status: ('A' for Active; 'I' for Inactive)
REMARK       I    between atoms: C1_2  and  N1_3
REMARK    1  A    between atoms: C1_2  and  C13_16
REMARK    2  A    between atoms: N1_3  and  C2_5
ROOT
HETATM    1  C2  UNL     1      -0.184   3.216  83.594  1.00  0.00     0.089 C
HETATM    2  C3  UNL     1      -0.626   2.151  82.707  1.00  0.00     0.030 C
HETATM    3  C4  UNL     1      -0.492   2.325  81.238  1.00  0.00    -0.012 C
HETATM    4  C5  UNL     1      -1.448   3.327  80.644  1.00  0.00     0.009 C
HETATM    5  C6  UNL     1      -0.917   4.740  80.719  1.00  0.00    -0.013 C
HETATM    6  C7  UNL     1       0.449   4.858  80.076  1.00  0.00     0.009 C
HETATM    7  C8  UNL     1       1.382   3.957  80.817  1.00  0.00    -0.013 C
HETATM    8  C9  UNL     1       0.907   2.549  80.756  1.00  0.00     0.009 C
HETATM    9  C10 UNL     1       1.510   4.473  82.226  1.00  0.00     0.011 C
HETATM   10  C11 UNL     1       0.194   4.529  82.950  1.00  0.00     0.009 C
HETATM   11  C12 UNL     1      -0.911   5.150  82.153  1.00  0.00     0.011 C
ENDROOT
BRANCH   1  12
HETATM   12  N1  UNL     1      -1.124   3.536  84.652  1.00  0.00    -0.354 N
HETATM   13  C1  UNL     1      -1.082   2.929  85.933  1.00  0.00     0.247 C
HETATM   14  O1  UNL     1      -0.179   2.080  86.132  1.00  0.00    -0.271 OA
ATOM     15  H1  UNL     1      -1.849   4.228  84.466  1.00  0.00     0.162 HD
BRANCH  13  16
HETATM   16  C13 UNL     1      -2.035   3.249  87.012  1.00  0.00     0.215 C
HETATM   17  C14 UNL     1      -3.411   3.714  86.525  1.00  0.00     0.068 C
HETATM   18  C15 UNL     1      -3.629   2.222  86.631  1.00  0.00     0.171 C
HETATM   19  O2  UNL     1      -2.642   2.156  87.594  1.00  0.00    -0.376 OA
ENDBRANCH  13  16
ENDBRANCH   1  12
TORSDOF 2
ENDMDL