MODEL 2
REMARK VINA RESULT: -6.325399098      1.589      5.685
REMARK  3 active torsions:
REMARK  status: ('A' for Active; 'I' for Inactive)
REMARK    1  A    between atoms: N1_6  and  C6_7
REMARK    2  A    between atoms: C6_7  and  C7_8
REMARK    3  A    between atoms: C7_8  and  N3_12
ROOT
HETATM    1  C7  UNL     1      -1.005   3.361  83.442  1.00  0.00     0.113 C
HETATM    2  N2  UNL     1      -0.635   2.310  84.077  1.00  0.00    -0.384 N
ATOM      3  H21 UNL     1      -0.549   2.327  85.093  1.00  0.00     0.157 HD
ATOM      4  H22 UNL     1      -0.420   1.449  83.575  1.00  0.00     0.157 HD
ENDROOT
BRANCH   1   5
HETATM    5  C6  UNL     1      -1.127   3.337  81.989  1.00  0.00     0.133 C
BRANCH   5   6
HETATM    6  N1  UNL     1       0.020   3.523  81.214  1.00  0.00    -0.386 N
HETATM    7  C5  UNL     1       1.082   2.599  81.343  1.00  0.00     0.122 C
HETATM    8  C4  UNL     1       2.006   2.528  80.173  1.00  0.00     0.020 C
HETATM    9  C3  UNL     1       2.158   3.861  79.475  1.00  0.00     0.007 C
HETATM   10  C2  UNL     1       1.762   5.014  80.372  1.00  0.00    -0.001 C
HETATM   11  C1  UNL     1       2.787   5.295  81.432  1.00  0.00     0.011 C
HETATM   12  C15 UNL     1       0.376   4.862  80.891  1.00  0.00     0.126 C
ENDBRANCH   5   6
ENDBRANCH   1   5
BRANCH   1  13
HETATM   13  N3  UNL     1      -1.303   4.557  84.140  1.00  0.00    -0.358 N
HETATM   14  C8  UNL     1      -0.364   5.556  84.555  1.00  0.00     0.082 C
HETATM   15  C9  UNL     1       1.041   5.092  84.695  1.00  0.00     0.032 C
HETATM   16  C10 UNL     1      -0.529   6.737  83.628  1.00  0.00     0.025 C
HETATM   17  C11 UNL     1      -1.981   6.899  83.300  1.00  0.00     0.004 C
HETATM   18  C12 UNL     1      -2.910   6.304  84.333  1.00  0.00     0.025 C
HETATM   19  C13 UNL     1      -2.708   4.809  84.475  1.00  0.00     0.082 C
HETATM   20  C14 UNL     1      -2.919   4.448  85.908  1.00  0.00     0.032 C
ENDBRANCH   1  13
TORSDOF 3
ENDMDL