MODEL 3
REMARK VINA RESULT: -6.924537793      2.951      3.789
REMARK  2 active torsions:
REMARK  status: ('A' for Active; 'I' for Inactive)
REMARK       I    between atoms: C1_2  and  N1_3
REMARK    1  A    between atoms: C1_2  and  C10_14
REMARK    2  A    between atoms: N1_3  and  C2_5
ROOT
HETATM    1  O1  UNL     1      -1.731   4.074  82.487  1.00  0.00    -0.273 OA
HETATM    2  C1  UNL     1      -1.628   4.377  83.719  1.00  0.00     0.222 C
HETATM    3  N1  UNL     1      -0.783   5.469  84.083  1.00  0.00    -0.354 N
ATOM      4  H1  UNL     1      -0.692   5.722  85.067  1.00  0.00     0.162 HD
ENDROOT
BRANCH   3   5
HETATM    5  C2  UNL     1      -0.047   6.227  83.084  1.00  0.00     0.114 C
HETATM    6  C3  UNL     1      -0.231   7.716  83.305  1.00  0.00     0.062 C
HETATM    7  C4  UNL     1       0.831   7.938  84.363  1.00  0.00     0.225 C
HETATM    8  C5  UNL     1       1.035   9.378  84.698  1.00  0.00     0.036 C
HETATM    9  N2  UNL     1       1.965   7.310  83.744  1.00  0.00     0.095 N
HETATM   10  C6  UNL     1       2.398   9.893  84.299  1.00  0.00     0.004 C
HETATM   11  C7  UNL     1       2.635   9.509  82.869  1.00  0.00     0.030 C
HETATM   12  C8  UNL     1       2.493   8.037  82.621  1.00  0.00     0.273 C
HETATM   13  C9  UNL     1       1.434   6.057  83.244  1.00  0.00     0.298 C
ENDBRANCH   3   5
BRANCH   2  14
HETATM   14  C10 UNL     1      -2.351   3.642  84.764  1.00  0.00     0.078 C
HETATM   15  C11 UNL     1      -3.046   4.648  85.661  1.00  0.00     0.014 C
HETATM   16  C12 UNL     1      -3.231   4.139  87.065  1.00  0.00     0.001 C
HETATM   17  C13 UNL     1      -3.394   2.650  87.034  1.00  0.00     0.000 C
HETATM   18  C14 UNL     1      -2.106   1.989  86.593  1.00  0.00     0.001 C
HETATM   19  C15 UNL     1      -1.369   2.808  85.578  1.00  0.00     0.014 C
ENDBRANCH   2  14
TORSDOF 2
ENDMDL