MODEL 5
REMARK VINA RESULT: -6.197308908      2.293      4.258
REMARK  3 active torsions:
REMARK  status: ('A' for Active; 'I' for Inactive)
REMARK    1  A    between atoms: C9_10  and  C10_11
REMARK    2  A    between atoms: C10_11  and  O1_12
REMARK    3  A    between atoms: C12_15  and  C13_16
ROOT
HETATM    1  C1  UNL     1      -2.161   3.290  85.544  1.00  0.00     0.010 C
HETATM    2  C2  UNL     1      -0.790   3.310  84.915  1.00  0.00    -0.016 C
HETATM    3  C3  UNL     1      -0.637   2.443  83.728  1.00  0.00     0.009 C
HETATM    4  C4  UNL     1      -0.944   2.992  82.362  1.00  0.00    -0.008 C
HETATM    5  C5  UNL     1      -1.098   4.491  82.640  1.00  0.00     0.041 C
HETATM    6  C6  UNL     1       0.178   4.796  83.324  1.00  0.00     0.223 C
HETATM    7  C7  UNL     1      -0.233   4.738  84.805  1.00  0.00     0.040 C
HETATM    8  N1  UNL     1       0.909   5.887  82.874  1.00  0.00     0.094 N
HETATM    9  C8  UNL     1       2.051   5.358  82.080  1.00  0.00     0.286 C
HETATM   10  C9  UNL     1       1.163   5.295  80.894  1.00  0.00     0.034 C
HETATM   11  C11 UNL     1       0.450   4.106  80.533  1.00  0.00     0.020 C
HETATM   12  C12 UNL     1       0.242   2.927  81.408  1.00  0.00    -0.006 C
HETATM   13  C16 UNL     1       0.506   6.439  81.590  1.00  0.00     0.286 C
ENDROOT
BRANCH  10  14
HETATM   14  C10 UNL     1       1.945   5.889  79.691  1.00  0.00     0.177 C
BRANCH  14  15
HETATM   15  O1  UNL     1       1.642   5.070  78.604  1.00  0.00    -0.400 OA
ATOM     16  H1  UNL     1       0.749   4.776  78.746  1.00  0.00     0.209 HD
ENDBRANCH  14  15
ENDBRANCH  10  14
BRANCH  12  17
HETATM   17  C13 UNL     1      -0.081   1.727  80.489  1.00  0.00    -0.018 C
HETATM   18  C14 UNL     1      -1.547   1.508  80.331  1.00  0.00     0.010 C
HETATM   19  C15 UNL     1       0.485   0.435  81.044  1.00  0.00     0.010 C
ENDBRANCH  12  17
TORSDOF 3
ENDMDL