MODEL 1
REMARK VINA RESULT: -6.659690318      0.000      0.000
REMARK  2 active torsions:
REMARK  status: ('A' for Active; 'I' for Inactive)
REMARK       I    between atoms: C1_2  and  N1_3
REMARK    1  A    between atoms: C1_2  and  C6_10
REMARK    2  A    between atoms: N1_3  and  N2_5
ROOT
HETATM    1  C6  UNL     1      -0.395   5.862  83.133  1.00  0.00     0.043 C
HETATM    2  C7  UNL     1      -1.165   7.086  82.694  1.00  0.00     0.024 C
HETATM    3  C8  UNL     1      -0.216   8.106  82.149  1.00  0.00    -0.013 C
HETATM    4  C9  UNL     1       0.527   7.522  80.988  1.00  0.00     0.009 C
HETATM    5  C10 UNL     1       1.281   6.289  81.410  1.00  0.00    -0.013 C
HETATM    6  C11 UNL     1       2.258   6.694  82.505  1.00  0.00     0.009 C
HETATM    7  C12 UNL     1       1.513   7.331  83.666  1.00  0.00    -0.013 C
HETATM    8  C13 UNL     1       0.742   8.549  83.229  1.00  0.00     0.009 C
HETATM    9  C14 UNL     1       0.566   6.321  84.223  1.00  0.00     0.024 C
HETATM   10  C15 UNL     1       0.381   5.252  82.002  1.00  0.00     0.024 C
ENDROOT
BRANCH   1  11
HETATM   11  C1  UNL     1      -1.275   4.848  83.730  1.00  0.00     0.240 C
HETATM   12  O1  UNL     1      -2.102   4.245  82.959  1.00  0.00    -0.271 OA
HETATM   13  N1  UNL     1      -1.247   4.510  85.129  1.00  0.00    -0.289 N
ATOM     14  H1  UNL     1      -0.602   4.975  85.769  1.00  0.00     0.184 HD
BRANCH  13  15
HETATM   15  N2  UNL     1      -2.114   3.545  85.579  1.00  0.00    -0.229 NA
HETATM   16  C2  UNL     1      -1.500   2.577  86.479  1.00  0.00     0.113 C
HETATM   17  C3  UNL     1      -2.706   1.812  87.013  1.00  0.00     0.017 C
HETATM   18  C4  UNL     1      -3.915   2.657  86.650  1.00  0.00     0.017 C
HETATM   19  C5  UNL     1      -3.232   3.995  86.340  1.00  0.00     0.113 C
ENDBRANCH  13  15
ENDBRANCH   1  11
TORSDOF 2
ENDMDL