MODEL 5
REMARK VINA RESULT: -6.684638705      2.541      3.568
REMARK  2 active torsions:
REMARK  status: ('A' for Active; 'I' for Inactive)
REMARK    1  A    between atoms: C2_3  and  N2_4
REMARK       I    between atoms: N2_4  and  C3_6
REMARK    2  A    between atoms: C3_6  and  C4_8
ROOT
HETATM    1  N1  UNL     1      -1.173   1.116  84.326  1.00  0.00    -0.195 NA
HETATM    2  C1  UNL     1      -0.806   1.533  83.302  1.00  0.00     0.091 C
HETATM    3  C2  UNL     1      -0.337   2.034  82.002  1.00  0.00     0.122 C
HETATM    4  C14 UNL     1      -1.379   1.873  80.940  1.00  0.00     0.047 C
HETATM    5  C15 UNL     1      -0.889   0.428  80.792  1.00  0.00     0.007 C
HETATM    6  C16 UNL     1       0.471   0.951  81.275  1.00  0.00     0.047 C
ENDROOT
BRANCH   3   7
HETATM    7  N2  UNL     1       0.322   3.288  82.091  1.00  0.00    -0.338 N
HETATM    8  C3  UNL     1      -0.422   4.469  82.323  1.00  0.00     0.227 C
HETATM    9  O1  UNL     1      -1.694   4.411  82.456  1.00  0.00    -0.273 OA
ATOM     10  H2  UNL     1       1.335   3.339  81.987  1.00  0.00     0.164 HD
BRANCH   8  11
HETATM   11  C4  UNL     1       0.259   5.803  82.420  1.00  0.00     0.042 C
HETATM   12  C5  UNL     1       1.099   5.899  83.663  1.00  0.00     0.024 C
HETATM   13  C6  UNL     1       1.702   7.275  83.713  1.00  0.00    -0.013 C
HETATM   14  C7  UNL     1       0.684   8.374  83.718  1.00  0.00     0.009 C
HETATM   15  C11 UNL     1       2.622   7.518  82.521  1.00  0.00     0.009 C
HETATM   16  C8  UNL     1      -0.156   8.247  82.444  1.00  0.00    -0.013 C
HETATM   17  C9  UNL     1       0.728   8.347  81.221  1.00  0.00     0.009 C
HETATM   18  C13 UNL     1      -0.774   6.887  82.462  1.00  0.00     0.024 C
HETATM   19  C10 UNL     1       1.833   7.318  81.267  1.00  0.00    -0.013 C
HETATM   20  C12 UNL     1       1.193   5.950  81.232  1.00  0.00     0.024 C
ENDBRANCH   8  11
ENDBRANCH   3   7
TORSDOF 2
ENDMDL