MODEL 5
REMARK VINA RESULT: -6.546054044      3.005      4.597
REMARK  3 active torsions:
REMARK  status: ('A' for Active; 'I' for Inactive)
REMARK    1  A    between atoms: O1_1  and  C1_3
REMARK    2  A    between atoms: N1_6  and  C4_7
REMARK    3  A    between atoms: C4_7  and  C5_8
ROOT
HETATM    1  C5  UNL     1      -0.679   4.907  82.386  1.00  0.00    -0.007 C
HETATM    2  C6  UNL     1       0.728   5.094  82.905  1.00  0.00     0.019 C
HETATM    3  C7  UNL     1       0.720   5.534  84.327  1.00  0.00    -0.013 C
HETATM    4  C8  UNL     1      -0.025   6.821  84.560  1.00  0.00     0.009 C
HETATM    5  C9  UNL     1      -1.433   6.626  84.074  1.00  0.00    -0.013 C
HETATM    6  C10 UNL     1      -2.165   5.526  84.838  1.00  0.00     0.009 C
HETATM    7  C11 UNL     1      -1.340   4.279  84.678  1.00  0.00    -0.013 C
HETATM    8  C12 UNL     1       0.067   4.492  85.196  1.00  0.00     0.009 C
HETATM    9  C13 UNL     1      -1.341   3.865  83.221  1.00  0.00     0.019 C
HETATM   10  C14 UNL     1      -1.394   6.246  82.631  1.00  0.00     0.019 C
ENDROOT
BRANCH   1  11
HETATM   11  C4  UNL     1      -0.755   4.711  80.914  1.00  0.00     0.072 C
BRANCH  11  12
HETATM   12  N1  UNL     1      -0.365   3.487  80.361  1.00  0.00    -0.373 N
HETATM   13  C3  UNL     1       0.972   3.082  80.368  1.00  0.00     0.065 C
HETATM   14  C2  UNL     1       1.247   1.710  80.937  1.00  0.00     0.076 C
HETATM   15  C1  UNL     1       0.229   0.675  80.618  1.00  0.00     0.124 C
HETATM   16  C16 UNL     1      -1.136   1.217  80.883  1.00  0.00     0.052 C
HETATM   17  C15 UNL     1      -1.390   2.531  80.201  1.00  0.00     0.129 C
BRANCH  15  18
HETATM   18  O1  UNL     1       0.425  -0.383  81.542  1.00  0.00    -0.395 OA
ATOM     19  H1  UNL     1      -0.048  -1.133  81.200  1.00  0.00     0.210 HD
ENDBRANCH  15  18
ENDBRANCH  11  12
ENDBRANCH   1  11
TORSDOF 3
ENDMDL