MODEL 2
REMARK VINA RESULT: -6.606522837      1.539      4.885
REMARK  2 active torsions:
REMARK  status: ('A' for Active; 'I' for Inactive)
REMARK    1  A    between atoms: N1_4  and  C4_5
REMARK    2  A    between atoms: C9_13  and  C10_14
ROOT
HETATM    1  C1  UNL     1       0.869   5.685  84.743  1.00  0.00     0.004 C
HETATM    2  C2  UNL     1       0.831   5.888  83.269  1.00  0.00     0.030 C
HETATM    3  C3  UNL     1       0.463   4.554  82.618  1.00  0.00     0.273 C
HETATM    4  N1  UNL     1      -0.943   4.314  82.890  1.00  0.00     0.098 N
HETATM    5  C9  UNL     1      -1.220   4.487  84.259  1.00  0.00     0.228 C
HETATM    6  C16 UNL     1       0.034   4.441  85.091  1.00  0.00     0.036 C
ENDROOT
BRANCH   4   7
HETATM    7  C4  UNL     1      -1.407   3.093  82.288  1.00  0.00     0.226 C
HETATM    8  C5  UNL     1      -1.514   3.212  80.777  1.00  0.00     0.063 C
HETATM    9  C6  UNL     1      -0.869   2.066  80.040  1.00  0.00     0.234 C
HETATM   10  N2  UNL     1      -1.387   0.852  80.654  1.00  0.00    -0.075 N
HETATM   11  C7  UNL     1      -0.696   0.703  81.909  1.00  0.00     0.234 C
ATOM     12  H22 UNL     1      -2.402   0.849  80.748  1.00  0.00     0.277 HD
ATOM     13  H21 UNL     1      -1.313   0.032  80.052  1.00  0.00     0.277 HD
HETATM   14  C8  UNL     1      -0.323   2.045  82.511  1.00  0.00     0.063 C
ENDBRANCH   4   7
BRANCH   5  15
HETATM   15  C10 UNL     1      -2.417   3.866  84.859  1.00  0.00     0.023 C
HETATM   16  C11 UNL     1      -3.137   4.737  85.880  1.00  0.00     0.011 C
HETATM   17  C12 UNL     1      -3.107   3.790  87.055  1.00  0.00    -0.013 C
HETATM   18  C13 UNL     1      -1.715   3.216  87.009  1.00  0.00     0.010 C
HETATM   19  C15 UNL     1      -3.538   2.474  86.389  1.00  0.00     0.010 C
HETATM   20  C14 UNL     1      -2.187   2.642  85.667  1.00  0.00    -0.008 C
ENDBRANCH   5  15
TORSDOF 2
ENDMDL