MODEL 2
REMARK VINA RESULT: -6.666980137      2.055      4.722
REMARK  2 active torsions:
REMARK  status: ('A' for Active; 'I' for Inactive)
REMARK    1  A    between atoms: N2_14  and  C11_15
REMARK    2  A    between atoms: C11_15  and  C12_16
ROOT
HETATM    1  C1  UNL     1      -0.426   3.410  85.692  1.00  0.00     0.098 C
HETATM    2  C2  UNL     1      -0.217   4.334  84.913  1.00  0.00    -0.175 C
HETATM    3  C3  UNL     1       0.031   5.454  84.002  1.00  0.00     0.040 C
HETATM    4  C4  UNL     1       1.526   5.774  84.180  1.00  0.00     0.031 C
HETATM    5  C5  UNL     1      -0.697   6.640  84.605  1.00  0.00     0.254 C
HETATM    6  N1  UNL     1      -1.846   7.029  83.838  1.00  0.00    -0.073 N
ATOM      7  H11 UNL     1      -2.428   7.731  84.296  1.00  0.00     0.277 HD
ATOM      8  H12 UNL     1      -2.561   6.306  83.772  1.00  0.00     0.277 HD
HETATM    9  C6  UNL     1      -1.317   7.455  82.548  1.00  0.00     0.233 C
HETATM   10  C7  UNL     1      -0.910   6.237  81.795  1.00  0.00     0.040 C
HETATM   11  C8  UNL     1      -0.302   5.140  82.600  1.00  0.00    -0.002 C
HETATM   12  C9  UNL     1       0.979   4.718  81.912  1.00  0.00     0.033 C
HETATM   13  C10 UNL     1       0.458   3.958  80.681  1.00  0.00     0.122 C
HETATM   14  N2  UNL     1      -0.685   3.338  81.149  1.00  0.00    -0.392 N
HETATM   15  C16 UNL     1      -1.134   3.897  82.376  1.00  0.00     0.133 C
ENDROOT
BRANCH  14  16
HETATM   16  C11 UNL     1      -1.501   2.496  80.417  1.00  0.00     0.062 C
BRANCH  16  17
HETATM   17  C12 UNL     1      -1.117   1.047  80.549  1.00  0.00     0.024 C
HETATM   18  C13 UNL     1      -0.595   0.556  81.845  1.00  0.00     0.010 C
HETATM   19  C14 UNL     1       0.379  -0.326  81.051  1.00  0.00     0.001 C
HETATM   20  C15 UNL     1       0.245   0.724  79.939  1.00  0.00     0.010 C
ENDBRANCH  16  17
ENDBRANCH  14  16
TORSDOF 2
ENDMDL