MODEL 1
REMARK VINA RESULT: -5.891516333      0.000      0.000
REMARK  4 active torsions:
REMARK  status: ('A' for Active; 'I' for Inactive)
REMARK    1  A    between atoms: C5_6  and  C6_7
REMARK    2  A    between atoms: C5_6  and  C11_13
REMARK    3  A    between atoms: C6_7  and  N2_8
REMARK    4  A    between atoms: C11_13  and  O1_14
ROOT
HETATM    1  C1  UNL     1       9.798   0.784  76.322  1.00  0.00     0.154 C
HETATM    2  N1  UNL     1       9.406  -0.185  75.377  1.00  0.00    -0.377 N
HETATM    3  C2  UNL     1       8.192   0.062  74.755  1.00  0.00     0.062 C
HETATM    4  C3  UNL     1       7.752  -0.960  73.760  1.00  0.00     0.046 C
HETATM    5  C4  UNL     1       7.970  -2.314  74.423  1.00  0.00     0.025 C
HETATM    6  C5  UNL     1       9.412  -2.586  74.699  1.00  0.00     0.049 C
HETATM    7  C16 UNL     1      10.051  -1.411  75.390  1.00  0.00     0.077 C
ENDROOT
BRANCH   6   8
HETATM    8  C6  UNL     1       9.590  -3.786  75.549  1.00  0.00     0.290 C
BRANCH   8   9
HETATM    9  N2  UNL     1       8.502  -4.781  75.583  1.00  0.00     0.089 N
HETATM   10  C7  UNL     1       8.016  -4.819  76.970  1.00  0.00     0.272 C
HETATM   11  C8  UNL     1       7.908  -6.224  77.414  1.00  0.00     0.032 C
HETATM   12  C9  UNL     1       8.746  -7.018  76.483  1.00  0.00     0.032 C
HETATM   13  C10 UNL     1       9.019  -6.119  75.337  1.00  0.00     0.272 C
ENDBRANCH   8   9
ENDBRANCH   6   8
BRANCH   6  14
HETATM   14  C11 UNL     1      10.113  -2.901  73.380  1.00  0.00     0.072 C
HETATM   15  C12 UNL     1      11.212  -3.930  73.470  1.00  0.00     0.039 C
HETATM   16  C13 UNL     1      12.538  -3.220  73.428  1.00  0.00     0.003 C
HETATM   17  C14 UNL     1      12.217  -2.115  72.447  1.00  0.00     0.003 C
HETATM   18  C15 UNL     1      10.719  -1.833  72.624  1.00  0.00     0.039 C
BRANCH  14  19
HETATM   19  O1  UNL     1       9.108  -3.576  72.628  1.00  0.00    -0.389 OA
ATOM     20  H1  UNL     1       9.468  -3.595  71.749  1.00  0.00     0.210 HD
ENDBRANCH  14  19
ENDBRANCH   6  14
TORSDOF 4
ENDMDL