MODEL 4
REMARK VINA RESULT: -6.003618730      1.309      2.262
REMARK  4 active torsions:
REMARK  status: ('A' for Active; 'I' for Inactive)
REMARK    1  A    between atoms: C2_2  and  O1_3
REMARK    2  A    between atoms: O1_3  and  C3_4
REMARK    3  A    between atoms: C3_4  and  C4_5
REMARK       I    between atoms: C4_5  and  N1_7
REMARK    4  A    between atoms: N1_7  and  C5_9
ROOT
HETATM    1  C5  UNL     1       8.902  -3.517  75.582  1.00  0.00     0.237 A
HETATM    2  C6  UNL     1       9.397  -2.650  76.689  1.00  0.00     0.071 C
HETATM    3  C7  UNL     1      10.064  -1.508  75.913  1.00  0.00     0.019 C
HETATM    4  C8  UNL     1      10.530  -2.129  74.653  1.00  0.00     0.281 C
HETATM    5  N2  UNL     1       9.516  -3.101  74.367  1.00  0.00     0.122 N
HETATM    6  C9  UNL     1       8.297  -2.543  73.882  1.00  0.00     0.231 A
HETATM    7  C10 UNL     1       8.300  -1.114  73.509  1.00  0.00     0.044 C
HETATM    8  C11 UNL     1       8.540  -0.078  74.488  1.00  0.00    -0.045 C
HETATM    9  C12 UNL     1       7.216   0.667  74.775  1.00  0.00     0.015 C
HETATM   10  C13 UNL     1       9.414   1.020  73.848  1.00  0.00     0.015 C
HETATM   11  C14 UNL     1       9.118  -0.393  75.804  1.00  0.00     0.015 C
HETATM   12  C15 UNL     1       7.569  -3.019  75.066  1.00  0.00     0.100 A
ENDROOT
BRANCH   1  13
HETATM   13  N1  UNL     1       8.927  -4.908  75.930  1.00  0.00    -0.324 N
HETATM   14  C4  UNL     1       8.135  -5.501  76.921  1.00  0.00     0.243 C
HETATM   15  O2  UNL     1       7.337  -4.791  77.564  1.00  0.00    -0.271 OA
ATOM     16  H1  UNL     1       9.571  -5.511  75.417  1.00  0.00     0.165 HD
BRANCH  14  17
HETATM   17  C3  UNL     1       8.240  -6.942  77.201  1.00  0.00     0.270 C
BRANCH  17  18
HETATM   18  O1  UNL     1       9.420  -7.553  76.910  1.00  0.00    -0.382 OA
BRANCH  18  19
HETATM   19  C2  UNL     1       9.300  -8.849  76.521  1.00  0.00     0.163 C
HETATM   20  C1  UNL     1       8.681  -8.913  75.125  1.00  0.00     0.033 C
ENDBRANCH  18  19
ENDBRANCH  17  18
ENDBRANCH  14  17
ENDBRANCH   1  13
TORSDOF 4
ENDMDL