MODEL 1
REMARK VINA RESULT: -6.686537146      0.000      0.000
REMARK  3 active torsions:
REMARK  status: ('A' for Active; 'I' for Inactive)
REMARK    1  A    between atoms: N2_5  and  N3_6
REMARK       I    between atoms: N3_6  and  C4_8
REMARK    2  A    between atoms: C4_8  and  C5_10
REMARK    3  A    between atoms: C5_10  and  C6_11
ROOT
HETATM    1  N3  UNL     1       7.751  -1.617  75.364  1.00  0.00    -0.289 N
ATOM      2  H3  UNL     1       6.903  -1.897  74.870  1.00  0.00     0.183 HD
HETATM    3  C4  UNL     1       8.375  -2.578  76.182  1.00  0.00     0.232 C
HETATM    4  O1  UNL     1       9.408  -2.249  76.787  1.00  0.00    -0.272 OA
ENDROOT
BRANCH   3   5
HETATM    5  C5  UNL     1       7.817  -3.906  76.308  1.00  0.00     0.108 C
BRANCH   5   6
HETATM    6  C6  UNL     1       8.811  -5.015  76.496  1.00  0.00    -0.006 C
HETATM    7  C7  UNL     1       8.254  -6.254  77.091  1.00  0.00     0.005 C
HETATM    8  C8  UNL     1       8.631  -7.527  76.419  1.00  0.00     0.000 C
HETATM    9  C9  UNL     1      10.087  -7.827  76.377  1.00  0.00     0.000 C
HETATM   10  C10 UNL     1      10.985  -6.650  76.577  1.00  0.00     0.000 C
HETATM   11  C11 UNL     1      10.914  -5.671  75.413  1.00  0.00     0.000 C
HETATM   12  C12 UNL     1       9.494  -5.250  75.158  1.00  0.00     0.005 C
ENDBRANCH   5   6
ENDBRANCH   3   5
BRANCH   1  13
HETATM   13  N2  UNL     1       8.203  -0.318  75.178  1.00  0.00    -0.226 NA
HETATM   14  C3  UNL     1       9.413  -0.166  74.474  1.00  0.00     0.144 C
HETATM   15  C2  UNL     1       9.706   1.167  73.910  1.00  0.00     0.288 C
HETATM   16  N1  UNL     1       8.620   2.071  73.765  1.00  0.00     0.086 N
HETATM   17  C1  UNL     1       9.117   3.435  73.809  1.00  0.00     0.310 C
HETATM   18  C14 UNL     1       7.631   1.974  74.841  1.00  0.00     0.288 C
HETATM   19  C13 UNL     1       7.134   0.540  74.807  1.00  0.00     0.144 C
ENDBRANCH   1  13
TORSDOF 3
ENDMDL