MODEL 1
REMARK VINA RESULT: -5.927692123      0.000      0.000
REMARK  4 active torsions:
REMARK  status: ('A' for Active; 'I' for Inactive)
REMARK    1  A    between atoms: O1_1  and  C1_3
REMARK    2  A    between atoms: C1_3  and  C2_4
REMARK    3  A    between atoms: C2_4  and  N1_5
REMARK    4  A    between atoms: N2_8  and  C5_9
ROOT
HETATM    1  N1  UNL     1       8.811  -3.373  75.218  1.00  0.00     0.099 N
HETATM    2  C3  UNL     1      10.020  -2.641  75.470  1.00  0.00     0.317 C
HETATM    3  C4  UNL     1       9.942  -1.211  75.766  1.00  0.00     0.094 C
HETATM    4  N2  UNL     1       8.852  -0.482  75.324  1.00  0.00    -0.361 N
HETATM    5  C15 UNL     1       7.684  -1.177  75.068  1.00  0.00     0.094 C
HETATM    6  C16 UNL     1       7.974  -2.507  74.400  1.00  0.00     0.317 C
ENDROOT
BRANCH   4   7
HETATM    7  C5  UNL     1       8.972   0.898  75.099  1.00  0.00     0.036 C
HETATM    8  C6  UNL     1       9.342   1.688  76.370  1.00  0.00     0.036 C
HETATM    9  C7  UNL     1       9.379   3.154  76.047  1.00  0.00    -0.012 C
HETATM   10  C8  UNL     1       8.027   3.676  75.607  1.00  0.00     0.009 C
HETATM   11  C12 UNL     1      10.345   3.509  74.936  1.00  0.00     0.009 C
HETATM   12  C9  UNL     1       7.625   2.906  74.383  1.00  0.00    -0.012 C
HETATM   13  C10 UNL     1       8.562   3.090  73.218  1.00  0.00     0.009 C
HETATM   14  C14 UNL     1       7.579   1.446  74.749  1.00  0.00     0.036 C
HETATM   15  C11 UNL     1       9.938   2.743  73.694  1.00  0.00    -0.012 C
HETATM   16  C13 UNL     1      10.000   1.253  74.071  1.00  0.00     0.036 C
ENDBRANCH   4   7
BRANCH   1  17
HETATM   17  C2  UNL     1       8.154  -3.818  76.435  1.00  0.00     0.299 C
BRANCH  17  18
HETATM   18  C1  UNL     1       8.475  -5.209  76.857  1.00  0.00     0.194 C
BRANCH  18  19
HETATM   19  O1  UNL     1       9.491  -5.398  77.732  1.00  0.00    -0.399 OA
ATOM     20  H1  UNL     1       9.486  -6.183  78.267  1.00  0.00     0.209 HD
ENDBRANCH  18  19
ENDBRANCH  17  18
ENDBRANCH   1  17
TORSDOF 4
ENDMDL