MODEL 2
REMARK VINA RESULT: -4.965699165      0.916      1.144
REMARK  6 active torsions:
REMARK  status: ('A' for Active; 'I' for Inactive)
REMARK    1  A    between atoms: C2_2  and  S1_5
REMARK    2  A    between atoms: S1_5  and  C5_6
REMARK    3  A    between atoms: C5_6  and  C6_7
REMARK    4  A    between atoms: C6_7  and  N1_8
REMARK    5  A    between atoms: N1_8  and  C7_10
REMARK    6  A    between atoms: C7_10  and  N2_12
ROOT
HETATM    1  N1  UNL     1       9.042  -3.720  73.328  1.00  0.00    -0.366 N
ATOM      2  H1  UNL     1       8.521  -4.352  72.721  1.00  0.00     0.161 HD
ENDROOT
BRANCH   1   3
HETATM    3  C6  UNL     1       8.894  -2.341  73.025  1.00  0.00     0.132 C
BRANCH   3   4
HETATM    4  C5  UNL     1       7.926  -1.736  74.056  1.00  0.00     0.094 C
BRANCH   4   5
HETATM    5  S1  UNL     1       8.781  -0.734  75.242  1.00  0.00    -0.159 SA
BRANCH   5   6
HETATM    6  C2  UNL     1       8.805   1.014  75.037  1.00  0.00    -0.003 C
HETATM    7  C1  UNL     1       7.356   1.487  74.770  1.00  0.00     0.026 C
HETATM    8  C3  UNL     1       9.566   1.516  73.814  1.00  0.00     0.026 C
HETATM    9  C4  UNL     1       9.307   1.696  76.290  1.00  0.00     0.026 C
ENDBRANCH   5   6
ENDBRANCH   4   5
ENDBRANCH   3   4
ENDBRANCH   1   3
BRANCH   1  10
HETATM   10  C7  UNL     1       9.796  -4.348  74.335  1.00  0.00     0.169 C
HETATM   11  S2  UNL     1      11.422  -4.319  74.217  1.00  0.00    -0.041 SA
BRANCH  10  12
HETATM   12  N2  UNL     1       9.194  -4.993  75.449  1.00  0.00    -0.354 N
HETATM   13  C8  UNL     1       8.827  -4.340  76.685  1.00  0.00     0.151 C
HETATM   14  C9  UNL     1       7.655  -5.148  77.254  1.00  0.00     0.187 C
HETATM   15  O1  UNL     1       7.998  -6.422  77.600  1.00  0.00    -0.388 OA
HETATM   16  C10 UNL     1       8.916  -7.020  76.784  1.00  0.00     0.187 C
HETATM   17  C11 UNL     1       8.948  -6.430  75.389  1.00  0.00     0.151 C
ENDBRANCH  10  12
ENDBRANCH   1  10
TORSDOF 6
ENDMDL