MODEL 5
REMARK VINA RESULT: -5.158017645      9.268     10.907
REMARK  4 active torsions:
REMARK  status: ('A' for Active; 'I' for Inactive)
REMARK    1  A    between atoms: C8_8  and  N1_9
REMARK    2  A    between atoms: N2_12  and  C11_13
REMARK    3  A    between atoms: C11_13  and  C12_14
REMARK    4  A    between atoms: C12_14  and  O1_15
ROOT
HETATM    1  N1  UNL     1      16.433  -1.215  80.683  1.00  0.00    -0.404 N
HETATM    2  C9  UNL     1      16.006   0.049  80.222  1.00  0.00     0.147 C
HETATM    3  C10 UNL     1      15.804   0.973  81.406  1.00  0.00     0.291 C
HETATM    4  N2  UNL     1      14.637   0.471  82.102  1.00  0.00     0.093 N
HETATM    5  C13 UNL     1      14.750  -0.926  82.426  1.00  0.00     0.291 C
HETATM    6  C14 UNL     1      16.130  -1.483  82.047  1.00  0.00     0.147 C
ENDROOT
BRANCH   1   7
HETATM    7  C8  UNL     1      17.467  -1.884  80.067  1.00  0.00     0.088 C
HETATM    8  C6  UNL     1      17.374  -2.436  78.700  1.00  0.00    -0.020 C
HETATM    9  C2  UNL     1      18.788  -3.078  78.602  1.00  0.00    -0.004 C
HETATM   10  C5  UNL     1      17.559  -1.389  77.611  1.00  0.00     0.012 C
HETATM   11  C7  UNL     1      16.326  -3.423  78.384  1.00  0.00     0.018 C
HETATM   12  C1  UNL     1      19.033  -4.104  79.635  1.00  0.00     0.011 C
HETATM   13  C3  UNL     1      19.520  -1.763  78.880  1.00  0.00    -0.008 C
HETATM   14  C4  UNL     1      19.008  -0.958  77.682  1.00  0.00     0.006 C
HETATM   15  C15 UNL     1      18.825  -1.236  80.091  1.00  0.00     0.030 C
ENDBRANCH   1   7
BRANCH   4  16
HETATM   16  C11 UNL     1      14.187   1.324  83.142  1.00  0.00     0.298 C
BRANCH  16  17
HETATM   17  C12 UNL     1      13.882   0.606  84.432  1.00  0.00     0.194 C
BRANCH  17  18
HETATM   18  O1  UNL     1      14.616   1.198  85.480  1.00  0.00    -0.399 OA
ATOM     19  H1  UNL     1      15.179   0.545  85.877  1.00  0.00     0.209 HD
ENDBRANCH  17  18
ENDBRANCH  16  17
ENDBRANCH   4  16
TORSDOF 4
ENDMDL