MODEL 3
REMARK VINA RESULT: -5.005710277      2.250      5.780
REMARK  6 active torsions:
REMARK  status: ('A' for Active; 'I' for Inactive)
REMARK    1  A    between atoms: C2_2  and  C4_4
REMARK    2  A    between atoms: C5_6  and  C6_7
REMARK    3  A    between atoms: C6_7  and  C7_8
REMARK    4  A    between atoms: C7_8  and  O1_9
REMARK    5  A    between atoms: C8_11  and  N2_17
REMARK    6  A    between atoms: C10_13  and  C11_14
ROOT
HETATM    1  C4  UNL     1       9.380  -5.328  75.486  1.00  0.00     0.063 C
HETATM    2  N1  UNL     1      10.603  -4.762  75.397  1.00  0.00    -0.381 N
HETATM    3  C5  UNL     1      11.871  -5.241  75.633  1.00  0.00     0.119 C
HETATM    4  C8  UNL     1      12.728  -4.334  74.703  1.00  0.00     0.248 C
HETATM    5  C9  UNL     1      11.689  -4.354  73.580  1.00  0.00     0.063 C
HETATM    6  C10 UNL     1      10.636  -3.669  74.393  1.00  0.00     0.092 C
ENDROOT
BRANCH   1   7
HETATM    7  C2  UNL     1       8.803  -5.641  76.833  1.00  0.00     0.016 C
HETATM    8  C1  UNL     1       8.440  -7.061  77.070  1.00  0.00     0.015 C
HETATM    9  C3  UNL     1       7.565  -4.768  77.105  1.00  0.00     0.015 C
ENDBRANCH   1   7
BRANCH   3  10
HETATM   10  C6  UNL     1      12.287  -6.636  75.274  1.00  0.00     0.053 C
BRANCH  10  11
HETATM   11  C7  UNL     1      12.177  -7.503  76.522  1.00  0.00     0.166 C
BRANCH  11  12
HETATM   12  O1  UNL     1      12.923  -6.950  77.571  1.00  0.00    -0.401 OA
ATOM     13  H1  UNL     1      12.364  -6.443  78.147  1.00  0.00     0.209 HD
ENDBRANCH  11  12
ENDBRANCH  10  11
ENDBRANCH   3  10
BRANCH   6  14
HETATM   14  C11 UNL     1      11.033  -2.388  75.042  1.00  0.00     0.048 C
HETATM   15  C12 UNL     1      11.966  -1.529  74.183  1.00  0.00     0.039 C
HETATM   16  C13 UNL     1      11.025  -0.644  73.416  1.00  0.00     0.274 C
HETATM   17  N2  UNL     1       9.746  -1.288  73.665  1.00  0.00     0.104 N
HETATM   18  C14 UNL     1       9.870  -1.391  75.124  1.00  0.00     0.159 C
HETATM   19  C15 UNL     1      10.289  -0.094  75.748  1.00  0.00     0.049 C
HETATM   20  C16 UNL     1       8.683  -1.805  75.874  1.00  0.00     0.049 C
ENDBRANCH   6  14
TORSDOF 6
ENDMDL