MODEL 5
REMARK VINA RESULT: -5.695264444      1.116      1.426
REMARK  5 active torsions:
REMARK  status: ('A' for Active; 'I' for Inactive)
REMARK    1  A    between atoms: N2_8  and  C7_9
REMARK    2  A    between atoms: C7_9  and  C8_10
REMARK    3  A    between atoms: C8_10  and  C9_11
REMARK    4  A    between atoms: C9_11  and  O1_13
REMARK    5  A    between atoms: C9_11  and  C11_15
ROOT
HETATM    1  C7  UNL     1       7.772  -3.578  75.689  1.00  0.00     0.122 C
ENDROOT
BRANCH   1   2
HETATM    2  N2  UNL     1       8.154  -2.221  75.595  1.00  0.00    -0.392 N
HETATM    3  C6  UNL     1       8.037  -1.635  74.291  1.00  0.00     0.176 C
HETATM    4  N1  UNL     1       9.238  -1.623  73.523  1.00  0.00    -0.396 N
HETATM    5  C5  UNL     1       7.709  -0.154  74.554  1.00  0.00     0.047 C
HETATM    6  C1  UNL     1       9.389  -2.666  72.583  1.00  0.00     0.145 C
HETATM    7  C2  UNL     1      10.411  -1.242  74.232  1.00  0.00     0.124 C
HETATM    8  C3  UNL     1       9.953  -0.663  75.559  1.00  0.00     0.021 C
HETATM    9  C4  UNL     1       8.901   0.397  75.308  1.00  0.00     0.011 C
HETATM   10  C15 UNL     1       9.311  -1.829  76.320  1.00  0.00     0.125 C
ENDBRANCH   1   2
BRANCH   1  11
HETATM   11  C8  UNL     1       8.817  -4.381  76.398  1.00  0.00     0.057 C
BRANCH  11  12
HETATM   12  C9  UNL     1       9.414  -5.440  75.484  1.00  0.00     0.062 C
HETATM   13  C10 UNL     1      10.843  -5.084  75.234  1.00  0.00     0.046 C
BRANCH  12  14
HETATM   14  O1  UNL     1       8.675  -5.415  74.303  1.00  0.00    -0.389 OA
ATOM     15  H1  UNL     1       8.011  -4.744  74.410  1.00  0.00     0.210 HD
ENDBRANCH  12  14
BRANCH  12  16
HETATM   16  C11 UNL     1       9.257  -6.818  76.092  1.00  0.00    -0.021 C
HETATM   17  C12 UNL     1       8.714  -7.796  75.089  1.00  0.00     0.017 C
HETATM   18  C13 UNL     1      10.587  -7.357  76.586  1.00  0.00     0.017 C
HETATM   19  C14 UNL     1       8.327  -6.777  77.281  1.00  0.00     0.017 C
ENDBRANCH  12  16
ENDBRANCH  11  12
ENDBRANCH   1  11
TORSDOF 5
ENDMDL