MODEL 3
REMARK VINA RESULT: -5.291861420      2.588      5.707
REMARK  5 active torsions:
REMARK  status: ('A' for Active; 'I' for Inactive)
REMARK    1  A    between atoms: C2_2  and  C3_3
REMARK    2  A    between atoms: C3_3  and  C4_4
REMARK    3  A    between atoms: C4_4  and  O1_5
REMARK    4  A    between atoms: O1_5  and  C5_6
REMARK    5  A    between atoms: C5_6  and  N1_8
REMARK       I    between atoms: N2_13  and  C9_14
ROOT
HETATM    1  C4  UNL     1       9.418  -3.486  75.306  1.00  0.00     0.073 C
HETATM    2  C7  UNL     1       9.015  -2.740  74.062  1.00  0.00     0.058 C
HETATM    3  C8  UNL     1       7.967  -1.677  74.311  1.00  0.00     0.129 C
HETATM    4  N2  UNL     1       8.543  -0.686  75.218  1.00  0.00    -0.352 N
HETATM    5  C9  UNL     1       8.132   0.652  75.261  1.00  0.00     0.215 C
HETATM    6  C10 UNL     1       7.066   1.206  74.389  1.00  0.00     0.117 C
HETATM    7  O2  UNL     1       8.680   1.440  76.072  1.00  0.00    -0.274 OA
HETATM    8  C11 UNL     1       9.589  -1.185  76.088  1.00  0.00     0.129 C
HETATM    9  C12 UNL     1       9.164  -2.596  76.501  1.00  0.00     0.058 C
ENDROOT
BRANCH   1  10
HETATM   10  C3  UNL     1       8.734  -4.807  75.457  1.00  0.00     0.038 C
BRANCH  10  11
HETATM   11  C2  UNL     1       8.020  -5.034  76.750  1.00  0.00    -0.002 C
HETATM   12  C1  UNL     1       8.283  -6.508  77.103  1.00  0.00     0.005 C
ENDBRANCH  10  11
ENDBRANCH   1  10
BRANCH   1  13
HETATM   13  O1  UNL     1      10.805  -3.732  75.238  1.00  0.00    -0.316 OA
BRANCH  13  14
HETATM   14  C5  UNL     1      11.560  -3.569  74.101  1.00  0.00     0.210 C
HETATM   15  S1  UNL     1      12.480  -2.229  73.843  1.00  0.00    -0.033 SA
BRANCH  14  16
HETATM   16  N1  UNL     1      11.592  -4.549  73.076  1.00  0.00    -0.366 N
HETATM   17  C6  UNL     1      12.588  -4.596  72.039  1.00  0.00     0.149 C
ATOM     18  H1  UNL     1      10.865  -5.263  73.073  1.00  0.00     0.161 HD
ENDBRANCH  14  16
ENDBRANCH  13  14
ENDBRANCH   1  13
TORSDOF 5
ENDMDL