MODEL 2
REMARK VINA RESULT: -5.459789964      1.328      5.240
REMARK  4 active torsions:
REMARK  status: ('A' for Active; 'I' for Inactive)
REMARK    1  A    between atoms: C2_2  and  C3_3
REMARK    2  A    between atoms: C3_3  and  N1_4
REMARK    3  A    between atoms: C7_8  and  C8_9
REMARK    4  A    between atoms: C7_8  and  N3_16
ROOT
HETATM    1  N1  UNL     1      11.263  -2.419  73.508  1.00  0.00    -0.391 N
HETATM    2  C4  UNL     1      10.527  -3.322  72.758  1.00  0.00     0.122 C
HETATM    3  C5  UNL     1       9.119  -2.727  72.642  1.00  0.00     0.022 C
HETATM    4  C6  UNL     1       8.543  -2.677  74.007  1.00  0.00     0.036 C
HETATM    5  C7  UNL     1       9.382  -2.050  75.069  1.00  0.00     0.072 C
HETATM    6  C16 UNL     1      10.869  -2.254  74.879  1.00  0.00     0.154 C
ENDROOT
BRANCH   5   7
HETATM    7  C8  UNL     1       9.038  -2.806  76.361  1.00  0.00     0.215 C
HETATM    8  C9  UNL     1       7.604  -2.771  76.725  1.00  0.00     0.037 C
HETATM    9  C10 UNL     1       7.225  -4.198  77.097  1.00  0.00     0.029 C
HETATM   10  C11 UNL     1       8.480  -4.996  76.944  1.00  0.00     0.233 C
HETATM   11  N2  UNL     1       9.466  -4.174  76.323  1.00  0.00    -0.069 N
ATOM     12  H22 UNL     1       9.686  -4.483  75.376  1.00  0.00     0.277 HD
ATOM     13  H21 UNL     1      10.390  -4.300  76.735  1.00  0.00     0.277 HD
ENDBRANCH   5   7
BRANCH   5  14
HETATM   14  N3  UNL     1       9.146  -0.683  75.211  1.00  0.00    -0.400 N
HETATM   15  C12 UNL     1       8.104  -0.069  74.524  1.00  0.00     0.118 C
HETATM   16  C13 UNL     1       8.507   1.411  74.532  1.00  0.00     0.021 C
HETATM   17  C14 UNL     1       9.200   1.507  75.880  1.00  0.00     0.021 C
HETATM   18  C15 UNL     1       9.981   0.181  75.880  1.00  0.00     0.118 C
ENDBRANCH   5  14
BRANCH   1  19
HETATM   19  C3  UNL     1      12.090  -1.431  72.982  1.00  0.00     0.058 C
BRANCH  19  20
HETATM   20  C2  UNL     1      11.504  -0.103  72.617  1.00  0.00     0.040 C
HETATM   21  C1  UNL     1      12.228   1.107  73.115  1.00  0.00     0.010 C
ENDBRANCH  19  20
ENDBRANCH   1  19
TORSDOF 4
ENDMDL