MODEL 2
REMARK VINA RESULT: -6.797096433      1.848      2.747
REMARK  2 active torsions:
REMARK  status: ('A' for Active; 'I' for Inactive)
REMARK       I    between atoms: C1_2  and  N1_3
REMARK    1  A    between atoms: C1_2  and  C7_13
REMARK    2  A    between atoms: N1_3  and  N2_5
ROOT
HETATM    1  O1  UNL     1      -0.813   3.245  82.664  1.00  0.00    -0.271 OA
HETATM    2  C1  UNL     1      -0.270   3.843  83.622  1.00  0.00     0.244 C
HETATM    3  N1  UNL     1      -0.035   3.177  84.856  1.00  0.00    -0.270 N
ATOM      4  H1  UNL     1       0.408   3.673  85.630  1.00  0.00     0.190 HD
ENDROOT
BRANCH   2   5
HETATM    5  C7  UNL     1       0.123   5.264  83.433  1.00  0.00     0.043 C
HETATM    6  C8  UNL     1      -0.405   6.076  84.582  1.00  0.00     0.024 C
HETATM    7  C9  UNL     1       0.041   7.526  84.431  1.00  0.00    -0.013 C
HETATM    8  C10 UNL     1      -0.499   8.058  83.130  1.00  0.00     0.009 C
HETATM    9  C14 UNL     1       1.554   7.512  84.448  1.00  0.00     0.009 C
HETATM   10  C11 UNL     1       0.071   7.237  82.002  1.00  0.00    -0.013 C
HETATM   11  C12 UNL     1       1.580   7.343  82.004  1.00  0.00     0.009 C
HETATM   12  C16 UNL     1      -0.400   5.826  82.151  1.00  0.00     0.024 C
HETATM   13  C13 UNL     1       2.101   6.744  83.280  1.00  0.00    -0.013 C
HETATM   14  C15 UNL     1       1.642   5.305  83.365  1.00  0.00     0.024 C
ENDBRANCH   2   5
BRANCH   3  15
HETATM   15  N2  UNL     1      -0.415   1.841  85.003  1.00  0.00    -0.306 N
HETATM   16  C2  UNL     1      -1.523   1.500  85.532  1.00  0.00     0.013 C
HETATM   17  C3  UNL     1      -1.860   0.067  85.656  1.00  0.00     0.056 C
HETATM   18  C6  UNL     1      -2.484   2.507  86.030  1.00  0.00     0.127 C
HETATM   19  C4  UNL     1      -2.425  -0.123  87.068  1.00  0.00     0.016 C
HETATM   20  C5  UNL     1      -3.915   0.134  86.972  1.00  0.00     0.074 C
HETATM   21  S1  UNL     1      -4.133   1.785  86.252  1.00  0.00    -0.163 SA
ATOM     22  H2  UNL     1       0.218   1.112  84.675  1.00  0.00     0.186 HD
ENDBRANCH   3  15
TORSDOF 2
ENDMDL