MODEL 1
REMARK VINA RESULT: -7.490421943      0.000      0.000
REMARK  3 active torsions:
REMARK  status: ('A' for Active; 'I' for Inactive)
REMARK    1  A    between atoms: O1_1  and  C1_3
REMARK    2  A    between atoms: C1_3  and  C2_4
REMARK    3  A    between atoms: C2_4  and  N1_5
ROOT
HETATM    1  C1  UNL     1      -0.561   4.079  83.933  1.00  0.00     0.085 C
HETATM    2  C9  UNL     1      -1.318   5.230  84.586  1.00  0.00     0.044 C
HETATM    3  C10 UNL     1      -0.847   6.577  84.180  1.00  0.00    -0.011 C
HETATM    4  C11 UNL     1      -0.599   6.639  82.714  1.00  0.00     0.010 C
HETATM    5  C12 UNL     1       0.791   6.223  82.405  1.00  0.00    -0.009 C
HETATM    6  C13 UNL     1       1.676   7.425  82.814  1.00  0.00     0.010 C
HETATM    7  C14 UNL     1       1.644   6.791  84.211  1.00  0.00    -0.009 C
HETATM    8  C15 UNL     1       0.365   7.060  84.927  1.00  0.00     0.010 C
HETATM    9  C16 UNL     1       1.512   5.472  83.442  1.00  0.00    -0.004 C
HETATM   10  C17 UNL     1       0.903   4.379  84.146  1.00  0.00     0.045 C
ENDROOT
BRANCH   1  11
HETATM   11  O1  UNL     1      -0.913   3.856  82.657  1.00  0.00    -0.388 OA
ATOM     12  H1  UNL     1      -1.688   3.312  82.593  1.00  0.00     0.210 HD
ENDBRANCH   1  11
BRANCH   1  13
HETATM   13  C2  UNL     1      -0.848   2.884  84.814  1.00  0.00     0.312 C
BRANCH  13  14
HETATM   14  N1  UNL     1      -1.989   2.117  84.499  1.00  0.00     0.127 N
HETATM   15  C3  UNL     1      -1.420   0.788  84.063  1.00  0.00     0.305 C
HETATM   16  C4  UNL     1      -1.223   0.008  85.329  1.00  0.00     0.305 C
HETATM   17  N2  UNL     1      -1.829   0.821  86.318  1.00  0.00     0.124 N
HETATM   18  C5  UNL     1      -2.722   0.130  87.210  1.00  0.00     0.275 C
HETATM   19  C8  UNL     1      -2.773   1.595  85.521  1.00  0.00     0.456 C
HETATM   20  C6  UNL     1      -3.864   1.093  87.433  1.00  0.00     0.034 C
HETATM   21  C7  UNL     1      -3.443   2.346  86.578  1.00  0.00     0.070 C
ENDBRANCH  13  14
ENDBRANCH   1  13
TORSDOF 3
ENDMDL