MODEL 1
REMARK VINA RESULT: -7.495395839      0.000      0.000
REMARK  2 active torsions:
REMARK  status: ('A' for Active; 'I' for Inactive)
REMARK    1  A    between atoms: C6_6  and  C7_7
REMARK       I    between atoms: C7_7  and  N1_9
REMARK    2  A    between atoms: N1_9  and  N2_11
ROOT
HETATM    1  C1  UNL     1      -0.460   8.423  81.232  1.00  0.00     0.015 C
HETATM    2  C2  UNL     1      -0.109   7.557  82.423  1.00  0.00    -0.038 C
HETATM    3  C3  UNL     1      -0.378   8.277  83.711  1.00  0.00     0.041 C
HETATM    4  C4  UNL     1       0.124   7.390  84.849  1.00  0.00     0.123 C
HETATM    5  C5  UNL     1      -0.755   6.183  84.886  1.00  0.00     0.051 C
HETATM    6  C6  UNL     1      -0.536   5.419  83.574  1.00  0.00     0.047 C
HETATM    7  C13 UNL     1       0.959   5.095  83.566  1.00  0.00     0.051 C
HETATM    8  C14 UNL     1       1.721   6.384  83.514  1.00  0.00     0.123 C
HETATM    9  C15 UNL     1       1.368   7.196  82.277  1.00  0.00     0.041 C
HETATM   10  O2  UNL     1       1.461   7.099  84.677  1.00  0.00    -0.381 OA
HETATM   11  C16 UNL     1      -0.886   6.269  82.395  1.00  0.00     0.028 C
ENDROOT
BRANCH   6  12
HETATM   12  C7  UNL     1      -1.357   4.197  83.662  1.00  0.00     0.241 C
HETATM   13  O1  UNL     1      -2.025   3.872  82.640  1.00  0.00    -0.271 OA
HETATM   14  N1  UNL     1      -1.372   3.443  84.855  1.00  0.00    -0.289 N
ATOM     15  H1  UNL     1      -0.800   3.774  85.631  1.00  0.00     0.184 HD
BRANCH  14  16
HETATM   16  N2  UNL     1      -2.111   2.280  85.048  1.00  0.00    -0.229 NA
HETATM   17  C8  UNL     1      -3.302   2.589  85.772  1.00  0.00     0.113 C
HETATM   18  C9  UNL     1      -3.451   1.848  87.074  1.00  0.00     0.016 C
HETATM   19  C10 UNL     1      -3.270   0.359  86.876  1.00  0.00     0.002 C
HETATM   20  C11 UNL     1      -2.011   0.069  86.126  1.00  0.00     0.016 C
HETATM   21  C12 UNL     1      -1.281   1.289  85.630  1.00  0.00     0.113 C
ENDBRANCH  14  16
ENDBRANCH   6  12
TORSDOF 2
ENDMDL