MODEL 4
REMARK VINA RESULT: -6.072692144      1.968      6.230
REMARK  3 active torsions:
REMARK  status: ('A' for Active; 'I' for Inactive)
REMARK    1  A    between atoms: N1_6  and  C6_7
REMARK    2  A    between atoms: C6_7  and  C7_8
REMARK    3  A    between atoms: C7_8  and  O1_9
ROOT
HETATM    1  C7  UNL     1      -0.753   3.312  83.369  1.00  0.00     0.097 C
HETATM    2  C8  UNL     1      -1.174   1.868  83.516  1.00  0.00     0.079 C
HETATM    3  C9  UNL     1      -1.513   1.680  84.998  1.00  0.00     0.226 C
HETATM    4  C10 UNL     1      -1.554   0.233  85.320  1.00  0.00     0.036 C
HETATM    5  C11 UNL     1      -2.254  -0.039  86.646  1.00  0.00     0.004 C
HETATM    6  C12 UNL     1      -3.660   0.527  86.502  1.00  0.00     0.030 C
HETATM    7  C13 UNL     1      -3.458   2.037  86.375  1.00  0.00     0.273 C
HETATM    8  N2  UNL     1      -2.770   2.376  85.163  1.00  0.00     0.098 N
HETATM    9  C14 UNL     1      -2.455   3.788  85.197  1.00  0.00     0.226 C
HETATM   10  C15 UNL     1      -3.657   4.658  84.873  1.00  0.00     0.043 C
HETATM   11  C16 UNL     1      -1.223   4.196  84.491  1.00  0.00     0.054 C
HETATM   12  C17 UNL     1      -1.408   5.624  83.968  1.00  0.00     0.015 C
ENDROOT
BRANCH   1  13
HETATM   13  C6  UNL     1       0.759   3.447  83.331  1.00  0.00     0.101 C
BRANCH  13  14
HETATM   14  N1  UNL     1       1.350   3.939  82.199  1.00  0.00    -0.367 N
HETATM   15  C2  UNL     1       1.509   5.292  81.907  1.00  0.00     0.084 C
HETATM   16  C1  UNL     1       2.140   6.116  83.016  1.00  0.00     0.033 C
HETATM   17  C3  UNL     1       2.545   5.346  80.750  1.00  0.00     0.030 C
HETATM   18  C4  UNL     1       2.428   3.968  80.174  1.00  0.00     0.046 C
HETATM   19  C5  UNL     1       2.176   3.121  81.422  1.00  0.00     0.063 C
ENDBRANCH  13  14
ENDBRANCH   1  13
BRANCH   1  20
HETATM   20  O1  UNL     1      -1.255   3.804  82.177  1.00  0.00    -0.384 OA
ATOM     21  H1  UNL     1      -1.887   4.482  82.383  1.00  0.00     0.211 HD
ENDBRANCH   1  20
TORSDOF 3
ENDMDL