MODEL 4
REMARK VINA RESULT: -7.003844738      0.594      1.201
REMARK  4 active torsions:
REMARK  status: ('A' for Active; 'I' for Inactive)
REMARK    1  A    between atoms: C6_6  and  C7_7
REMARK    2  A    between atoms: C7_7  and  O1_8
REMARK    3  A    between atoms: N1_11  and  C9_12
REMARK    4  A    between atoms: C9_12  and  C10_13
ROOT
HETATM    1  C1  UNL     1       1.802   7.943  85.513  1.00  0.00     0.010 C
HETATM    2  C2  UNL     1       1.259   7.900  84.087  1.00  0.00    -0.018 C
HETATM    3  C3  UNL     1       2.148   7.013  83.274  1.00  0.00     0.005 C
HETATM    4  C4  UNL     1       1.438   6.050  82.381  1.00  0.00     0.006 C
HETATM    5  C5  UNL     1       0.244   5.396  82.932  1.00  0.00    -0.001 C
HETATM    6  C6  UNL     1       0.316   3.919  83.073  1.00  0.00     0.032 C
HETATM    7  C8  UNL     1      -1.129   3.423  83.294  1.00  0.00     0.129 C
HETATM    8  N1  UNL     1      -1.593   3.994  84.491  1.00  0.00    -0.392 N
HETATM    9  C15 UNL     1      -1.560   5.431  84.553  1.00  0.00     0.126 C
HETATM   10  C16 UNL     1      -0.149   5.935  84.317  1.00  0.00     0.008 C
HETATM   11  C17 UNL     1      -0.162   7.421  84.182  1.00  0.00     0.011 C
ENDROOT
BRANCH   8  12
HETATM   12  C9  UNL     1      -2.560   3.365  85.272  1.00  0.00     0.063 C
BRANCH  12  13
HETATM   13  C10 UNL     1      -2.733   1.895  85.197  1.00  0.00     0.028 C
HETATM   14  C11 UNL     1      -3.638   1.425  86.316  1.00  0.00     0.036 C
HETATM   15  C12 UNL     1      -2.934   0.799  87.452  1.00  0.00     0.168 C
HETATM   16  O2  UNL     1      -1.837   0.037  87.200  1.00  0.00    -0.391 OA
HETATM   17  C13 UNL     1      -1.594  -0.217  85.878  1.00  0.00     0.168 C
HETATM   18  C14 UNL     1      -1.430   1.131  85.193  1.00  0.00     0.036 C
ENDBRANCH  12  13
ENDBRANCH   8  12
BRANCH   6  19
HETATM   19  C7  UNL     1       0.981   3.171  81.975  1.00  0.00     0.170 C
BRANCH  19  20
HETATM   20  O1  UNL     1       2.230   2.673  82.349  1.00  0.00    -0.400 OA
ATOM     21  H1  UNL     1       2.179   1.793  82.706  1.00  0.00     0.209 HD
ENDBRANCH  19  20
ENDBRANCH   6  19
TORSDOF 4
ENDMDL