MODEL 5
REMARK VINA RESULT: -5.622757170      2.143      4.469
REMARK  4 active torsions:
REMARK  status: ('A' for Active; 'I' for Inactive)
REMARK    1  A    between atoms: C2_2  and  O2_4
REMARK    2  A    between atoms: O2_4  and  C3_5
REMARK    3  A    between atoms: C3_5  and  C4_6
REMARK    4  A    between atoms: C7_9  and  O3_10
ROOT
HETATM    1  C4  UNL     1      -0.143   4.297  82.333  1.00  0.00     0.022 C
HETATM    2  C5  UNL     1       1.238   3.711  82.725  1.00  0.00     0.017 C
HETATM    3  C6  UNL     1       1.434   4.149  84.157  1.00  0.00     0.033 C
HETATM    4  C7  UNL     1       1.118   5.630  83.952  1.00  0.00     0.127 C
HETATM    5  C8  UNL     1      -0.147   5.576  83.105  1.00  0.00    -0.006 C
HETATM    6  C9  UNL     1      -1.229   5.555  84.210  1.00  0.00     0.019 C
HETATM    7  C10 UNL     1      -0.243   6.860  82.416  1.00  0.00     0.014 C
HETATM    8  C11 UNL     1      -1.012   7.063  81.199  1.00  0.00     0.031 C
HETATM    9  C12 UNL     1      -1.946   5.981  80.769  1.00  0.00     0.273 C
HETATM   10  N1  UNL     1      -1.292   4.858  80.235  1.00  0.00     0.093 N
HETATM   11  C13 UNL     1      -0.943   4.962  78.839  1.00  0.00     0.273 C
HETATM   12  C14 UNL     1       0.561   5.107  78.786  1.00  0.00     0.032 C
HETATM   13  C15 UNL     1       1.068   4.927  80.201  1.00  0.00     0.038 C
HETATM   14  C16 UNL     1      -0.140   4.340  80.886  1.00  0.00     0.234 C
ENDROOT
BRANCH   1  15
HETATM   15  C3  UNL     1      -1.147   3.307  82.855  1.00  0.00     0.191 C
BRANCH  15  16
HETATM   16  O2  UNL     1      -1.170   2.016  82.581  1.00  0.00    -0.321 OA
BRANCH  16  17
HETATM   17  C2  UNL     1      -1.616   1.052  81.786  1.00  0.00     0.254 C
HETATM   18  C1  UNL     1      -1.197  -0.390  81.867  1.00  0.00     0.126 C
HETATM   19  O1  UNL     1      -2.444   1.306  80.890  1.00  0.00    -0.266 OA
ENDBRANCH  16  17
ENDBRANCH  15  16
ENDBRANCH   1  15
BRANCH   4  20
HETATM   20  O3  UNL     1       2.166   6.276  83.318  1.00  0.00    -0.395 OA
ATOM     21  H3  UNL     1       1.893   7.124  82.989  1.00  0.00     0.210 HD
ENDBRANCH   4  20
TORSDOF 4
ENDMDL