MODEL 5
REMARK VINA RESULT: -5.791041724      1.554      4.237
REMARK  3 active torsions:
REMARK  status: ('A' for Active; 'I' for Inactive)
REMARK    1  A    between atoms: C2_2  and  C3_3
REMARK    2  A    between atoms: C6_6  and  O1_7
REMARK    3  A    between atoms: C12_15  and  C13_16
ROOT
HETATM    1  C3  UNL     1       0.409   5.424  81.603  1.00  0.00    -0.004 C
HETATM    2  C4  UNL     1       1.353   5.315  82.745  1.00  0.00     0.008 C
HETATM    3  C5  UNL     1       0.752   5.957  83.942  1.00  0.00     0.033 C
HETATM    4  C6  UNL     1      -0.741   5.885  84.024  1.00  0.00     0.128 C
HETATM    5  C7  UNL     1      -1.300   4.500  83.928  1.00  0.00     0.014 C
HETATM    6  C8  UNL     1      -2.737   4.605  84.477  1.00  0.00     0.020 C
HETATM    7  C9  UNL     1      -0.577   3.679  85.011  1.00  0.00     0.015 C
HETATM    8  C10 UNL     1      -1.142   2.294  85.129  1.00  0.00     0.031 C
HETATM    9  C11 UNL     1      -1.494   1.725  83.746  1.00  0.00     0.274 C
HETATM   10  N1  UNL     1      -0.736   2.489  82.819  1.00  0.00     0.105 N
HETATM   11  C12 UNL     1      -0.539   1.952  81.535  1.00  0.00     0.285 C
HETATM   12  C14 UNL     1       0.066   3.160  80.806  1.00  0.00     0.055 C
HETATM   13  C15 UNL     1      -0.606   4.371  81.475  1.00  0.00    -0.006 C
HETATM   14  C16 UNL     1      -1.617   4.865  80.425  1.00  0.00     0.018 C
HETATM   15  C17 UNL     1      -1.294   3.843  82.624  1.00  0.00     0.243 C
ENDROOT
BRANCH   1  16
HETATM   16  C2  UNL     1       1.224   5.575  80.323  1.00  0.00     0.001 C
HETATM   17  C1  UNL     1       2.675   5.936  80.654  1.00  0.00     0.005 C
ENDBRANCH   1  16
BRANCH   4  18
HETATM   18  O1  UNL     1      -1.073   6.346  85.325  1.00  0.00    -0.395 OA
ATOM     19  H1  UNL     1      -0.274   6.727  85.672  1.00  0.00     0.210 HD
ENDBRANCH   4  18
BRANCH  11  20
HETATM   20  C13 UNL     1      -1.713   1.463  80.828  1.00  0.00     0.267 C
HETATM   21  O2  UNL     1      -2.103   0.316  80.758  1.00  0.00    -0.305 OA
ENDBRANCH  11  20
TORSDOF 3
ENDMDL