MODEL 1
REMARK VINA RESULT: -7.269379031      0.000      0.000
REMARK  2 active torsions:
REMARK  status: ('A' for Active; 'I' for Inactive)
REMARK    1  A    between atoms: C2_2  and  C3_3
REMARK       I    between atoms: C3_3  and  N1_5
REMARK       I    between atoms: C4_7  and  N2_8
REMARK       I    between atoms: C4_7  and  N3_16
REMARK    2  A    between atoms: N2_8  and  C5_10
ROOT
HETATM    1  C3  UNL     1      -1.062   1.643  81.855  1.00  0.00     0.258 C
HETATM    2  O1  UNL     1       0.138   1.980  81.774  1.00  0.00    -0.268 OA
HETATM    3  N1  UNL     1      -1.826   1.974  82.968  1.00  0.00    -0.156 N
ATOM      4  H1  UNL     1      -2.577   1.326  83.205  1.00  0.00     0.187 HD
HETATM    5  C4  UNL     1      -1.703   2.989  83.729  1.00  0.00     0.679 C
HETATM    6  N2  UNL     1      -2.595   3.133  84.815  1.00  0.00    -0.221 N
ATOM      7  H2  UNL     1      -2.989   4.060  84.974  1.00  0.00     0.178 HD
HETATM    8  N3  UNL     1      -0.718   3.975  83.537  1.00  0.00    -0.216 N
HETATM    9  C11 UNL     1       0.487   3.891  84.330  1.00  0.00     0.151 C
HETATM   10  C12 UNL     1       1.638   4.656  83.751  1.00  0.00     0.094 C
HETATM   11  S1  UNL     1       1.125   6.399  83.642  1.00  0.00    -0.166 SA
HETATM   12  C13 UNL     1      -0.616   6.396  83.138  1.00  0.00     0.094 C
HETATM   13  C14 UNL     1      -0.926   5.013  82.584  1.00  0.00     0.151 C
ENDROOT
BRANCH   6  14
HETATM   14  C5  UNL     1      -2.992   2.099  85.707  1.00  0.00     0.099 C
HETATM   15  C6  UNL     1      -3.610   2.694  86.960  1.00  0.00     0.026 C
HETATM   16  C7  UNL     1      -3.596   1.668  88.078  1.00  0.00     0.002 C
HETATM   17  C8  UNL     1      -3.824   0.308  87.411  1.00  0.00     0.000 C
HETATM   18  C9  UNL     1      -2.541  -0.086  86.675  1.00  0.00     0.002 C
HETATM   19  C10 UNL     1      -1.878   1.143  86.068  1.00  0.00     0.026 C
ENDBRANCH   6  14
BRANCH   1  20
HETATM   20  C2  UNL     1      -1.664   0.891  80.762  1.00  0.00     0.065 C
HETATM   21  C1  UNL     1      -1.733  -0.418  80.741  1.00  0.00     0.017 C
ENDBRANCH   1  20
TORSDOF 2
ENDMDL