MODEL 3
REMARK VINA RESULT: -7.189884782      0.526      1.826
REMARK  2 active torsions:
REMARK  status: ('A' for Active; 'I' for Inactive)
REMARK    1  A    between atoms: N2_8  and  N3_10
REMARK       I    between atoms: N3_10  and  C7_12
REMARK    2  A    between atoms: C7_12  and  C8_14
ROOT
HETATM    1  N3  UNL     1      -1.226   3.579  84.058  1.00  0.00    -0.268 N
ATOM      2  H3  UNL     1      -2.020   4.119  83.717  1.00  0.00     0.190 HD
HETATM    3  C7  UNL     1       0.069   4.161  84.132  1.00  0.00     0.244 C
HETATM    4  O1  UNL     1       1.052   3.477  84.561  1.00  0.00    -0.271 OA
ENDROOT
BRANCH   3   5
HETATM    5  C8  UNL     1       0.332   5.551  83.726  1.00  0.00     0.043 C
HETATM    6  C9  UNL     1       0.248   5.606  82.215  1.00  0.00     0.024 C
HETATM    7  C10 UNL     1       0.372   7.028  81.734  1.00  0.00    -0.013 C
HETATM    8  C11 UNL     1       1.760   7.509  82.094  1.00  0.00     0.009 C
HETATM    9  C15 UNL     1      -0.706   7.837  82.390  1.00  0.00     0.009 C
HETATM   10  C12 UNL     1       1.932   7.395  83.589  1.00  0.00    -0.013 C
HETATM   11  C13 UNL     1       0.917   8.350  84.221  1.00  0.00     0.009 C
HETATM   12  C17 UNL     1       1.731   6.002  84.097  1.00  0.00     0.024 C
HETATM   13  C14 UNL     1      -0.464   7.875  83.870  1.00  0.00    -0.013 C
HETATM   14  C16 UNL     1      -0.633   6.466  84.396  1.00  0.00     0.024 C
ENDBRANCH   3   5
BRANCH   1  15
HETATM   15  N2  UNL     1      -1.388   2.270  84.458  1.00  0.00    -0.286 N
HETATM   16  C6  UNL     1      -2.188   1.861  85.359  1.00  0.00     0.093 C
HETATM   17  N1  UNL     1      -2.285   0.501  85.700  1.00  0.00    -0.374 N
HETATM   18  C5  UNL     1      -3.045   2.820  86.072  1.00  0.00     0.078 C
HETATM   19  C1  UNL     1      -1.201  -0.414  85.388  1.00  0.00     0.150 C
HETATM   20  C2  UNL     1      -3.501   0.029  86.375  1.00  0.00     0.123 C
HETATM   21  C3  UNL     1      -3.971   0.961  87.439  1.00  0.00     0.020 C
HETATM   22  C4  UNL     1      -3.218   2.256  87.490  1.00  0.00     0.009 C
ATOM     23  H2  UNL     1      -0.815   1.567  83.991  1.00  0.00     0.188 HD
ENDBRANCH   1  15
TORSDOF 2
ENDMDL