MODEL 2
REMARK VINA RESULT: -5.137759738      2.014      3.931
REMARK  3 active torsions:
REMARK  status: ('A' for Active; 'I' for Inactive)
REMARK    1  A    between atoms: N1_2  and  C2_4
REMARK    2  A    between atoms: C2_4  and  C3_6
REMARK    3  A    between atoms: N2_10  and  C7_11
ROOT
HETATM    1  C3  UNL     1      15.400   4.662  15.154  1.00  0.00     0.284 C
HETATM    2  C4  UNL     1      14.753   4.035  16.357  1.00  0.00     0.045 C
HETATM    3  C5  UNL     1      14.734   5.110  17.439  1.00  0.00     0.033 C
HETATM    4  C6  UNL     1      14.785   6.326  16.535  1.00  0.00     0.274 C
HETATM    5  N2  UNL     1      15.910   5.936  15.650  1.00  0.00     0.104 N
ENDROOT
BRANCH   5   6
HETATM    6  C7  UNL     1      16.065   6.957  14.671  1.00  0.00     0.227 C
HETATM    7  C8  UNL     1      15.402   8.265  14.924  1.00  0.00     0.036 C
HETATM    8  C9  UNL     1      16.462   9.191  15.503  1.00  0.00     0.002 C
HETATM    9  C10 UNL     1      17.783   8.590  15.105  1.00  0.00     0.006 C
HETATM   10  C11 UNL     1      17.441   7.353  14.291  1.00  0.00     0.015 C
HETATM   11  C12 UNL     1      17.396   7.807  12.837  1.00  0.00     0.012 C
ENDBRANCH   5   6
BRANCH   1  12
HETATM   12  C2  UNL     1      16.505   3.785  14.707  1.00  0.00     0.106 C
HETATM   13  S1  UNL     1      16.974   2.556  15.665  1.00  0.00    -0.063 SA
BRANCH  12  14
HETATM   14  N1  UNL     1      17.215   3.910  13.481  1.00  0.00    -0.387 N
HETATM   15  C1  UNL     1      16.498   4.060  12.204  1.00  0.00     0.147 C
ATOM     16  H1  UNL     1      18.234   3.897  13.487  1.00  0.00     0.159 HD
ENDBRANCH  12  14
ENDBRANCH   1  12
TORSDOF 3
ENDMDL