MODEL 1
REMARK VINA RESULT: -5.663169418      0.000      0.000
REMARK  3 active torsions:
REMARK  status: ('A' for Active; 'I' for Inactive)
REMARK    1  A    between atoms: C2_2  and  C3_3
REMARK    2  A    between atoms: C7_7  and  C8_8
REMARK    3  A    between atoms: C8_8  and  O1_9
ROOT
HETATM    1  C3  UNL     1      15.220   5.036  17.037  1.00  0.00    -0.013 C
HETATM    2  C4  UNL     1      16.412   4.207  16.874  1.00  0.00     0.005 C
HETATM    3  C5  UNL     1      17.154   4.364  15.562  1.00  0.00     0.008 C
HETATM    4  C6  UNL     1      17.264   5.807  15.308  1.00  0.00     0.021 C
HETATM    5  C7  UNL     1      18.013   6.266  14.129  1.00  0.00     0.077 C
HETATM    6  C9  UNL     1      17.391   7.653  13.945  1.00  0.00     0.129 C
HETATM    7  N1  UNL     1      16.029   7.423  14.254  1.00  0.00    -0.411 N
HETATM    8  C10 UNL     1      15.258   8.561  14.608  1.00  0.00     0.143 C
HETATM    9  C11 UNL     1      15.830   6.246  14.957  1.00  0.00     0.084 C
HETATM   10  C12 UNL     1      15.128   6.296  16.257  1.00  0.00     0.029 C
ENDROOT
BRANCH   5  11
HETATM   11  C8  UNL     1      17.791   5.519  12.896  1.00  0.00     0.116 C
HETATM   12  S1  UNL     1      17.497   6.221  11.455  1.00  0.00    -0.057 SA
BRANCH  11  13
HETATM   13  O1  UNL     1      17.826   4.135  12.919  1.00  0.00    -0.354 OA
ATOM     14  H1  UNL     1      17.038   3.643  12.722  1.00  0.00     0.218 HD
ENDBRANCH  11  13
ENDBRANCH   5  11
BRANCH   1  15
HETATM   15  C2  UNL     1      13.975   4.189  16.748  1.00  0.00     0.000 C
HETATM   16  C1  UNL     1      14.172   2.823  17.367  1.00  0.00     0.005 C
ENDBRANCH   1  15
TORSDOF 3
ENDMDL