MODEL 2
REMARK VINA RESULT: -5.867924551      1.602      2.051
REMARK  4 active torsions:
REMARK  status: ('A' for Active; 'I' for Inactive)
REMARK    1  A    between atoms: O1_1  and  C1_3
REMARK    2  A    between atoms: C1_3  and  C2_4
REMARK    3  A    between atoms: N1_9  and  C7_10
REMARK    4  A    between atoms: C7_10  and  C8_12
ROOT
HETATM    1  C2  UNL     1      17.961   6.909  13.679  1.00  0.00     0.108 C
HETATM    2  C3  UNL     1      17.982   7.430  12.281  1.00  0.00     0.027 C
HETATM    3  C4  UNL     1      18.180   6.304  11.292  1.00  0.00     0.004 C
HETATM    4  C5  UNL     1      17.045   5.341  11.450  1.00  0.00     0.020 C
HETATM    5  C6  UNL     1      17.161   4.736  12.864  1.00  0.00     0.124 C
HETATM    6  N1  UNL     1      17.053   5.758  13.848  1.00  0.00    -0.368 N
ENDROOT
BRANCH   6   7
HETATM    7  C7  UNL     1      16.182   5.741  14.925  1.00  0.00     0.080 C
HETATM    8  S1  UNL     1      15.609   7.278  15.365  1.00  0.00    -0.065 SA
BRANCH   7   9
HETATM    9  C8  UNL     1      15.659   4.676  15.749  1.00  0.00     0.047 C
HETATM   10  C9  UNL     1      14.626   5.033  16.786  1.00  0.00     0.011 C
HETATM   11  C10 UNL     1      14.350   3.616  17.340  1.00  0.00     0.001 C
HETATM   12  C11 UNL     1      15.666   2.866  17.200  1.00  0.00     0.001 C
HETATM   13  C12 UNL     1      16.640   3.871  16.554  1.00  0.00     0.011 C
ENDBRANCH   7   9
ENDBRANCH   6   7
BRANCH   1  14
HETATM   14  C1  UNL     1      19.379   6.471  14.057  1.00  0.00     0.189 C
BRANCH  14  15
HETATM   15  O1  UNL     1      19.421   6.032  15.365  1.00  0.00    -0.399 OA
ATOM     16  H1  UNL     1      19.740   6.719  15.939  1.00  0.00     0.209 HD
ENDBRANCH  14  15
ENDBRANCH   1  14
TORSDOF 4
ENDMDL