MODEL 2
REMARK VINA RESULT: -5.701596267      2.516      3.789
REMARK  3 active torsions:
REMARK  status: ('A' for Active; 'I' for Inactive)
REMARK    1  A    between atoms: C2_2  and  C4_4
REMARK    2  A    between atoms: C4_4  and  N1_7
REMARK    3  A    between atoms: N1_7  and  C7_8
REMARK       I    between atoms: N1_7  and  C9_10
REMARK       I    between atoms: C9_10  and  N3_14
ROOT
HETATM    1  N1  UNL     1      17.545   6.977  13.117  1.00  0.00    -0.206 N
HETATM    2  C9  UNL     1      17.872   5.663  12.672  1.00  0.00     0.672 C
HETATM    3  N2  UNL     1      19.110   5.395  12.438  1.00  0.00    -0.235 N
ATOM      4  H21 UNL     1      19.344   4.455  12.119  1.00  0.00     0.174 HD
ATOM      5  H22 UNL     1      19.776   6.143  12.626  1.00  0.00     0.174 HD
HETATM    6  N3  UNL     1      16.955   4.634  12.413  1.00  0.00    -0.214 N
HETATM    7  C10 UNL     1      16.504   3.703  13.426  1.00  0.00     0.167 C
HETATM    8  C11 UNL     1      17.137   2.364  12.995  1.00  0.00     0.188 C
HETATM    9  O1  UNL     1      16.925   2.092  11.684  1.00  0.00    -0.388 OA
HETATM   10  C12 UNL     1      16.127   2.921  10.954  1.00  0.00     0.188 C
HETATM   11  C13 UNL     1      16.423   4.396  11.085  1.00  0.00     0.167 C
ENDROOT
BRANCH   1  12
HETATM   12  C4  UNL     1      17.937   7.450  14.397  1.00  0.00     0.065 C
HETATM   13  C5  UNL     1      18.999   8.562  14.189  1.00  0.00     0.044 C
HETATM   14  C6  UNL     1      18.595   6.442  15.299  1.00  0.00     0.044 C
BRANCH  12  15
HETATM   15  C2  UNL     1      16.838   8.132  15.215  1.00  0.00    -0.065 C
HETATM   16  C1  UNL     1      17.016   9.315  15.582  1.00  0.00     0.016 C
HETATM   17  C3  UNL     1      15.629   7.289  15.485  1.00  0.00     0.045 C
ENDBRANCH  12  15
ENDBRANCH   1  12
BRANCH   1  18
HETATM   18  C7  UNL     1      16.845   7.813  12.168  1.00  0.00     0.138 C
HETATM   19  C8  UNL     1      17.474   8.027  10.843  1.00  0.00     0.027 C
ENDBRANCH   1  18
TORSDOF 3
ENDMDL