MODEL 2
REMARK VINA RESULT: -6.337339632      1.209      2.428
REMARK  2 active torsions:
REMARK  status: ('A' for Active; 'I' for Inactive)
REMARK    1  A    between atoms: C7_8  and  N2_9
REMARK    2  A    between atoms: N2_9  and  C8_12
ROOT
HETATM    1  C1  UNL     1      19.715   7.181  12.598  1.00  0.00     0.310 C
HETATM    2  N1  UNL     1      18.556   6.667  13.283  1.00  0.00     0.089 N
HETATM    3  C2  UNL     1      17.312   7.037  12.675  1.00  0.00     0.277 C
HETATM    4  C3  UNL     1      16.390   7.821  13.518  1.00  0.00     0.024 C
HETATM    5  C4  UNL     1      17.015   8.779  14.477  1.00  0.00    -0.006 C
HETATM    6  C5  UNL     1      15.860   8.462  15.422  1.00  0.00     0.012 C
HETATM    7  C6  UNL     1      15.693   7.175  14.617  1.00  0.00     0.023 C
HETATM    8  C7  UNL     1      16.281   6.072  15.369  1.00  0.00     0.193 C
HETATM    9  C13 UNL     1      17.735   5.847  15.343  1.00  0.00     0.069 C
HETATM   10  C14 UNL     1      18.583   6.891  14.705  1.00  0.00     0.224 C
HETATM   11  C15 UNL     1      18.278   8.296  15.109  1.00  0.00     0.041 C
ENDROOT
BRANCH   8  12
HETATM   12  N2  UNL     1      15.593   4.839  14.980  1.00  0.00    -0.066 N
ATOM     13  H22 UNL     1      14.965   5.001  14.192  1.00  0.00     0.278 HD
ATOM     14  H21 UNL     1      16.237   4.181  14.542  1.00  0.00     0.278 HD
BRANCH  12  15
HETATM   15  C8  UNL     1      14.897   4.230  16.080  1.00  0.00     0.186 C
HETATM   16  C9  UNL     1      14.719   5.130  17.263  1.00  0.00     0.033 C
HETATM   17  C10 UNL     1      15.223   4.389  18.474  1.00  0.00     0.002 C
HETATM   18  C11 UNL     1      15.411   2.953  18.046  1.00  0.00     0.002 C
HETATM   19  C12 UNL     1      15.646   3.014  16.547  1.00  0.00     0.033 C
ENDBRANCH  12  15
ENDBRANCH   8  12
TORSDOF 2
ENDMDL