MODEL 2
REMARK VINA RESULT: -6.360270016      1.004      1.036
REMARK  3 active torsions:
REMARK  status: ('A' for Active; 'I' for Inactive)
REMARK    1  A    between atoms: O1_1  and  C1_3
REMARK    2  A    between atoms: C1_3  and  C2_4
REMARK    3  A    between atoms: C2_4  and  N1_5
ROOT
HETATM    1  N1  UNL     1      16.956   4.963  13.574  1.00  0.00    -0.377 N
HETATM    2  C3  UNL     1      17.386   6.174  12.986  1.00  0.00     0.089 C
HETATM    3  C4  UNL     1      18.853   6.308  13.389  1.00  0.00     0.030 C
HETATM    4  C5  UNL     1      18.777   6.688  14.870  1.00  0.00    -0.010 C
HETATM    5  C6  UNL     1      18.505   8.176  14.873  1.00  0.00     0.005 C
HETATM    6  C7  UNL     1      17.560   8.534  13.718  1.00  0.00     0.007 C
HETATM    7  C8  UNL     1      16.623   7.391  13.422  1.00  0.00     0.009 C
HETATM    8  C9  UNL     1      15.705   7.247  14.567  1.00  0.00     0.013 C
HETATM    9  C10 UNL     1      15.437   5.881  15.068  1.00  0.00     0.014 C
HETATM   10  C11 UNL     1      15.093   5.742  16.509  1.00  0.00     0.007 C
HETATM   11  C12 UNL     1      15.544   4.340  16.852  1.00  0.00     0.003 C
HETATM   12  C13 UNL     1      16.475   3.892  15.753  1.00  0.00     0.031 C
HETATM   13  C14 UNL     1      16.767   5.117  14.953  1.00  0.00     0.036 C
HETATM   14  C15 UNL     1      17.836   5.887  15.652  1.00  0.00     0.036 C
ENDROOT
BRANCH   1  15
HETATM   15  C2  UNL     1      16.247   4.039  12.834  1.00  0.00     0.085 C
BRANCH  15  16
HETATM   16  C1  UNL     1      17.028   2.840  12.346  1.00  0.00     0.208 C
BRANCH  16  17
HETATM   17  O1  UNL     1      16.994   1.734  13.144  1.00  0.00    -0.396 OA
ATOM     18  H1  UNL     1      17.759   1.586  13.688  1.00  0.00     0.209 HD
ENDBRANCH  16  17
ENDBRANCH  15  16
ENDBRANCH   1  15
TORSDOF 3
ENDMDL