MODEL 2
REMARK VINA RESULT: -6.756206074      2.107      3.290
REMARK  1 active torsions:
REMARK  status: ('A' for Active; 'I' for Inactive)
REMARK    1  A    between atoms: C5_5  and  C6_6
ROOT
HETATM    1  C6  UNL     1      17.525   5.920  14.846  1.00  0.00     0.064 C
HETATM    2  N1  UNL     1      17.830   6.268  13.592  1.00  0.00    -0.381 N
HETATM    3  C7  UNL     1      17.222   7.053  12.626  1.00  0.00     0.091 C
HETATM    4  C8  UNL     1      17.111   5.797  11.782  1.00  0.00     0.053 C
HETATM    5  C9  UNL     1      18.357   5.424  12.576  1.00  0.00     0.116 C
HETATM    6  C10 UNL     1      19.576   6.101  11.989  1.00  0.00     0.209 C
HETATM    7  C11 UNL     1      19.199   7.235  11.062  1.00  0.00     0.043 C
HETATM    8  C12 UNL     1      18.308   7.979  12.034  1.00  0.00     0.036 C
HETATM    9  C13 UNL     1      19.369   8.139  13.136  1.00  0.00     0.239 C
HETATM   10  N2  UNL     1      20.151   6.906  13.086  1.00  0.00    -0.069 N
ATOM     11  H21 UNL     1      21.155   7.065  12.990  1.00  0.00     0.277 HD
ATOM     12  H22 UNL     1      20.188   6.411  13.977  1.00  0.00     0.277 HD
ENDROOT
BRANCH   1  13
HETATM   13  C5  UNL     1      16.433   5.000  15.241  1.00  0.00     0.024 C
HETATM   14  C4  UNL     1      16.908   4.256  16.501  1.00  0.00     0.010 C
HETATM   15  C3  UNL     1      16.257   2.898  16.511  1.00  0.00     0.001 C
HETATM   16  C2  UNL     1      14.804   3.067  16.885  1.00  0.00     0.000 C
HETATM   17  C1  UNL     1      14.535   4.291  17.686  1.00  0.00     0.000 C
HETATM   18  C15 UNL     1      14.726   5.595  17.015  1.00  0.00     0.001 C
HETATM   19  C14 UNL     1      15.111   5.567  15.574  1.00  0.00     0.010 C
ENDBRANCH   1  13
TORSDOF 1
ENDMDL