MODEL 3
REMARK VINA RESULT: -6.069736689      1.141      2.742
REMARK  2 active torsions:
REMARK  status: ('A' for Active; 'I' for Inactive)
REMARK    1  A    between atoms: N1_2  and  C2_3
REMARK    2  A    between atoms: N1_2  and  C6_10
ROOT
HETATM    1  C6  UNL     1      16.783   7.333  14.045  1.00  0.00     0.032 C
HETATM    2  C7  UNL     1      15.654   7.308  15.025  1.00  0.00     0.035 C
HETATM    3  C8  UNL     1      15.338   8.811  15.123  1.00  0.00    -0.011 C
HETATM    4  C9  UNL     1      15.115   9.063  13.623  1.00  0.00     0.012 C
HETATM    5  C10 UNL     1      16.416   8.440  13.090  1.00  0.00     0.015 C
HETATM    6  C11 UNL     1      17.461   9.541  13.311  1.00  0.00     0.016 C
HETATM    7  C12 UNL     1      17.748   9.327  14.798  1.00  0.00    -0.041 C
HETATM    8  C13 UNL     1      18.938  10.087  15.258  1.00  0.00     0.015 C
HETATM    9  C14 UNL     1      16.498   9.612  15.589  1.00  0.00     0.014 C
HETATM   10  C15 UNL     1      18.009   7.846  14.820  1.00  0.00     0.040 C
ENDROOT
BRANCH   1  11
HETATM   11  N1  UNL     1      17.067   6.138  13.391  1.00  0.00    -0.402 N
HETATM   12  C1  UNL     1      18.071   6.121  12.415  1.00  0.00     0.144 C
BRANCH  11  13
HETATM   13  C2  UNL     1      16.350   4.965  13.661  1.00  0.00     0.106 C
HETATM   14  C3  UNL     1      16.425   4.038  12.466  1.00  0.00     0.054 C
HETATM   15  C4  UNL     1      17.145   2.796  12.876  1.00  0.00     0.234 C
HETATM   16  N2  UNL     1      16.900   2.732  14.290  1.00  0.00    -0.073 N
HETATM   17  C5  UNL     1      17.016   4.103  14.750  1.00  0.00     0.257 C
ATOM     18  H22 UNL     1      16.017   2.285  14.538  1.00  0.00     0.277 HD
ATOM     19  H21 UNL     1      17.504   2.076  14.786  1.00  0.00     0.277 HD
ENDBRANCH  11  13
ENDBRANCH   1  11
TORSDOF 2
ENDMDL