MODEL 3
REMARK VINA RESULT: -5.314132914      1.940      2.556
REMARK  2 active torsions:
REMARK  status: ('A' for Active; 'I' for Inactive)
REMARK    1  A    between atoms: C2_2  and  N1_3
REMARK    2  A    between atoms: N1_3  and  C3_5
ROOT
HETATM    1  C3  UNL     1      17.277   7.072  14.349  1.00  0.00     0.105 C
HETATM    2  C4  UNL     1      18.087   8.102  15.072  1.00  0.00     0.049 C
HETATM    3  C5  UNL     1      17.490   9.436  15.285  1.00  0.00    -0.011 C
HETATM    4  C6  UNL     1      17.884  10.472  14.281  1.00  0.00     0.006 C
HETATM    5  C7  UNL     1      18.020   9.964  12.883  1.00  0.00     0.018 C
HETATM    6  C8  UNL     1      16.915   9.072  12.416  1.00  0.00     0.082 C
HETATM    7  C9  UNL     1      15.593   9.269  13.029  1.00  0.00     0.022 C
HETATM    8  C10 UNL     1      15.353   8.636  14.345  1.00  0.00    -0.010 C
HETATM    9  C11 UNL     1      15.988   9.466  15.429  1.00  0.00     0.009 C
HETATM   10  C12 UNL     1      15.790   7.228  14.534  1.00  0.00     0.049 C
HETATM   11  S1  UNL     1      17.509   7.376  12.599  1.00  0.00     0.048 S
HETATM   12  O1  UNL     1      16.333   6.424  11.813  1.00  0.00    -0.255 OA
ENDROOT
BRANCH   1  13
HETATM   13  N1  UNL     1      17.760   5.763  14.621  1.00  0.00    -0.403 N
ATOM     14  H1  UNL     1      18.752   5.533  14.555  1.00  0.00     0.154 HD
BRANCH  13  15
HETATM   15  C2  UNL     1      16.788   4.792  14.988  1.00  0.00     0.111 C
HETATM   16  C1  UNL     1      17.055   4.250  16.384  1.00  0.00     0.026 C
ENDBRANCH  13  15
ENDBRANCH   1  13
TORSDOF 2
ENDMDL