MODEL 2
REMARK VINA RESULT: -6.221998242      1.482      1.984
REMARK  4 active torsions:
REMARK  status: ('A' for Active; 'I' for Inactive)
REMARK    1  A    between atoms: C2_3  and  C3_4
REMARK    2  A    between atoms: N2_6  and  C5_7
REMARK    3  A    between atoms: C5_7  and  N3_9
REMARK    4  A    between atoms: N3_9  and  C6_11
ROOT
HETATM    1  N1  UNL     1      15.546   3.466  10.276  1.00  0.00    -0.197 NA
HETATM    2  C1  UNL     1      16.096   3.796  11.224  1.00  0.00     0.061 C
HETATM    3  C2  UNL     1      16.798   4.202  12.459  1.00  0.00     0.150 C
ENDROOT
BRANCH   3   4
HETATM    4  C3  UNL     1      17.259   5.627  12.319  1.00  0.00     0.117 A
HETATM    5  C4  UNL     1      18.395   6.078  13.038  1.00  0.00     0.152 A
HETATM    6  N2  UNL     1      17.034   6.504  13.453  1.00  0.00    -0.349 N
BRANCH   6   7
HETATM    7  C5  UNL     1      16.289   7.261  14.374  1.00  0.00     0.170 C
HETATM    8  S1  UNL     1      15.945   8.821  14.069  1.00  0.00    -0.041 SA
BRANCH   7   9
HETATM    9  N3  UNL     1      15.841   6.687  15.577  1.00  0.00    -0.362 N
ATOM     10  H3  UNL     1      15.633   7.334  16.337  1.00  0.00     0.162 HD
BRANCH   9  11
HETATM   11  C6  UNL     1      15.644   5.299  15.854  1.00  0.00     0.083 C
HETATM   12  C7  UNL     1      16.877   4.538  16.196  1.00  0.00     0.025 C
HETATM   13  C8  UNL     1      16.478   3.073  16.167  1.00  0.00     0.002 C
HETATM   14  C9  UNL     1      15.558   2.816  17.303  1.00  0.00     0.000 C
HETATM   15  C10 UNL     1      14.746   3.940  17.781  1.00  0.00     0.002 C
HETATM   16  C11 UNL     1      14.581   5.117  16.896  1.00  0.00     0.025 C
ENDBRANCH   9  11
ENDBRANCH   7   9
ENDBRANCH   6   7
ENDBRANCH   3   4
TORSDOF 4
ENDMDL