MODEL 5
REMARK VINA RESULT: -5.538487625      1.389      5.680
REMARK  2 active torsions:
REMARK  status: ('A' for Active; 'I' for Inactive)
REMARK    1  A    between atoms: N2_11  and  C8_12
REMARK    2  A    between atoms: C8_12  and  C9_13
ROOT
HETATM    1  C1  UNL     1      16.079   9.503  12.035  1.00  0.00     0.032 C
HETATM    2  C2  UNL     1      17.202   8.894  11.236  1.00  0.00     0.235 C
HETATM    3  N1  UNL     1      17.797   7.846  12.088  1.00  0.00    -0.038 N
ATOM      4  H11 UNL     1      18.762   7.605  11.863  1.00  0.00     0.280 HD
ATOM      5  H12 UNL     1      17.424   6.908  11.941  1.00  0.00     0.280 HD
HETATM    6  C3  UNL     1      17.599   8.371  13.390  1.00  0.00     0.320 C
HETATM    7  C4  UNL     1      16.089   8.712  13.329  1.00  0.00     0.074 C
HETATM    8  C5  UNL     1      18.240   9.717  13.633  1.00  0.00     0.074 C
HETATM    9  C6  UNL     1      19.494   9.361  14.340  1.00  0.00     0.035 C
HETATM   10  C7  UNL     1      19.058   8.179  15.178  1.00  0.00     0.276 C
HETATM   11  N2  UNL     1      17.901   7.556  14.511  1.00  0.00     0.126 N
ENDROOT
BRANCH  11  12
HETATM   12  C8  UNL     1      18.326   6.219  14.203  1.00  0.00     0.285 C
BRANCH  12  13
HETATM   13  C9  UNL     1      17.333   5.128  14.442  1.00  0.00    -0.009 C
HETATM   14  C10 UNL     1      18.059   4.150  15.404  1.00  0.00     0.041 C
HETATM   15  C11 UNL     1      17.185   2.988  15.756  1.00  0.00     0.273 C
HETATM   16  N3  UNL     1      16.046   2.988  14.870  1.00  0.00     0.088 N
HETATM   17  C12 UNL     1      15.248   4.136  15.203  1.00  0.00     0.273 C
HETATM   18  C14 UNL     1      16.507   2.985  13.520  1.00  0.00     0.273 C
HETATM   19  C13 UNL     1      16.022   5.455  15.016  1.00  0.00     0.041 C
HETATM   20  C15 UNL     1      17.119   4.294  13.185  1.00  0.00     0.041 C
ENDBRANCH  12  13
ENDBRANCH  11  12
TORSDOF 2
ENDMDL