MODEL 5
REMARK VINA RESULT: -5.973800075      2.048      3.145
REMARK  2 active torsions:
REMARK  status: ('A' for Active; 'I' for Inactive)
REMARK    1  A    between atoms: C5_5  and  C6_6
REMARK    2  A    between atoms: C6_6  and  N1_7
ROOT
HETATM    1  C1  UNL     1      15.281   4.203  15.545  1.00  0.00     0.010 C
HETATM    2  C2  UNL     1      16.630   3.676  15.181  1.00  0.00    -0.012 C
HETATM    3  C3  UNL     1      16.625   2.612  14.122  1.00  0.00     0.006 C
HETATM    4  C4  UNL     1      16.955   3.258  12.819  1.00  0.00     0.017 C
HETATM    5  C5  UNL     1      17.684   4.573  13.177  1.00  0.00     0.021 C
HETATM    6  C14 UNL     1      19.156   4.285  12.921  1.00  0.00     0.247 C
HETATM    7  N2  UNL     1      19.841   4.730  14.120  1.00  0.00    -0.074 N
ATOM      8  H21 UNL     1      20.069   5.724  14.138  1.00  0.00     0.277 HD
ATOM      9  H22 UNL     1      20.803   4.404  14.208  1.00  0.00     0.277 HD
HETATM   10  C15 UNL     1      18.963   4.297  15.161  1.00  0.00     0.238 C
HETATM   11  C16 UNL     1      17.574   4.738  14.634  1.00  0.00     0.030 C
ENDROOT
BRANCH   5  12
HETATM   12  C6  UNL     1      17.137   5.608  12.269  1.00  0.00     0.070 C
BRANCH  12  13
HETATM   13  N1  UNL     1      17.076   6.932  12.627  1.00  0.00    -0.388 N
HETATM   14  C7  UNL     1      17.850   7.407  13.702  1.00  0.00     0.127 C
HETATM   15  C8  UNL     1      17.078   8.430  14.546  1.00  0.00     0.004 C
HETATM   16  C9  UNL     1      16.787   9.649  13.662  1.00  0.00     0.008 C
HETATM   17  C13 UNL     1      15.742   7.902  14.995  1.00  0.00     0.008 C
HETATM   18  C10 UNL     1      16.045   9.122  12.456  1.00  0.00     0.026 C
HETATM   19  C11 UNL     1      15.822   7.615  12.552  1.00  0.00     0.083 C
HETATM   20  C12 UNL     1      14.977   7.423  13.792  1.00  0.00     0.026 C
ENDBRANCH  12  13
ENDBRANCH   5  12
TORSDOF 2
ENDMDL