MODEL 5
REMARK VINA RESULT: -5.566589249      1.640      2.380
REMARK  4 active torsions:
REMARK  status: ('A' for Active; 'I' for Inactive)
REMARK    1  A    between atoms: C2_2  and  N1_4
REMARK    2  A    between atoms: N1_4  and  C3_6
REMARK    3  A    between atoms: C3_6  and  C5_8
REMARK    4  A    between atoms: C5_8  and  N2_10
ROOT
HETATM    1  C5  UNL     1      17.055   4.133  14.418  1.00  0.00     0.099 C
HETATM    2  S2  UNL     1      17.249   5.770  14.591  1.00  0.00    -0.063 SA
ENDROOT
BRANCH   1   3
HETATM    3  C3  UNL     1      17.546   3.554  13.149  1.00  0.00     0.139 C
HETATM    4  C4  UNL     1      16.636   2.437  12.660  1.00  0.00     0.039 C
BRANCH   3   5
HETATM    5  N1  UNL     1      17.575   4.532  12.073  1.00  0.00    -0.374 N
ATOM      6  H1  UNL     1      16.791   5.177  11.974  1.00  0.00     0.161 HD
BRANCH   5   7
HETATM    7  C2  UNL     1      18.651   4.620  11.158  1.00  0.00     0.070 C
HETATM    8  C1  UNL     1      18.399   4.777   9.714  1.00  0.00     0.081 C
HETATM    9  S1  UNL     1      20.194   4.550  11.689  1.00  0.00    -0.066 SA
ENDBRANCH   5   7
ENDBRANCH   3   5
ENDBRANCH   1   3
BRANCH   1  10
HETATM   10  N2  UNL     1      16.458   3.455  15.457  1.00  0.00    -0.364 N
HETATM   11  C6  UNL     1      17.163   2.420  16.196  1.00  0.00     0.124 C
HETATM   12  C7  UNL     1      16.531   1.095  16.268  1.00  0.00     0.021 C
HETATM   13  C8  UNL     1      15.551   0.743  17.355  1.00  0.00     0.013 C
HETATM   14  C9  UNL     1      14.239   1.595  17.295  1.00  0.00     0.081 C
HETATM   15  C10 UNL     1      14.493   2.762  16.562  1.00  0.00    -0.164 C
HETATM   16  C11 UNL     1      15.038   3.825  15.787  1.00  0.00     0.203 C
ENDBRANCH   1  10
TORSDOF 4
ENDMDL