MODEL 4
REMARK VINA RESULT: -6.025870494      1.449      1.583
REMARK  2 active torsions:
REMARK  status: ('A' for Active; 'I' for Inactive)
REMARK       I    between atoms: C1_2  and  N1_3
REMARK       I    between atoms: C1_2  and  N2_13
REMARK    1  A    between atoms: N1_3  and  C2_5
REMARK    2  A    between atoms: C2_5  and  C3_6
ROOT
HETATM    1  O1  UNL     1      18.763   6.409  14.512  1.00  0.00    -0.247 OA
HETATM    2  C1  UNL     1      18.961   5.352  13.867  1.00  0.00     0.318 C
HETATM    3  N1  UNL     1      18.244   4.190  14.230  1.00  0.00    -0.343 N
ATOM      4  H1  UNL     1      18.383   3.315  13.726  1.00  0.00     0.164 HD
HETATM    5  N2  UNL     1      19.886   5.316  12.791  1.00  0.00    -0.330 N
HETATM    6  C10 UNL     1      20.141   4.135  12.033  1.00  0.00     0.153 C
HETATM    7  C11 UNL     1      21.418   4.149  11.264  1.00  0.00     0.187 C
HETATM    8  O2  UNL     1      21.834   5.374  10.829  1.00  0.00    -0.388 OA
HETATM    9  C12 UNL     1      20.928   6.392  10.950  1.00  0.00     0.187 C
HETATM   10  C13 UNL     1      20.605   6.525  12.444  1.00  0.00     0.153 C
ENDROOT
BRANCH   3  11
HETATM   11  C2  UNL     1      17.309   4.264  15.331  1.00  0.00     0.129 C
BRANCH  11  12
HETATM   12  C3  UNL     1      16.105   3.378  15.106  1.00  0.00     0.003 C
HETATM   13  C4  UNL     1      16.562   1.949  15.205  1.00  0.00     0.006 C
HETATM   14  C5  UNL     1      16.874   1.547  16.619  1.00  0.00     0.000 C
HETATM   15  C6  UNL     1      15.699   0.795  17.193  1.00  0.00     0.000 C
HETATM   16  C7  UNL     1      14.712   1.824  17.700  1.00  0.00     0.000 C
HETATM   17  C8  UNL     1      14.175   2.622  16.519  1.00  0.00     0.000 C
HETATM   18  C9  UNL     1      15.069   3.748  16.126  1.00  0.00     0.006 C
ENDBRANCH  11  12
ENDBRANCH   3  11
TORSDOF 2
ENDMDL