MODEL 1
REMARK VINA RESULT: -6.715224530      0.000      0.000
REMARK  2 active torsions:
REMARK  status: ('A' for Active; 'I' for Inactive)
REMARK       I    between atoms: C1_2  and  N1_3
REMARK    1  A    between atoms: C1_2  and  C8_11
REMARK    2  A    between atoms: N1_3  and  C2_5
ROOT
HETATM    1  O1  UNL     1      16.086   4.083  13.397  1.00  0.00    -0.273 OA
HETATM    2  C1  UNL     1      15.897   4.990  14.274  1.00  0.00     0.222 C
HETATM    3  N1  UNL     1      15.568   4.571  15.571  1.00  0.00    -0.356 N
ATOM      4  H1  UNL     1      15.413   5.286  16.282  1.00  0.00     0.162 HD
ENDROOT
BRANCH   2   5
HETATM    5  C8  UNL     1      16.030   6.397  13.889  1.00  0.00     0.081 C
HETATM    6  C9  UNL     1      16.526   6.535  12.477  1.00  0.00     0.044 C
HETATM    7  C10 UNL     1      16.938   7.932  12.157  1.00  0.00     0.273 C
HETATM    8  N2  UNL     1      16.590   8.883  13.188  1.00  0.00     0.093 N
HETATM    9  C11 UNL     1      17.191  10.170  12.895  1.00  0.00     0.273 C
HETATM   10  C14 UNL     1      17.133   8.556  14.467  1.00  0.00     0.224 C
HETATM   11  C12 UNL     1      18.524  10.222  13.588  1.00  0.00     0.032 C
HETATM   12  C13 UNL     1      18.548   9.054  14.530  1.00  0.00     0.037 C
HETATM   13  C15 UNL     1      17.020   7.088  14.800  1.00  0.00     0.050 C
ENDBRANCH   2   5
BRANCH   3  14
HETATM   14  C2  UNL     1      15.436   3.204  15.955  1.00  0.00     0.084 C
HETATM   15  C3  UNL     1      16.733   2.549  16.342  1.00  0.00     0.025 C
HETATM   16  C4  UNL     1      16.490   1.055  16.371  1.00  0.00     0.002 C
HETATM   17  C5  UNL     1      15.357   0.681  17.284  1.00  0.00     0.000 C
HETATM   18  C6  UNL     1      14.120   1.486  17.059  1.00  0.00     0.002 C
HETATM   19  C7  UNL     1      14.453   2.978  17.081  1.00  0.00     0.025 C
ENDBRANCH   3  14
TORSDOF 2
ENDMDL