MODEL 3
REMARK VINA RESULT: -6.376390390      0.785      1.678
REMARK  2 active torsions:
REMARK  status: ('A' for Active; 'I' for Inactive)
REMARK       I    between atoms: C1_2  and  N1_3
REMARK    1  A    between atoms: C1_2  and  C7_10
REMARK    2  A    between atoms: N1_3  and  C2_5
ROOT
HETATM    1  C7  UNL     1      16.849   5.731  14.337  1.00  0.00     0.206 C
HETATM    2  C8  UNL     1      16.311   6.737  15.324  1.00  0.00     0.053 C
HETATM    3  C9  UNL     1      16.960   8.063  15.047  1.00  0.00    -0.009 C
HETATM    4  C10 UNL     1      16.578   8.557  13.656  1.00  0.00     0.009 C
HETATM    5  C11 UNL     1      17.099   7.566  12.644  1.00  0.00    -0.009 C
HETATM    6  C12 UNL     1      18.587   7.365  12.742  1.00  0.00     0.037 C
HETATM    7  C13 UNL     1      18.931   6.930  14.140  1.00  0.00     0.188 C
HETATM    8  C14 UNL     1      18.461   8.001  15.088  1.00  0.00     0.037 C
HETATM    9  N2  UNL     1      18.272   5.691  14.439  1.00  0.00    -0.053 N
ATOM     10  H21 UNL     1      18.648   4.941  13.858  1.00  0.00     0.279 HD
ATOM     11  H22 UNL     1      18.551   5.356  15.362  1.00  0.00     0.279 HD
HETATM   12  C15 UNL     1      16.429   6.236  12.949  1.00  0.00     0.053 C
ENDROOT
BRANCH   1  13
HETATM   13  C1  UNL     1      16.283   4.393  14.490  1.00  0.00     0.254 C
HETATM   14  O1  UNL     1      15.819   3.830  13.447  1.00  0.00    -0.271 OA
HETATM   15  N1  UNL     1      16.232   3.702  15.747  1.00  0.00    -0.354 N
ATOM     16  H1  UNL     1      16.600   4.139  16.592  1.00  0.00     0.162 HD
BRANCH  15  17
HETATM   17  C2  UNL     1      15.661   2.399  15.800  1.00  0.00     0.084 C
HETATM   18  C3  UNL     1      16.500   1.461  16.644  1.00  0.00     0.025 C
HETATM   19  C4  UNL     1      15.766   1.380  17.950  1.00  0.00     0.002 C
HETATM   20  C5  UNL     1      14.319   1.401  17.503  1.00  0.00     0.002 C
HETATM   21  C6  UNL     1      14.266   2.367  16.364  1.00  0.00     0.025 C
ENDBRANCH  15  17
ENDBRANCH   1  13
TORSDOF 2
ENDMDL