MODEL 2
REMARK VINA RESULT: -6.874299900      0.755      1.357
REMARK  2 active torsions:
REMARK  status: ('A' for Active; 'I' for Inactive)
REMARK       I    between atoms: C1_2  and  N1_3
REMARK    1  A    between atoms: C1_2  and  C12_15
REMARK    2  A    between atoms: N1_3  and  C2_5
ROOT
HETATM    1  C2  UNL     1      16.908   5.725  14.605  1.00  0.00     0.034 C
HETATM    2  C3  UNL     1      16.540   5.900  13.150  1.00  0.00     0.035 C
HETATM    3  C4  UNL     1      17.012   7.231  12.598  1.00  0.00    -0.012 C
HETATM    4  C5  UNL     1      16.482   8.319  13.469  1.00  0.00     0.009 C
HETATM    5  C6  UNL     1      17.051   8.197  14.855  1.00  0.00    -0.012 C
HETATM    6  C7  UNL     1      18.543   8.143  14.903  1.00  0.00     0.009 C
HETATM    7  C8  UNL     1      18.974   6.924  14.084  1.00  0.00    -0.012 C
HETATM    8  C9  UNL     1      18.535   7.189  12.670  1.00  0.00     0.009 C
HETATM    9  C10 UNL     1      18.418   5.648  14.658  1.00  0.00     0.035 C
HETATM   10  C11 UNL     1      16.519   6.917  15.451  1.00  0.00     0.035 C
ENDROOT
BRANCH   1  11
HETATM   11  N1  UNL     1      16.269   4.525  15.079  1.00  0.00    -0.350 N
HETATM   12  C1  UNL     1      16.868   3.393  15.612  1.00  0.00     0.247 C
HETATM   13  O1  UNL     1      18.106   3.313  15.740  1.00  0.00    -0.271 OA
ATOM     14  H1  UNL     1      15.251   4.505  15.013  1.00  0.00     0.163 HD
BRANCH  12  15
HETATM   15  C12 UNL     1      16.046   2.246  16.046  1.00  0.00     0.213 C
HETATM   16  C13 UNL     1      14.671   2.654  16.497  1.00  0.00     0.043 C
HETATM   17  C14 UNL     1      14.248   1.478  17.342  1.00  0.00     0.029 C
HETATM   18  C15 UNL     1      15.543   0.706  17.475  1.00  0.00     0.168 C
HETATM   19  O2  UNL     1      16.560   1.599  17.152  1.00  0.00    -0.376 OA
ENDBRANCH  12  15
ENDBRANCH   1  11
TORSDOF 2
ENDMDL