MODEL 5
REMARK VINA RESULT: -4.885156401      1.987      4.227
REMARK  2 active torsions:
REMARK  status: ('A' for Active; 'I' for Inactive)
REMARK    1  A    between atoms: N1_2  and  C2_4
REMARK    2  A    between atoms: C10_12  and  N2_13
ROOT
HETATM    1  C2  UNL     1      19.553   4.540  12.788  1.00  0.00     0.082 C
HETATM    2  C3  UNL     1      19.439   4.624  14.258  1.00  0.00     0.032 C
HETATM    3  C4  UNL     1      18.203   5.136  14.852  1.00  0.00     0.023 C
HETATM    4  C5  UNL     1      17.334   4.000  15.393  1.00  0.00     0.042 C
HETATM    5  C6  UNL     1      16.151   3.937  14.487  1.00  0.00     0.223 C
HETATM    6  C7  UNL     1      16.286   3.079  13.288  1.00  0.00     0.036 C
HETATM    7  C8  UNL     1      17.652   2.874  12.757  1.00  0.00     0.011 C
HETATM    8  C9  UNL     1      18.330   3.996  12.086  1.00  0.00     0.030 C
HETATM    9  C10 UNL     1      17.478   5.169  11.698  1.00  0.00     0.086 C
HETATM   10  C13 UNL     1      17.474   6.289  12.687  1.00  0.00     0.061 C
HETATM   11  C14 UNL     1      17.261   5.943  14.109  1.00  0.00     0.229 C
HETATM   12  N3  UNL     1      15.927   5.339  14.195  1.00  0.00     0.093 N
HETATM   13  C15 UNL     1      15.174   5.899  15.316  1.00  0.00     0.310 C
ENDROOT
BRANCH   1  14
HETATM   14  N1  UNL     1      20.758   3.854  12.407  1.00  0.00    -0.421 N
HETATM   15  C1  UNL     1      21.400   4.333  11.235  1.00  0.00     0.140 C
ATOM     16  H1  UNL     1      21.128   3.070  12.945  1.00  0.00     0.153 HD
ENDBRANCH   1  14
BRANCH   9  17
HETATM   17  N2  UNL     1      18.050   5.691  10.473  1.00  0.00    -0.416 N
HETATM   18  C11 UNL     1      17.787   7.006  10.119  1.00  0.00     0.143 C
HETATM   19  C12 UNL     1      18.196   4.723   9.439  1.00  0.00     0.143 C
ENDBRANCH   9  17
TORSDOF 2
ENDMDL