MODEL 5
REMARK VINA RESULT: -6.348318534      1.237      2.403
REMARK  2 active torsions:
REMARK  status: ('A' for Active; 'I' for Inactive)
REMARK       I    between atoms: C1_2  and  N1_3
REMARK    1  A    between atoms: C1_2  and  C6_10
REMARK    2  A    between atoms: N1_3  and  C2_5
ROOT
HETATM    1  C6  UNL     1      17.454   4.944  13.724  1.00  0.00     0.042 C
HETATM    2  C7  UNL     1      16.495   6.130  13.625  1.00  0.00     0.024 C
HETATM    3  C8  UNL     1      17.208   7.351  13.144  1.00  0.00    -0.013 C
HETATM    4  C9  UNL     1      17.828   7.037  11.800  1.00  0.00     0.009 C
HETATM    5  C10 UNL     1      18.878   5.986  11.984  1.00  0.00    -0.013 C
HETATM    6  C11 UNL     1      19.896   6.336  13.030  1.00  0.00     0.009 C
HETATM    7  C12 UNL     1      19.192   6.537  14.364  1.00  0.00    -0.013 C
HETATM    8  C13 UNL     1      18.254   7.716  14.179  1.00  0.00     0.009 C
HETATM    9  C14 UNL     1      18.455   5.294  14.796  1.00  0.00     0.024 C
HETATM   10  C15 UNL     1      18.188   4.702  12.453  1.00  0.00     0.024 C
ENDROOT
BRANCH   1  11
HETATM   11  C1  UNL     1      16.632   3.770  14.068  1.00  0.00     0.226 C
HETATM   12  O1  UNL     1      16.040   3.158  13.146  1.00  0.00    -0.273 OA
HETATM   13  N1  UNL     1      16.468   3.288  15.390  1.00  0.00    -0.354 N
ATOM     14  H1  UNL     1      16.947   3.784  16.143  1.00  0.00     0.163 HD
BRANCH  13  15
HETATM   15  C2  UNL     1      15.669   2.144  15.739  1.00  0.00     0.110 C
HETATM   16  C3  UNL     1      14.985   2.263  17.079  1.00  0.00     0.053 C
HETATM   17  C4  UNL     1      15.356   1.012  17.831  1.00  0.00     0.169 C
HETATM   18  O2  UNL     1      15.818   0.131  16.882  1.00  0.00    -0.389 OA
HETATM   19  C5  UNL     1      16.463   0.871  15.915  1.00  0.00     0.192 C
ENDBRANCH  13  15
ENDBRANCH   1  11
TORSDOF 2
ENDMDL