MODEL 3
REMARK VINA RESULT: -5.488822030      2.157      2.744
REMARK  3 active torsions:
REMARK  status: ('A' for Active; 'I' for Inactive)
REMARK    1  A    between atoms: C2_2  and  C3_3
REMARK    2  A    between atoms: C3_3  and  C4_4
REMARK    3  A    between atoms: C4_4  and  N1_5
REMARK       I    between atoms: N1_5  and  C5_7
REMARK       I    between atoms: C5_7  and  N2_9
ROOT
HETATM    1  N1  UNL     1      15.979   2.241  15.645  1.00  0.00    -0.343 N
ATOM      2  H1  UNL     1      15.232   2.603  15.053  1.00  0.00     0.164 HD
HETATM    3  C5  UNL     1      17.223   2.893  15.680  1.00  0.00     0.318 C
HETATM    4  O1  UNL     1      18.144   2.427  16.424  1.00  0.00    -0.247 OA
HETATM    5  N2  UNL     1      17.508   4.035  14.936  1.00  0.00    -0.334 N
HETATM    6  C6  UNL     1      16.522   4.636  14.075  1.00  0.00     0.131 C
HETATM    7  C7  UNL     1      17.078   4.461  12.656  1.00  0.00     0.069 C
HETATM    8  C8  UNL     1      18.311   5.338  12.580  1.00  0.00     0.111 C
HETATM    9  C9  UNL     1      19.332   4.976  13.588  1.00  0.00     0.069 C
HETATM   10  C10 UNL     1      18.809   4.696  14.970  1.00  0.00     0.131 C
HETATM   11  O2  UNL     1      17.975   6.667  12.515  1.00  0.00    -0.368 OA
HETATM   12  C11 UNL     1      18.979   7.385  11.935  1.00  0.00     0.180 C
HETATM   13  C12 UNL     1      19.146   6.874  10.493  1.00  0.00     0.103 C
HETATM   14  S1  UNL     1      18.996   5.080  10.889  1.00  0.00    -0.129 SA
ENDROOT
BRANCH   1  15
HETATM   15  C4  UNL     1      15.749   1.030  16.465  1.00  0.00     0.124 C
BRANCH  15  16
HETATM   16  C3  UNL     1      14.436   1.150  17.208  1.00  0.00     0.019 C
BRANCH  16  17
HETATM   17  C2  UNL     1      14.331   2.467  17.928  1.00  0.00    -0.003 C
HETATM   18  C1  UNL     1      15.256   2.505  19.117  1.00  0.00     0.005 C
ENDBRANCH  16  17
ENDBRANCH  15  16
ENDBRANCH   1  15
TORSDOF 3
ENDMDL