MODEL 4
REMARK VINA RESULT: -6.105810800      1.870      2.526
REMARK  3 active torsions:
REMARK  status: ('A' for Active; 'I' for Inactive)
REMARK    1  A    between atoms: C2_2  and  N1_3
REMARK    2  A    between atoms: C5_6  and  C6_7
REMARK       I    between atoms: C6_7  and  N2_9
REMARK    3  A    between atoms: N2_9  and  C7_11
ROOT
HETATM    1  C6  UNL     1      17.274   3.777  13.467  1.00  0.00     0.224 C
HETATM    2  O1  UNL     1      16.400   3.376  12.668  1.00  0.00    -0.273 OA
HETATM    3  N2  UNL     1      17.241   3.379  14.830  1.00  0.00    -0.356 N
ATOM      4  H2  UNL     1      17.955   3.708  15.480  1.00  0.00     0.162 HD
ENDROOT
BRANCH   1   5
HETATM    5  C5  UNL     1      18.379   4.675  13.057  1.00  0.00     0.115 C
HETATM    6  C4  UNL     1      19.246   5.087  14.230  1.00  0.00     0.063 C
HETATM    7  C3  UNL     1      19.140   6.569  14.201  1.00  0.00     0.285 C
HETATM    8  N1  UNL     1      18.950   6.872  12.776  1.00  0.00     0.108 N
HETATM    9  S1  UNL     1      17.441   6.996  14.761  1.00  0.00    -0.131 SA
HETATM   10  C13 UNL     1      17.872   5.966  12.436  1.00  0.00     0.246 C
HETATM   11  C14 UNL     1      16.635   6.481  13.186  1.00  0.00     0.112 C
BRANCH   8  12
HETATM   12  C2  UNL     1      18.586   8.262  12.581  1.00  0.00     0.270 C
HETATM   13  C1  UNL     1      19.854   9.069  12.610  1.00  0.00     0.037 C
ENDBRANCH   8  12
ENDBRANCH   1   5
BRANCH   3  14
HETATM   14  C7  UNL     1      16.188   2.504  15.284  1.00  0.00     0.084 C
HETATM   15  C8  UNL     1      14.981   3.267  15.774  1.00  0.00     0.025 C
HETATM   16  C9  UNL     1      14.902   3.316  17.285  1.00  0.00     0.002 C
HETATM   17  C10 UNL     1      14.793   1.930  17.883  1.00  0.00     0.000 C
HETATM   18  C11 UNL     1      15.586   0.926  17.046  1.00  0.00     0.002 C
HETATM   19  C12 UNL     1      16.747   1.708  16.452  1.00  0.00     0.025 C
ENDBRANCH   3  14
TORSDOF 3
ENDMDL