MODEL 3
REMARK VINA RESULT: -5.494448911      1.006      1.199
REMARK  5 active torsions:
REMARK  status: ('A' for Active; 'I' for Inactive)
REMARK    1  A    between atoms: C1_2  and  C2_3
REMARK       I    between atoms: C1_2  and  N2_12
REMARK    2  A    between atoms: C2_3  and  S1_4
REMARK    3  A    between atoms: S1_4  and  C3_5
REMARK    4  A    between atoms: C3_5  and  N1_7
REMARK    5  A    between atoms: N1_7  and  C4_9
ROOT
HETATM    1  C2  UNL     1      16.431   3.369  13.363  1.00  0.00     0.184 C
ENDROOT
BRANCH   1   2
HETATM    2  C1  UNL     1      16.553   2.119  14.126  1.00  0.00     0.229 C
HETATM    3  O1  UNL     1      16.959   1.066  13.587  1.00  0.00    -0.273 OA
HETATM    4  N2  UNL     1      16.202   2.091  15.519  1.00  0.00    -0.351 N
HETATM    5  C7  UNL     1      16.311   0.876  16.290  1.00  0.00     0.125 C
HETATM    6  C11 UNL     1      15.735   3.283  16.186  1.00  0.00     0.125 C
HETATM    7  C8  UNL     1      15.456   0.965  17.515  1.00  0.00     0.020 C
HETATM    8  C9  UNL     1      14.157   1.621  17.107  1.00  0.00     0.003 C
HETATM    9  C10 UNL     1      14.412   3.066  16.871  1.00  0.00     0.020 C
ENDBRANCH   1   2
BRANCH   1  10
HETATM   10  S1  UNL     1      17.676   3.448  12.055  1.00  0.00    -0.091 SA
BRANCH  10  11
HETATM   11  C3  UNL     1      19.119   4.265  12.672  1.00  0.00     0.135 C
HETATM   12  S2  UNL     1      20.390   4.493  11.695  1.00  0.00    -0.053 SA
BRANCH  11  13
HETATM   13  N1  UNL     1      19.168   4.715  14.004  1.00  0.00    -0.371 N
ATOM     14  H1  UNL     1      19.289   4.052  14.770  1.00  0.00     0.161 HD
BRANCH  13  15
HETATM   15  C4  UNL     1      19.042   6.137  14.272  1.00  0.00     0.083 A
HETATM   16  C5  UNL     1      18.028   6.932  13.501  1.00  0.00     0.027 A
HETATM   17  C6  UNL     1      17.701   6.515  14.897  1.00  0.00     0.027 A
ENDBRANCH  13  15
ENDBRANCH  11  13
ENDBRANCH  10  11
ENDBRANCH   1  10
TORSDOF 5
ENDMDL