MODEL 2
REMARK VINA RESULT: -6.283999348      1.609      1.686
REMARK  4 active torsions:
REMARK  status: ('A' for Active; 'I' for Inactive)
REMARK       I    between atoms: N1_2  and  C2_4
REMARK    1  A    between atoms: C2_4  and  O2_6
REMARK    2  A    between atoms: O2_6  and  C3_7
REMARK    3  A    between atoms: C12_17  and  N3_18
REMARK    4  A    between atoms: N3_18  and  N4_20
ROOT
HETATM    1  C3  UNL     1      16.049   3.183  14.132  1.00  0.00     0.184 C
HETATM    2  C4  UNL     1      15.982   4.542  13.554  1.00  0.00     0.272 C
HETATM    3  N2  UNL     1      16.241   5.616  14.468  1.00  0.00    -0.065 N
HETATM    4  C5  UNL     1      17.665   5.655  14.773  1.00  0.00     0.237 C
HETATM    5  C6  UNL     1      18.342   6.874  14.224  1.00  0.00     0.028 C
HETATM    6  C7  UNL     1      18.121   6.951  12.715  1.00  0.00     0.003 C
HETATM    7  C8  UNL     1      16.630   7.049  12.505  1.00  0.00     0.028 C
HETATM    8  C9  UNL     1      15.887   6.852  13.792  1.00  0.00     0.237 C
HETATM    9  C10 UNL     1      15.447   5.565  15.668  1.00  0.00     0.239 C
HETATM   10  C11 UNL     1      15.107   4.187  16.124  1.00  0.00     0.057 C
HETATM   11  C12 UNL     1      16.104   3.152  15.646  1.00  0.00     0.133 C
ENDROOT
BRANCH  11  12
HETATM   12  N3  UNL     1      15.622   1.838  16.049  1.00  0.00    -0.315 N
ATOM     13  H3  UNL     1      14.642   1.663  16.272  1.00  0.00     0.182 HD
BRANCH  12  14
HETATM   14  N4  UNL     1      16.482   0.945  16.104  1.00  0.00    -0.253 N
HETATM   15  N5  UNL     1      17.271   0.130  15.626  1.00  0.00    -0.331 N
ATOM     16  H52 UNL     1      17.120   0.295  14.631  1.00  0.00     0.178 HD
ATOM     17  H51 UNL     1      17.978  -0.604  15.672  1.00  0.00     0.178 HD
ATOM     18  H4  UNL     1      16.603   0.811  17.108  1.00  0.00     0.207 HD
ENDBRANCH  12  14
ENDBRANCH  11  12
BRANCH   1  19
HETATM   19  O2  UNL     1      17.123   2.405  13.607  1.00  0.00    -0.295 OA
BRANCH  19  20
HETATM   20  C2  UNL     1      16.946   1.530  12.534  1.00  0.00     0.360 C
HETATM   21  N1  UNL     1      16.140   1.865  11.410  1.00  0.00    -0.341 N
HETATM   22  C1  UNL     1      16.015   0.895  10.347  1.00  0.00     0.151 C
ATOM     23  H1  UNL     1      15.664   2.765  11.357  1.00  0.00     0.164 HD
HETATM   24  O1  UNL     1      17.542   0.426  12.619  1.00  0.00    -0.239 OA
ENDBRANCH  19  20
ENDBRANCH   1  19
TORSDOF 4
ENDMDL