MODEL 1
REMARK VINA RESULT: -5.977037118      0.000      0.000
REMARK  4 active torsions:
REMARK  status: ('A' for Active; 'I' for Inactive)
REMARK    1  A    between atoms: C3_3  and  C6_6
REMARK    2  A    between atoms: C11_11  and  C12_12
REMARK    3  A    between atoms: C12_12  and  C13_14
REMARK    4  A    between atoms: C13_14  and  O2_15
ROOT
HETATM    1  C1  UNL     1      18.212   7.366  11.934  1.00  0.00     0.013 C
HETATM    2  C2  UNL     1      17.827   7.453  13.066  1.00  0.00    -0.106 C
HETATM    3  C3  UNL     1      17.352   7.568  14.431  1.00  0.00     0.035 C
HETATM    4  C4  UNL     1      18.478   7.900  15.390  1.00  0.00     0.031 C
HETATM    5  C5  UNL     1      16.436   8.810  14.453  1.00  0.00     0.031 C
ENDROOT
BRANCH   3   6
HETATM    6  C6  UNL     1      16.559   6.457  14.932  1.00  0.00     0.099 C
HETATM    7  C7  UNL     1      15.294   6.330  14.056  1.00  0.00     0.029 C
HETATM    8  C8  UNL     1      14.825   4.895  14.296  1.00  0.00     0.033 C
HETATM    9  C9  UNL     1      15.845   4.354  15.282  1.00  0.00     0.035 C
HETATM   10  C10 UNL     1      15.328   4.661  16.664  1.00  0.00     0.039 C
HETATM   11  C11 UNL     1      16.017   2.878  15.045  1.00  0.00     0.085 C
HETATM   12  N1  UNL     1      16.967   5.152  14.993  1.00  0.00    -0.397 N
HETATM   13  C14 UNL     1      16.718   2.584  13.778  1.00  0.00     0.016 C
HETATM   14  C15 UNL     1      17.627   3.678  13.282  1.00  0.00     0.020 C
HETATM   15  C16 UNL     1      18.075   4.582  14.445  1.00  0.00     0.118 C
BRANCH  11  16
HETATM   16  C12 UNL     1      16.581   2.148  16.179  1.00  0.00     0.156 C
HETATM   17  O1  UNL     1      17.775   2.055  16.427  1.00  0.00    -0.295 OA
BRANCH  16  18
HETATM   18  C13 UNL     1      15.670   1.455  17.124  1.00  0.00     0.242 C
BRANCH  18  19
HETATM   19  O2  UNL     1      15.579   0.073  16.847  1.00  0.00    -0.394 OA
ATOM     20  H2  UNL     1      15.170  -0.092  16.006  1.00  0.00     0.209 HD
ENDBRANCH  18  19
ENDBRANCH  16  18
ENDBRANCH  11  16
ENDBRANCH   3   6
TORSDOF 4
ENDMDL