MODEL 2
REMARK VINA RESULT: -5.188695398      2.249      4.723
REMARK  5 active torsions:
REMARK  status: ('A' for Active; 'I' for Inactive)
REMARK    1  A    between atoms: C5_6  and  C6_7
REMARK    2  A    between atoms: C5_6  and  C11_15
REMARK    3  A    between atoms: C6_7  and  N2_8
REMARK    4  A    between atoms: C9_11  and  O1_12
REMARK    5  A    between atoms: C11_15  and  C12_16
ROOT
HETATM    1  C1  UNL     1      18.426   5.290  14.662  1.00  0.00     0.310 C
HETATM    2  N1  UNL     1      17.274   5.065  15.484  1.00  0.00     0.095 N
HETATM    3  C2  UNL     1      16.406   6.190  15.331  1.00  0.00     0.273 C
HETATM    4  C3  UNL     1      15.414   5.654  14.288  1.00  0.00     0.033 C
HETATM    5  C4  UNL     1      15.139   4.318  14.943  1.00  0.00     0.045 C
HETATM    6  C5  UNL     1      16.550   3.837  15.207  1.00  0.00     0.186 C
ENDROOT
BRANCH   6   7
HETATM    7  C6  UNL     1      17.112   3.172  14.019  1.00  0.00     0.314 C
BRANCH   7   8
HETATM    8  N2  UNL     1      16.253   2.656  12.986  1.00  0.00     0.093 N
HETATM    9  C7  UNL     1      16.666   1.228  12.863  1.00  0.00     0.275 C
HETATM   10  C8  UNL     1      16.616   0.830  11.455  1.00  0.00     0.064 C
HETATM   11  C9  UNL     1      16.198   2.029  10.692  1.00  0.00     0.148 C
HETATM   12  C10 UNL     1      16.603   3.167  11.642  1.00  0.00     0.303 C
BRANCH  11  13
HETATM   13  O1  UNL     1      14.831   2.141  10.482  1.00  0.00    -0.394 OA
ATOM     14  H1  UNL     1      14.492   3.028  10.523  1.00  0.00     0.210 HD
ENDBRANCH  11  13
ENDBRANCH   7   8
ENDBRANCH   6   7
BRANCH   6  15
HETATM   15  C11 UNL     1      16.415   2.994  16.451  1.00  0.00     0.051 C
BRANCH  15  16
HETATM   16  C12 UNL     1      15.102   2.853  17.090  1.00  0.00    -0.049 C
HETATM   17  C13 UNL     1      14.286   4.062  17.363  1.00  0.00     0.014 C
HETATM   18  C14 UNL     1      15.431   2.301  18.512  1.00  0.00     0.014 C
HETATM   19  C15 UNL     1      14.255   1.724  16.503  1.00  0.00     0.014 C
ENDBRANCH  15  16
ENDBRANCH   6  15
TORSDOF 5
ENDMDL