MODEL 5
REMARK VINA RESULT: -5.611297473      1.401      6.587
REMARK  3 active torsions:
REMARK  status: ('A' for Active; 'I' for Inactive)
REMARK    1  A    between atoms: N2_5  and  C4_6
REMARK    2  A    between atoms: C4_6  and  C5_7
REMARK    3  A    between atoms: C5_7  and  C6_8
ROOT
HETATM    1  C6  UNL     1      17.275   6.832  14.816  1.00  0.00     0.025 C
HETATM    2  C7  UNL     1      18.764   7.121  14.567  1.00  0.00     0.045 C
HETATM    3  C8  UNL     1      18.850   8.543  14.116  1.00  0.00     0.120 C
HETATM    4  C9  UNL     1      19.471   8.621  12.718  1.00  0.00     0.046 C
HETATM    5  C10 UNL     1      19.764   9.363  15.016  1.00  0.00     0.046 C
HETATM    6  N3  UNL     1      17.537   9.089  14.164  1.00  0.00    -0.059 N
ATOM      7  H31 UNL     1      17.365   9.772  13.427  1.00  0.00     0.279 HD
ATOM      8  H32 UNL     1      17.397   9.711  14.961  1.00  0.00     0.279 HD
HETATM    9  C11 UNL     1      16.591   7.986  14.140  1.00  0.00     0.123 C
HETATM   10  C12 UNL     1      16.248   7.740  12.691  1.00  0.00     0.046 C
HETATM   11  C13 UNL     1      15.318   8.330  14.860  1.00  0.00     0.046 C
ENDROOT
BRANCH   1  12
HETATM   12  C5  UNL     1      16.894   5.476  14.364  1.00  0.00     0.037 C
BRANCH  12  13
HETATM   13  C4  UNL     1      17.652   4.379  15.065  1.00  0.00     0.273 C
BRANCH  13  14
HETATM   14  N2  UNL     1      16.867   3.159  15.129  1.00  0.00     0.091 N
HETATM   15  C3  UNL     1      15.457   3.420  15.193  1.00  0.00     0.302 C
HETATM   16  C2  UNL     1      14.942   3.440  16.622  1.00  0.00     0.302 C
HETATM   17  N1  UNL     1      15.002   2.154  17.248  1.00  0.00     0.087 N
HETATM   18  C1  UNL     1      13.778   1.393  17.084  1.00  0.00     0.310 C
HETATM   19  C15 UNL     1      16.079   1.400  16.598  1.00  0.00     0.302 C
HETATM   20  C14 UNL     1      17.218   2.362  16.294  1.00  0.00     0.302 C
ENDBRANCH  13  14
ENDBRANCH  12  13
ENDBRANCH   1  12
TORSDOF 3
ENDMDL