MODEL 2
REMARK VINA RESULT: -4.923631953      0.737      1.280
REMARK  5 active torsions:
REMARK  status: ('A' for Active; 'I' for Inactive)
REMARK    1  A    between atoms: C2_2  and  N1_4
REMARK    2  A    between atoms: N1_4  and  C4_6
REMARK    3  A    between atoms: C4_6  and  N2_8
REMARK    4  A    between atoms: C7_12  and  C8_13
REMARK    5  A    between atoms: C8_13  and  C9_15
ROOT
HETATM    1  N2  UNL     1      17.433   4.163  12.962  1.00  0.00    -0.337 N
HETATM    2  C5  UNL     1      17.256   3.941  11.567  1.00  0.00     0.137 C
HETATM    3  C6  UNL     1      16.341   2.811  11.270  1.00  0.00     0.096 C
HETATM    4  S2  UNL     1      16.853   1.690  12.647  1.00  0.00    -0.134 SA
HETATM    5  C7  UNL     1      17.162   3.053  13.843  1.00  0.00     0.218 C
ENDROOT
BRANCH   1   6
HETATM    6  C4  UNL     1      17.862   5.429  13.456  1.00  0.00     0.171 C
HETATM    7  S1  UNL     1      19.344   5.642  14.128  1.00  0.00    -0.041 SA
BRANCH   6   8
HETATM    8  N1  UNL     1      17.030   6.548  13.386  1.00  0.00    -0.363 N
ATOM      9  H1  UNL     1      17.171   7.207  12.620  1.00  0.00     0.162 HD
BRANCH   8  10
HETATM   10  C2  UNL     1      15.972   6.826  14.345  1.00  0.00     0.075 C
HETATM   11  C1  UNL     1      14.709   7.275  13.635  1.00  0.00     0.032 C
HETATM   12  C3  UNL     1      16.444   7.908  15.265  1.00  0.00     0.032 C
ENDBRANCH   8  10
ENDBRANCH   6   8
ENDBRANCH   1   6
BRANCH   5  13
HETATM   13  C8  UNL     1      15.948   3.266  14.657  1.00  0.00     0.163 C
HETATM   14  O1  UNL     1      14.911   3.579  14.114  1.00  0.00    -0.294 OA
BRANCH  13  15
HETATM   15  C9  UNL     1      15.975   3.105  16.117  1.00  0.00     0.050 C
HETATM   16  C10 UNL     1      14.638   3.489  16.749  1.00  0.00     0.017 C
HETATM   17  C11 UNL     1      16.272   1.663  16.464  1.00  0.00     0.017 C
ENDBRANCH  13  15
ENDBRANCH   5  13
TORSDOF 5
ENDMDL