MODEL 1
REMARK VINA RESULT: -6.597143808      0.000      0.000
REMARK  3 active torsions:
REMARK  status: ('A' for Active; 'I' for Inactive)
REMARK    1  A    between atoms: C2_2  and  C4_4
REMARK    2  A    between atoms: C4_4  and  N1_5
REMARK       I    between atoms: N1_5  and  C5_7
REMARK    3  A    between atoms: C5_7  and  C6_9
ROOT
HETATM    1  C6  UNL     1      17.548   4.237  14.793  1.00  0.00     0.214 C
HETATM    2  C7  UNL     1      19.006   4.594  14.764  1.00  0.00     0.042 C
HETATM    3  C8  UNL     1      19.278   5.960  14.235  1.00  0.00     0.006 C
HETATM    4  C9  UNL     1      18.210   6.960  14.472  1.00  0.00     0.041 C
HETATM    5  C10 UNL     1      16.833   6.426  14.605  1.00  0.00     0.088 C
HETATM    6  C11 UNL     1      16.033   7.437  15.448  1.00  0.00     0.206 C
HETATM    7  O2  UNL     1      15.416   8.242  14.503  1.00  0.00    -0.388 OA
HETATM    8  C12 UNL     1      14.822   7.298  13.670  1.00  0.00     0.175 C
HETATM    9  C13 UNL     1      16.033   6.412  13.343  1.00  0.00     0.042 C
HETATM   10  C14 UNL     1      16.721   7.066  12.177  1.00  0.00     0.015 C
HETATM   11  O3  UNL     1      16.755   5.235  15.313  1.00  0.00    -0.363 OA
ENDROOT
BRANCH   1  12
HETATM   12  C5  UNL     1      17.383   3.033  15.664  1.00  0.00     0.246 C
HETATM   13  N1  UNL     1      16.183   2.277  15.683  1.00  0.00    -0.359 N
ATOM     14  H1  UNL     1      15.398   2.549  15.090  1.00  0.00     0.162 HD
HETATM   15  O1  UNL     1      18.340   2.675  16.407  1.00  0.00    -0.271 OA
BRANCH  13  16
HETATM   16  C4  UNL     1      16.078   1.137  16.531  1.00  0.00     0.126 C
BRANCH  16  17
HETATM   17  C2  UNL     1      15.035   1.231  17.586  1.00  0.00    -0.005 C
HETATM   18  C1  UNL     1      15.270   2.328  18.584  1.00  0.00     0.011 C
HETATM   19  C3  UNL     1      13.708   1.555  16.887  1.00  0.00     0.011 C
ENDBRANCH  16  17
ENDBRANCH  13  16
ENDBRANCH   1  12
TORSDOF 3
ENDMDL