MODEL 2
REMARK VINA RESULT: -5.798873641      1.813      2.651
REMARK  4 active torsions:
REMARK  status: ('A' for Active; 'I' for Inactive)
REMARK    1  A    between atoms: N2_10  and  C9_11
REMARK    2  A    between atoms: C9_11  and  C10_12
REMARK    3  A    between atoms: C15_17  and  C16_18
REMARK    4  A    between atoms: C16_18  and  O1_19
ROOT
HETATM    1  C1  UNL     1      19.512   6.909  13.742  1.00  0.00     0.310 C
HETATM    2  N1  UNL     1      18.130   6.895  14.072  1.00  0.00     0.091 N
HETATM    3  C2  UNL     1      17.241   6.962  12.962  1.00  0.00     0.284 C
HETATM    4  C3  UNL     1      15.877   7.422  13.057  1.00  0.00     0.008 C
HETATM    5  C4  UNL     1      15.368   8.730  13.541  1.00  0.00     0.018 C
HETATM    6  C5  UNL     1      16.561   9.519  13.114  1.00  0.00    -0.011 C
HETATM    7  C6  UNL     1      17.614   9.173  14.036  1.00  0.00     0.042 C
HETATM    8  C7  UNL     1      17.701   8.025  14.907  1.00  0.00     0.240 C
HETATM    9  C8  UNL     1      16.643   7.361  15.689  1.00  0.00     0.157 C
HETATM   10  N2  UNL     1      15.926   6.306  15.079  1.00  0.00    -0.390 N
HETATM   11  C13 UNL     1      15.144   6.507  13.889  1.00  0.00     0.133 C
HETATM   12  C14 UNL     1      16.523   9.061  11.682  1.00  0.00     0.012 C
HETATM   13  C15 UNL     1      15.633   7.784  11.628  1.00  0.00     0.021 C
ENDROOT
BRANCH  10  14
HETATM   14  C9  UNL     1      16.240   4.975  15.375  1.00  0.00     0.062 C
BRANCH  14  15
HETATM   15  C10 UNL     1      15.112   3.989  15.470  1.00  0.00     0.024 A
HETATM   16  C11 UNL     1      14.523   3.793  16.906  1.00  0.00     0.010 A
HETATM   17  C12 UNL     1      15.183   2.708  16.168  1.00  0.00     0.010 A
ENDBRANCH  14  15
ENDBRANCH  10  14
BRANCH  13  18
HETATM   18  C16 UNL     1      16.021   6.867  10.569  1.00  0.00     0.169 C
BRANCH  18  19
HETATM   19  O1  UNL     1      14.903   6.480   9.789  1.00  0.00    -0.400 OA
ATOM     20  H1  UNL     1      15.147   6.343   8.881  1.00  0.00     0.209 HD
ENDBRANCH  18  19
ENDBRANCH  13  18
TORSDOF 4
ENDMDL