MODEL 4
REMARK VINA RESULT: -6.748916682      2.204      2.815
REMARK  2 active torsions:
REMARK  status: ('A' for Active; 'I' for Inactive)
REMARK    1  A    between atoms: N1_6  and  C5_7
REMARK    2  A    between atoms: C5_7  and  C6_8
ROOT
HETATM    1  C6  UNL     1      -0.097   4.870  84.880  1.00  0.00     0.218 C
HETATM    2  N2  UNL     1      -0.295   3.486  84.529  1.00  0.00    -0.069 N
ATOM      3  H21 UNL     1       0.353   3.139  83.822  1.00  0.00     0.277 HD
ATOM      4  H22 UNL     1      -1.147   3.310  83.997  1.00  0.00     0.277 HD
HETATM    5  C7  UNL     1      -0.229   2.783  85.782  1.00  0.00     0.237 C
HETATM    6  C8  UNL     1      -0.395   3.738  86.907  1.00  0.00     0.017 C
HETATM    7  C9  UNL     1      -1.420   3.370  87.924  1.00  0.00     0.007 C
HETATM    8  C10 UNL     1      -2.762   3.328  87.272  1.00  0.00     0.000 C
HETATM    9  C11 UNL     1      -3.145   4.580  86.584  1.00  0.00     0.000 C
HETATM   10  C12 UNL     1      -2.061   5.553  86.327  1.00  0.00     0.007 C
HETATM   11  C13 UNL     1      -0.679   5.046  86.214  1.00  0.00     0.024 C
ENDROOT
BRANCH   1  12
HETATM   12  C5  UNL     1      -0.577   5.795  83.794  1.00  0.00     0.305 C
BRANCH  12  13
HETATM   13  N1  UNL     1       0.476   6.761  83.439  1.00  0.00     0.093 N
HETATM   14  C4  UNL     1       1.315   6.082  82.468  1.00  0.00     0.304 C
HETATM   15  C3  UNL     1       1.539   6.769  81.183  1.00  0.00     0.153 C
HETATM   16  O1  UNL     1       0.505   6.642  80.270  1.00  0.00    -0.384 OA
HETATM   17  C16 UNL     1       1.843   8.216  81.380  1.00  0.00     0.018 C
HETATM   18  C2  UNL     1       1.062   6.910  79.022  1.00  0.00     0.168 C
HETATM   19  C1  UNL     1       1.479   8.346  78.879  1.00  0.00     0.027 C
HETATM   20  C17 UNL     1       2.145   8.919  80.097  1.00  0.00     0.009 C
HETATM   21  C15 UNL     1       0.776   8.861  82.215  1.00  0.00     0.037 C
HETATM   22  C14 UNL     1      -0.187   7.913  82.820  1.00  0.00     0.273 C
ENDBRANCH  12  13
ENDBRANCH   1  12
TORSDOF 2
ENDMDL