MODEL 3
REMARK VINA RESULT: -6.495399387      1.695      2.920
REMARK  3 active torsions:
REMARK  status: ('A' for Active; 'I' for Inactive)
REMARK    1  A    between atoms: C4_4  and  C5_5
REMARK    2  A    between atoms: C9_10  and  N1_11
REMARK    3  A    between atoms: C14_16  and  C15_17
ROOT
HETATM    1  C5  UNL     1       0.862   8.717  83.170  1.00  0.00     0.040 C
HETATM    2  C6  UNL     1       2.171   9.429  83.540  1.00  0.00     0.084 C
HETATM    3  S1  UNL     1       1.850  10.493  84.935  1.00  0.00    -0.168 SA
HETATM    4  C7  UNL     1       0.304  10.205  85.772  1.00  0.00     0.076 C
HETATM    5  C8  UNL     1      -0.548   9.126  85.193  1.00  0.00     0.036 C
HETATM    6  C9  UNL     1       0.290   8.116  84.395  1.00  0.00     0.092 C
ENDROOT
BRANCH   6   7
HETATM    7  N1  UNL     1      -0.407   6.922  84.332  1.00  0.00    -0.387 N
HETATM    8  C10 UNL     1      -0.106   5.870  83.483  1.00  0.00     0.128 C
HETATM    9  C11 UNL     1      -0.659   4.626  84.187  1.00  0.00     0.028 A
HETATM   10  C12 UNL     1      -1.557   5.166  85.232  1.00  0.00     0.045 A
HETATM   11  C14 UNL     1      -0.307   4.448  85.617  1.00  0.00     0.102 A
HETATM   12  C13 UNL     1      -1.500   6.678  85.188  1.00  0.00     0.064 C
BRANCH  11  13
HETATM   13  C15 UNL     1      -0.510   3.130  86.248  1.00  0.00     0.178 C
HETATM   14  O1  UNL     1      -0.719   3.015  87.481  1.00  0.00    -0.648 OA
HETATM   15  O2  UNL     1      -0.477   1.960  85.503  1.00  0.00    -0.648 OA
ENDBRANCH  11  13
ENDBRANCH   6   7
BRANCH   1  16
HETATM   16  C4  UNL     1       0.002   9.755  82.538  1.00  0.00    -0.017 C
HETATM   17  C2  UNL     1      -0.659   9.568  81.416  1.00  0.00    -0.091 C
HETATM   18  C1  UNL     1      -1.493  10.653  80.856  1.00  0.00     0.042 C
HETATM   19  C3  UNL     1      -0.572   8.278  80.689  1.00  0.00     0.042 C
ENDBRANCH   1  16
TORSDOF 3
ENDMDL