MODEL 5
REMARK VINA RESULT: -5.285447763      2.630      3.995
REMARK  4 active torsions:
REMARK  status: ('A' for Active; 'I' for Inactive)
REMARK    1  A    between atoms: C2_2  and  C3_3
REMARK       I    between atoms: C3_3  and  N1_5
REMARK    2  A    between atoms: N1_5  and  C4_7
REMARK       I    between atoms: N2_13  and  C10_14
REMARK    3  A    between atoms: C10_14  and  O3_16
REMARK    4  A    between atoms: O3_16  and  C11_17
ROOT
HETATM    1  C4  UNL     1      -0.286   6.684  84.117  1.00  0.00     0.102 C
HETATM    2  C5  UNL     1       0.221   6.554  82.715  1.00  0.00     0.027 C
HETATM    3  C6  UNL     1       1.668   6.249  82.568  1.00  0.00     0.008 C
HETATM    4  C7  UNL     1       2.383   7.603  82.463  1.00  0.00    -0.000 C
HETATM    5  C8  UNL     1       3.682   7.497  81.743  1.00  0.00     0.011 C
HETATM    6  C9  UNL     1       2.523   8.077  83.891  1.00  0.00     0.132 C
HETATM    7  N2  UNL     1       1.249   8.608  84.294  1.00  0.00    -0.326 N
HETATM    8  C10 UNL     1       1.136  10.010  84.165  1.00  0.00     0.363 C
HETATM    9  O2  UNL     1       0.094  10.650  84.469  1.00  0.00    -0.238 OA
HETATM   10  C15 UNL     1       0.091   7.957  84.800  1.00  0.00     0.153 C
ENDROOT
BRANCH   8  11
HETATM   11  O3  UNL     1       2.201  10.745  83.684  1.00  0.00    -0.294 OA
BRANCH  11  12
HETATM   12  C11 UNL     1       2.899  11.637  84.507  1.00  0.00     0.061 C
HETATM   13  C12 UNL     1       2.904  11.205  85.956  1.00  0.00     0.046 C
HETATM   14  C13 UNL     1       2.417  13.064  84.369  1.00  0.00     0.046 C
HETATM   15  C14 UNL     1       4.367  11.643  84.062  1.00  0.00     0.046 C
ENDBRANCH  11  12
ENDBRANCH   8  11
BRANCH   1  16
HETATM   16  N1  UNL     1       0.147   5.588  84.955  1.00  0.00    -0.355 N
HETATM   17  C3  UNL     1      -0.797   4.900  85.766  1.00  0.00     0.217 C
HETATM   18  O1  UNL     1      -2.025   5.222  85.779  1.00  0.00    -0.274 OA
ATOM     19  H1  UNL     1       1.128   5.309  84.965  1.00  0.00     0.162 HD
BRANCH  17  20
HETATM   20  C2  UNL     1      -0.375   3.784  86.625  1.00  0.00     0.098 C
HETATM   21  C1  UNL     1      -1.546   3.138  87.298  1.00  0.00     0.014 C
ENDBRANCH  17  20
ENDBRANCH   1  16
TORSDOF 4
ENDMDL