MODEL 1
REMARK VINA RESULT: -6.884870954      0.000      0.000
REMARK  3 active torsions:
REMARK  status: ('A' for Active; 'I' for Inactive)
REMARK    1  A    between atoms: C2_2  and  C3_3
REMARK    2  A    between atoms: C4_4  and  N1_5
REMARK    3  A    between atoms: N2_11  and  C7_12
ROOT
HETATM    1  C7  UNL     1       0.206   7.767  84.606  1.00  0.00     0.224 C
HETATM    2  C8  UNL     1      -1.289   7.866  84.510  1.00  0.00     0.036 C
HETATM    3  C9  UNL     1      -1.860   6.688  85.264  1.00  0.00     0.014 C
HETATM    4  C10 UNL     1      -0.752   5.677  85.354  1.00  0.00    -0.006 C
HETATM    5  C11 UNL     1      -0.953   4.549  84.396  1.00  0.00     0.042 C
HETATM    6  C12 UNL     1      -0.289   3.382  85.096  1.00  0.00     0.273 C
HETATM    7  N3  UNL     1      -0.428   3.623  86.501  1.00  0.00     0.093 N
HETATM    8  C13 UNL     1      -1.488   2.806  87.031  1.00  0.00     0.273 C
HETATM    9  C14 UNL     1      -2.318   3.688  87.922  1.00  0.00     0.032 C
HETATM   10  C15 UNL     1      -2.177   5.038  87.268  1.00  0.00     0.038 C
HETATM   11  C16 UNL     1      -0.797   4.992  86.695  1.00  0.00     0.231 C
HETATM   12  C17 UNL     1       0.545   6.419  85.146  1.00  0.00     0.047 C
ENDROOT
BRANCH   1  13
HETATM   13  N2  UNL     1       0.744   8.008  83.277  1.00  0.00     0.100 N
HETATM   14  C3  UNL     1       1.351   6.834  82.702  1.00  0.00     0.253 C
HETATM   15  C4  UNL     1       2.802   7.120  82.482  1.00  0.00     0.218 C
HETATM   16  C5  UNL     1       3.064   8.170  83.567  1.00  0.00     0.065 C
HETATM   17  C6  UNL     1       1.794   9.000  83.430  1.00  0.00     0.275 C
BRANCH  14  18
HETATM   18  C2  UNL     1       0.724   6.585  81.336  1.00  0.00     0.033 C
HETATM   19  C1  UNL     1      -0.174   7.714  80.921  1.00  0.00     0.007 C
ENDBRANCH  14  18
BRANCH  15  20
HETATM   20  N1  UNL     1       3.660   5.990  82.594  1.00  0.00    -0.073 N
ATOM     21  H13 UNL     1       3.371   5.404  83.377  1.00  0.00     0.274 HD
ATOM     22  H12 UNL     1       3.496   5.345  81.821  1.00  0.00     0.274 HD
ATOM     23  H11 UNL     1       4.653   6.210  82.667  1.00  0.00     0.274 HD
ENDBRANCH  15  20
ENDBRANCH   1  13
TORSDOF 3
ENDMDL