MODEL 4
REMARK VINA RESULT: -5.698191278      2.584      5.696
REMARK  2 active torsions:
REMARK  status: ('A' for Active; 'I' for Inactive)
REMARK       I    between atoms: N1_2  and  C2_4
REMARK    1  A    between atoms: C2_4  and  C3_6
REMARK    2  A    between atoms: C6_9  and  C8_11
ROOT
HETATM    1  C3  UNL     1       0.594   6.321  83.184  1.00  0.00     0.118 C
HETATM    2  C4  UNL     1      -0.469   7.389  83.493  1.00  0.00     0.032 C
HETATM    3  C5  UNL     1      -0.675   7.364  84.957  1.00  0.00     0.014 C
HETATM    4  C6  UNL     1       0.023   8.563  82.814  1.00  0.00     0.068 C
HETATM    5  C7  UNL     1      -0.920   8.851  81.625  1.00  0.00     0.047 C
HETATM    6  O3  UNL     1       1.261   8.328  82.222  1.00  0.00    -0.369 OA
HETATM    7  C14 UNL     1       1.462   6.969  82.158  1.00  0.00     0.067 C
HETATM    8  C15 UNL     1       1.233   6.413  80.762  1.00  0.00     0.046 C
HETATM    9  C16 UNL     1       2.939   6.709  82.404  1.00  0.00     0.046 C
ENDROOT
BRANCH   4  10
HETATM   10  C8  UNL     1       0.140   9.886  83.532  1.00  0.00     0.044 C
HETATM   11  C9  UNL     1       1.491  10.189  84.066  1.00  0.00     0.012 C
HETATM   12  C10 UNL     1       1.829  11.645  84.178  1.00  0.00     0.032 C
HETATM   13  C11 UNL     1       0.574  12.467  84.181  1.00  0.00     0.117 C
HETATM   14  C12 UNL     1       0.885  13.927  84.329  1.00  0.00     0.039 C
HETATM   15  O2  UNL     1       0.009  12.233  82.914  1.00  0.00    -0.386 OA
HETATM   16  C13 UNL     1      -0.587  11.000  82.855  1.00  0.00     0.175 C
ENDBRANCH   4  10
BRANCH   1  17
HETATM   17  C2  UNL     1      -0.022   5.051  82.771  1.00  0.00     0.224 C
HETATM   18  N1  UNL     1       0.604   3.798  83.014  1.00  0.00    -0.365 N
HETATM   19  C1  UNL     1       0.015   2.538  82.615  1.00  0.00     0.149 C
ATOM     20  H1  UNL     1       1.507   3.786  83.489  1.00  0.00     0.161 HD
HETATM   21  O1  UNL     1      -1.135   5.013  82.182  1.00  0.00    -0.273 OA
ENDBRANCH   1  17
TORSDOF 2
ENDMDL