MODEL 2
REMARK VINA RESULT: -6.277056854      0.111      1.619
REMARK  2 active torsions:
REMARK  status: ('A' for Active; 'I' for Inactive)
REMARK    1  A    between atoms: N1_8  and  N2_9
REMARK       I    between atoms: N2_9  and  C7_11
REMARK    2  A    between atoms: C7_11  and  C8_13
ROOT
HETATM    1  N2  UNL     1      -0.877   6.080  85.291  1.00  0.00    -0.271 N
ATOM      2  H2  UNL     1       0.111   5.992  85.528  1.00  0.00     0.190 HD
HETATM    3  C7  UNL     1      -1.177   7.307  84.701  1.00  0.00     0.244 C
HETATM    4  O2  UNL     1      -2.344   7.587  84.355  1.00  0.00    -0.271 OA
ENDROOT
BRANCH   3   5
HETATM    5  C8  UNL     1      -0.154   8.364  84.432  1.00  0.00     0.043 C
HETATM    6  C9  UNL     1      -0.296   9.536  85.362  1.00  0.00     0.024 C
HETATM    7  C10 UNL     1       0.831  10.494  85.043  1.00  0.00    -0.013 C
HETATM    8  C11 UNL     1       2.191   9.837  85.183  1.00  0.00     0.009 C
HETATM    9  C15 UNL     1       0.728  11.022  83.636  1.00  0.00     0.009 C
HETATM   10  C12 UNL     1       2.288   8.673  84.210  1.00  0.00    -0.013 C
HETATM   11  C13 UNL     1       2.105   9.193  82.790  1.00  0.00     0.009 C
HETATM   12  C17 UNL     1       1.197   7.692  84.566  1.00  0.00     0.024 C
HETATM   13  C14 UNL     1       0.751   9.858  82.680  1.00  0.00    -0.013 C
HETATM   14  C16 UNL     1      -0.293   8.806  83.007  1.00  0.00     0.024 C
ENDBRANCH   3   5
BRANCH   1  15
HETATM   15  N1  UNL     1      -1.585   4.986  85.621  1.00  0.00    -0.312 N
HETATM   16  C2  UNL     1      -2.157   4.762  86.872  1.00  0.00     0.062 C
HETATM   17  C1  UNL     1      -2.963   5.859  87.474  1.00  0.00     0.042 C
HETATM   18  C3  UNL     1      -3.088   3.539  86.906  1.00  0.00     0.042 C
HETATM   19  C4  UNL     1      -1.029   4.365  87.843  1.00  0.00     0.199 C
HETATM   20  O1  UNL     1      -0.561   3.128  87.373  1.00  0.00    -0.387 OA
HETATM   21  C5  UNL     1       0.044   3.334  86.119  1.00  0.00     0.189 C
HETATM   22  C6  UNL     1      -0.970   3.767  85.092  1.00  0.00     0.170 C
ENDBRANCH   1  15
TORSDOF 2
ENDMDL