MODEL 5
REMARK VINA RESULT: -6.136844915      2.733      5.995
REMARK  3 active torsions:
REMARK  status: ('A' for Active; 'I' for Inactive)
REMARK    1  A    between atoms: C2_2  and  C3_3
REMARK    2  A    between atoms: C3_3  and  C5_5
REMARK       I    between atoms: N2_16  and  C15_17
REMARK    3  A    between atoms: C15_17  and  O2_19
ROOT
HETATM    1  C5  UNL     1      -0.501   6.506  84.915  1.00  0.00    -0.078 C
HETATM    2  C6  UNL     1      -1.135   7.778  85.268  1.00  0.00     0.036 C
HETATM    3  C7  UNL     1      -0.193   9.016  85.279  1.00  0.00     0.031 C
HETATM    4  C8  UNL     1       0.687   8.768  84.195  1.00  0.00     0.116 C
HETATM    5  C9  UNL     1       1.682   9.608  83.546  1.00  0.00     0.261 C
HETATM    6  N1  UNL     1       2.216   8.765  82.481  1.00  0.00    -0.071 N
HETATM    7  C10 UNL     1       2.275   9.612  81.286  1.00  0.00     0.272 C
HETATM    8  C11 UNL     1       3.642   8.579  82.835  1.00  0.00     0.272 C
HETATM    9  C12 UNL     1       1.688   7.506  82.213  1.00  0.00     0.266 C
HETATM   10  C13 UNL     1       0.210   7.226  82.499  1.00  0.00     0.139 C
HETATM   11  C14 UNL     1       0.018   6.214  83.569  1.00  0.00     0.003 C
HETATM   12  N2  UNL     1      -0.177   8.485  83.060  1.00  0.00    -0.312 N
HETATM   13  C15 UNL     1      -1.186   9.270  82.561  1.00  0.00     0.363 C
HETATM   14  O1  UNL     1      -1.840   8.860  81.563  1.00  0.00    -0.238 OA
ENDROOT
BRANCH   1  15
HETATM   15  C3  UNL     1      -1.275   5.335  85.484  1.00  0.00     0.010 C
HETATM   16  C4  UNL     1      -2.359   5.859  86.473  1.00  0.00     0.015 C
BRANCH  15  17
HETATM   17  C2  UNL     1      -0.608   4.229  86.158  1.00  0.00     0.004 C
HETATM   18  C1  UNL     1      -1.342   3.444  87.202  1.00  0.00     0.006 C
ENDBRANCH  15  17
ENDBRANCH   1  15
BRANCH  13  19
HETATM   19  O2  UNL     1      -1.563  10.505  83.064  1.00  0.00    -0.309 OA
HETATM   20  C16 UNL     1      -1.138  11.731  82.511  1.00  0.00     0.215 C
ENDBRANCH  13  19
TORSDOF 3
ENDMDL