MODEL 2
REMARK VINA RESULT: -6.659177383      1.979      5.523
REMARK  3 active torsions:
REMARK  status: ('A' for Active; 'I' for Inactive)
REMARK    1  A    between atoms: C2_2  and  C4_4
REMARK    2  A    between atoms: C6_6  and  C7_7
REMARK    3  A    between atoms: N1_9  and  O1_11
ROOT
HETATM    1  C4  UNL     1      -0.023   5.789  84.404  1.00  0.00     0.065 C
HETATM    2  C5  UNL     1       1.233   6.383  84.973  1.00  0.00     0.044 C
HETATM    3  C6  UNL     1      -1.261   6.582  84.306  1.00  0.00     0.088 C
HETATM    4  C10 UNL     1      -1.879   5.494  85.066  1.00  0.00     0.105 C
HETATM    5  C11 UNL     1      -2.565   5.654  86.359  1.00  0.00     0.010 C
HETATM    6  C12 UNL     1      -1.744   5.955  87.562  1.00  0.00     0.008 C
HETATM    7  C13 UNL     1      -1.568   4.677  88.371  1.00  0.00     0.019 C
HETATM    8  C14 UNL     1      -1.759   3.653  87.252  1.00  0.00     0.038 C
HETATM    9  C15 UNL     1      -1.892   2.259  87.746  1.00  0.00     0.025 C
HETATM   10  C16 UNL     1      -3.064   4.218  86.682  1.00  0.00     0.025 C
HETATM   11  C17 UNL     1      -0.607   3.851  86.347  1.00  0.00     0.229 C
HETATM   12  O2  UNL     1       0.371   3.081  86.455  1.00  0.00    -0.272 OA
HETATM   13  N2  UNL     1      -0.583   4.867  85.383  1.00  0.00    -0.332 N
ENDROOT
BRANCH   3  14
HETATM   14  C7  UNL     1      -1.333   7.957  84.715  1.00  0.00     0.015 C
HETATM   15  C8  UNL     1      -2.523   8.845  84.592  1.00  0.00     0.066 C
HETATM   16  N1  UNL     1      -0.311   8.503  85.264  1.00  0.00    -0.275 N
ATOM     17  H1  UNL     1       0.516   7.917  85.383  1.00  0.00     0.193 HD
BRANCH  16  18
HETATM   18  O1  UNL     1      -0.220   9.777  85.702  1.00  0.00    -0.286 OA
HETATM   19  C9  UNL     1       0.498  10.815  85.108  1.00  0.00     0.237 C
ENDBRANCH  16  18
ENDBRANCH   3  14
BRANCH   1  20
HETATM   20  C2  UNL     1       0.325   5.036  83.159  1.00  0.00    -0.065 C
HETATM   21  C1  UNL     1      -0.014   3.767  82.949  1.00  0.00     0.016 C
HETATM   22  C3  UNL     1       1.084   5.701  82.046  1.00  0.00     0.045 C
ENDBRANCH   1  20
TORSDOF 3
ENDMDL