MODEL 5
REMARK VINA RESULT: -6.341366959      0.930      1.122
REMARK  2 active torsions:
REMARK  status: ('A' for Active; 'I' for Inactive)
REMARK    1  A    between atoms: N1_4  and  C4_5
REMARK    2  A    between atoms: C4_5  and  C5_6
ROOT
HETATM    1  C5  UNL     1      -0.214   7.240  83.765  1.00  0.00    -0.035 C
HETATM    2  C6  UNL     1       0.579   7.788  84.927  1.00  0.00     0.038 C
HETATM    3  C7  UNL     1      -0.031   9.117  85.324  1.00  0.00     0.009 C
HETATM    4  C8  UNL     1      -1.032   9.660  84.359  1.00  0.00     0.038 C
HETATM    5  C9  UNL     1      -0.625   9.406  82.934  1.00  0.00    -0.028 C
HETATM    6  C10 UNL     1      -0.216   8.170  82.673  1.00  0.00     0.038 C
HETATM    7  N2  UNL     1       0.218   7.688  81.411  1.00  0.00    -0.374 N
HETATM    8  C11 UNL     1       1.225   6.668  81.274  1.00  0.00     0.123 C
HETATM    9  C12 UNL     1       1.854   7.038  79.939  1.00  0.00     0.022 C
HETATM   10  C13 UNL     1       0.775   7.732  79.151  1.00  0.00     0.028 C
HETATM   11  C14 UNL     1      -0.277   8.142  80.132  1.00  0.00     0.110 C
HETATM   12  C15 UNL     1      -0.418   9.632  80.031  1.00  0.00     0.257 C
HETATM   13  N3  UNL     1      -1.420  10.210  80.865  1.00  0.00    -0.070 N
ATOM     14  H31 UNL     1      -2.219   9.594  81.018  1.00  0.00     0.277 HD
ATOM     15  H32 UNL     1      -1.928  10.971  80.413  1.00  0.00     0.277 HD
HETATM   16  C16 UNL     1      -0.769  10.614  82.098  1.00  0.00     0.269 C
ENDROOT
BRANCH   1  17
HETATM   17  C4  UNL     1      -0.165   5.787  83.588  1.00  0.00     0.163 C
BRANCH  17  18
HETATM   18  N1  UNL     1      -0.988   5.103  84.571  1.00  0.00    -0.370 N
HETATM   19  C3  UNL     1      -0.465   3.963  85.173  1.00  0.00     0.063 C
HETATM   20  C2  UNL     1      -0.473   3.971  86.685  1.00  0.00     0.045 C
HETATM   21  C1  UNL     1      -1.908   4.241  87.111  1.00  0.00     0.010 C
HETATM   22  C18 UNL     1      -2.293   5.593  86.602  1.00  0.00     0.045 C
HETATM   23  C17 UNL     1      -2.045   5.805  85.136  1.00  0.00     0.063 C
ENDBRANCH  17  18
ENDBRANCH   1  17
TORSDOF 2
ENDMDL