MODEL 4
REMARK VINA RESULT: -7.018074321      1.323      2.712
REMARK  3 active torsions:
REMARK  status: ('A' for Active; 'I' for Inactive)
REMARK    1  A    between atoms: C9_9  and  C10_10
REMARK    2  A    between atoms: C10_10  and  O2_12
REMARK    3  A    between atoms: O2_12  and  C11_13
ROOT
HETATM    1  C1  UNL     1      -2.771   9.807  83.815  1.00  0.00     0.015 C
HETATM    2  C2  UNL     1      -1.297   9.636  83.964  1.00  0.00    -0.042 C
HETATM    3  C3  UNL     1      -0.556  10.485  82.992  1.00  0.00     0.014 C
HETATM    4  C4  UNL     1       0.904  10.227  82.907  1.00  0.00    -0.013 C
HETATM    5  C5  UNL     1       1.696  10.953  83.993  1.00  0.00     0.005 C
HETATM    6  C6  UNL     1       1.643  10.222  85.301  1.00  0.00     0.006 C
HETATM    7  C7  UNL     1       0.531   9.207  85.374  1.00  0.00     0.005 C
HETATM    8  C8  UNL     1      -0.805   9.898  85.377  1.00  0.00     0.015 C
HETATM    9  C9  UNL     1       0.543   8.230  84.243  1.00  0.00     0.053 C
HETATM   10  C16 UNL     1       1.279   8.769  83.024  1.00  0.00     0.025 C
HETATM   11  C17 UNL     1      -0.925   8.164  83.802  1.00  0.00     0.029 C
ENDROOT
BRANCH   9  12
HETATM   12  C10 UNL     1       1.021   6.899  84.646  1.00  0.00     0.268 C
HETATM   13  O1  UNL     1       2.221   6.631  84.915  1.00  0.00    -0.264 OA
BRANCH  12  14
HETATM   14  O2  UNL     1       0.102   5.871  84.739  1.00  0.00    -0.315 OA
BRANCH  14  15
HETATM   15  C11 UNL     1      -0.483   5.435  85.941  1.00  0.00     0.135 C
HETATM   16  C12 UNL     1      -1.980   5.414  85.897  1.00  0.00     0.060 C
HETATM   17  C13 UNL     1      -2.447   4.945  87.266  1.00  0.00     0.235 C
HETATM   18  N1  UNL     1      -2.193   3.523  87.343  1.00  0.00    -0.075 N
HETATM   19  C14 UNL     1      -1.099   3.083  86.547  1.00  0.00     0.235 C
ATOM     20  H12 UNL     1      -2.067   3.234  88.314  1.00  0.00     0.277 HD
ATOM     21  H11 UNL     1      -3.036   2.996  87.113  1.00  0.00     0.277 HD
HETATM   22  C15 UNL     1      -0.001   4.078  86.371  1.00  0.00     0.060 C
ENDBRANCH  14  15
ENDBRANCH  12  14
ENDBRANCH   9  12
TORSDOF 3
ENDMDL