MODEL 3
REMARK VINA RESULT: -7.254586228      2.022      8.484
REMARK  4 active torsions:
REMARK  status: ('A' for Active; 'I' for Inactive)
REMARK    1  A    between atoms: C1_2  and  O2_3
REMARK       I    between atoms: C1_2  and  N2_13
REMARK    2  A    between atoms: O2_3  and  C2_4
REMARK    3  A    between atoms: C10_16  and  C11_17
REMARK    4  A    between atoms: C11_17  and  C12_18
ROOT
HETATM    1  O1  UNL     1      -3.071  66.623   0.959  1.00  0.00    -0.238 OA
HETATM    2  C1  UNL     1      -2.013  66.056   0.643  1.00  0.00     0.363 C
HETATM    3  N2  UNL     1      -1.552  64.931   1.366  1.00  0.00    -0.323 N
HETATM    4  C8  UNL     1      -2.323  64.458   2.471  1.00  0.00     0.129 C
HETATM    5  C9  UNL     1      -2.292  62.967   2.668  1.00  0.00     0.025 C
HETATM    6  C10 UNL     1      -0.951  62.361   2.493  1.00  0.00    -0.001 C
HETATM    7  C15 UNL     1      -0.143  62.890   1.374  1.00  0.00     0.013 C
HETATM    8  C16 UNL     1      -0.525  62.422  -0.012  1.00  0.00     0.009 C
HETATM    9  C17 UNL     1      -0.365  63.871  -0.489  1.00  0.00     0.026 C
HETATM   10  C18 UNL     1      -0.340  64.300   0.983  1.00  0.00     0.093 C
ENDROOT
BRANCH   2  11
HETATM   11  O2  UNL     1      -1.274  66.547  -0.450  1.00  0.00    -0.296 OA
BRANCH  11  12
HETATM   12  C2  UNL     1      -1.968  67.059  -1.540  1.00  0.00     0.166 C
HETATM   13  C3  UNL     1      -1.459  66.502  -2.870  1.00  0.00     0.067 C
HETATM   14  C4  UNL     1      -1.170  67.753  -3.640  1.00  0.00     0.189 C
HETATM   15  C5  UNL     1      -2.452  68.497  -3.977  1.00  0.00     0.035 C
HETATM   16  N1  UNL     1      -0.643  68.623  -2.573  1.00  0.00    -0.064 N
HETATM   17  C6  UNL     1      -2.903  69.031  -2.610  1.00  0.00     0.038 C
HETATM   18  C7  UNL     1      -1.822  68.554  -1.693  1.00  0.00     0.215 C
ATOM     19  H12 UNL     1       0.257  68.368  -2.167  1.00  0.00     0.278 HD
ATOM     20  H11 UNL     1      -0.321  69.552  -2.846  1.00  0.00     0.278 HD
ENDBRANCH  11  12
ENDBRANCH   2  11
BRANCH   6  21
HETATM   21  C11 UNL     1      -1.129  60.856   2.278  1.00  0.00     0.063 C
BRANCH  21  22
HETATM   22  C12 UNL     1      -1.846  60.242   3.452  1.00  0.00     0.025 A
HETATM   23  C13 UNL     1      -1.387  60.211   4.749  1.00  0.00     0.114 A
HETATM   24  N3  UNL     1      -2.307  59.581   5.499  1.00  0.00    -0.360 N
HETATM   25  C14 UNL     1      -3.319  59.222   4.699  1.00  0.00     0.180 A
ATOM     26  H3  UNL     1      -2.245  59.407   6.502  1.00  0.00     0.166 HD
HETATM   27  N4  UNL     1      -3.031  59.629   3.452  1.00  0.00    -0.355 N
ATOM     28  H4  UNL     1      -3.625  59.491   2.634  1.00  0.00     0.166 HD
ENDBRANCH  21  22
ENDBRANCH   6  21
TORSDOF 4
ENDMDL