MODEL 5
REMARK VINA RESULT: -5.763932610      2.037      2.803
REMARK  4 active torsions:
REMARK  status: ('A' for Active; 'I' for Inactive)
REMARK    1  A    between atoms: C4_4  and  N1_5
REMARK       I    between atoms: N1_5  and  C5_7
REMARK    2  A    between atoms: C5_7  and  C6_9
REMARK    3  A    between atoms: C12_15  and  O2_16
REMARK    4  A    between atoms: C18_24  and  C19_25
ROOT
HETATM    1  C1  UNL     1       0.336  67.685  -0.130  1.00  0.00     0.015 C
HETATM    2  C2  UNL     1      -0.253  66.566  -0.569  1.00  0.00    -0.076 C
HETATM    3  C3  UNL     1      -0.579  65.669   0.566  1.00  0.00     0.059 C
HETATM    4  C4  UNL     1      -0.683  64.230   0.205  1.00  0.00     0.093 C
HETATM    5  C9  UNL     1      -1.623  63.952  -0.937  1.00  0.00     0.020 C
HETATM    6  C10 UNL     1      -2.826  64.824  -0.992  1.00  0.00     0.013 C
HETATM    7  C11 UNL     1      -3.238  65.300  -2.329  1.00  0.00     0.069 C
HETATM    8  C12 UNL     1      -2.182  65.518  -3.344  1.00  0.00     0.170 C
HETATM    9  O3  UNL     1      -2.147  64.346  -4.142  1.00  0.00    -0.354 OA
HETATM   10  C13 UNL     1      -1.696  63.348  -3.282  1.00  0.00     0.182 C
HETATM   11  C14 UNL     1      -0.843  64.052  -2.208  1.00  0.00    -0.003 C
HETATM   12  C15 UNL     1       0.471  63.321  -2.189  1.00  0.00     0.019 C
HETATM   13  C16 UNL     1      -0.751  65.407  -2.777  1.00  0.00     0.035 C
HETATM   14  C17 UNL     1       0.133  65.270  -4.035  1.00  0.00     0.023 C
HETATM   15  C18 UNL     1      -0.398  66.569  -2.019  1.00  0.00     0.089 C
ENDROOT
BRANCH   4  16
HETATM   16  N1  UNL     1      -1.037  63.501   1.405  1.00  0.00    -0.355 N
HETATM   17  C5  UNL     1      -0.561  62.180   1.619  1.00  0.00     0.221 C
HETATM   18  O1  UNL     1       0.176  61.645   0.749  1.00  0.00    -0.273 OA
ATOM     19  H1  UNL     1      -1.634  63.940   2.104  1.00  0.00     0.162 HD
BRANCH  17  20
HETATM   20  C6  UNL     1      -0.901  61.416   2.825  1.00  0.00     0.070 C
HETATM   21  C7  UNL     1      -2.225  61.915   3.358  1.00  0.00     0.019 C
HETATM   22  C8  UNL     1      -0.949  59.948   2.463  1.00  0.00     0.019 C
ENDBRANCH  17  20
ENDBRANCH   4  16
BRANCH  15  23
HETATM   23  C19 UNL     1       0.905  67.132  -2.560  1.00  0.00     0.241 C
HETATM   24  O4  UNL     1       0.981  68.148  -3.189  1.00  0.00    -0.306 OA
ENDBRANCH  15  23
BRANCH   8  25
HETATM   25  O2  UNL     1      -2.300  66.649  -4.100  1.00  0.00    -0.365 OA
ATOM     26  H2  UNL     1      -2.597  66.525  -4.993  1.00  0.00     0.213 HD
ENDBRANCH   8  25
TORSDOF 4
ENDMDL