MODEL 2
REMARK VINA RESULT: -5.907319389      0.888      1.043
REMARK  4 active torsions:
REMARK  status: ('A' for Active; 'I' for Inactive)
REMARK    1  A    between atoms: C2_2  and  N1_4
REMARK    2  A    between atoms: N1_4  and  N2_5
REMARK       I    between atoms: N2_5  and  C4_7
REMARK    3  A    between atoms: C4_7  and  C5_9
REMARK       I    between atoms: N3_13  and  C8_14
REMARK    4  A    between atoms: C8_14  and  C9_16
ROOT
HETATM    1  C5  UNL     1      -5.585  68.638   1.673  1.00  0.00     0.190 C
HETATM    2  C6  UNL     1      -5.235  69.005   0.239  1.00  0.00     0.110 C
HETATM    3  S1  UNL     1      -3.929  70.238   0.645  1.00  0.00    -0.147 SA
HETATM    4  C7  UNL     1      -4.702  70.810   2.218  1.00  0.00     0.200 C
HETATM    5  N3  UNL     1      -5.759  69.882   2.404  1.00  0.00    -0.328 N
HETATM    6  C8  UNL     1      -6.900  70.114   3.256  1.00  0.00     0.230 C
HETATM    7  O2  UNL     1      -7.734  69.141   3.316  1.00  0.00    -0.272 OA
ENDROOT
BRANCH   1   8
HETATM    8  C4  UNL     1      -4.451  67.816   2.195  1.00  0.00     0.257 C
HETATM    9  N2  UNL     1      -3.874  66.878   1.308  1.00  0.00    -0.272 N
ATOM     10  H2  UNL     1      -4.238  66.793   0.359  1.00  0.00     0.185 HD
HETATM   11  O1  UNL     1      -4.013  67.924   3.349  1.00  0.00    -0.270 OA
BRANCH   9  12
HETATM   12  N1  UNL     1      -2.832  66.082   1.707  1.00  0.00    -0.135 NA
BRANCH  12  13
HETATM   13  C2  UNL     1      -1.872  65.840   0.694  1.00  0.00     0.091 C
HETATM   14  C1  UNL     1      -1.342  67.194   0.205  1.00  0.00     0.029 C
HETATM   15  C3  UNL     1      -0.701  65.064   1.326  1.00  0.00     0.029 C
ENDBRANCH  12  13
ENDBRANCH   9  12
ENDBRANCH   1   8
BRANCH   6  16
HETATM   16  C9  UNL     1      -7.160  71.331   4.027  1.00  0.00     0.041 C
HETATM   17  C10 UNL     1      -8.520  71.138   4.708  1.00  0.00     0.020 C
HETATM   18  C11 UNL     1      -9.044  72.502   5.091  1.00  0.00     0.006 C
HETATM   19  C12 UNL     1      -7.811  73.335   5.461  1.00  0.00    -0.014 C
HETATM   20  C13 UNL     1      -6.876  72.399   6.206  1.00  0.00     0.006 C
HETATM   21  C15 UNL     1      -7.176  73.770   4.177  1.00  0.00     0.006 C
HETATM   22  C14 UNL     1      -6.156  71.576   5.129  1.00  0.00     0.020 C
HETATM   23  C16 UNL     1      -7.298  72.587   3.204  1.00  0.00     0.020 C
ENDBRANCH   6  16
TORSDOF 4
ENDMDL