MODEL 4
REMARK VINA RESULT: -5.349744059      6.874      9.484
REMARK  4 active torsions:
REMARK  status: ('A' for Active; 'I' for Inactive)
REMARK    1  A    between atoms: O1_2  and  C2_3
REMARK    2  A    between atoms: C3_4  and  C5_6
REMARK    3  A    between atoms: C12_17  and  N2_18
REMARK    4  A    between atoms: C18_24  and  O4_25
ROOT
HETATM    1  C2  UNL     1      -4.618  70.229   1.493  1.00  0.00     0.174 C
HETATM    2  C3  UNL     1      -3.675  69.112   1.789  1.00  0.00     0.073 C
HETATM    3  C4  UNL     1      -2.432  69.124   0.918  1.00  0.00     0.029 C
HETATM    4  C6  UNL     1      -3.184  69.050   3.209  1.00  0.00     0.023 C
HETATM    5  C7  UNL     1      -4.240  69.265   4.232  1.00  0.00     0.009 C
HETATM    6  C8  UNL     1      -5.281  70.282   3.821  1.00  0.00     0.025 C
HETATM    7  C9  UNL     1      -5.735  71.010   5.028  1.00  0.00     0.039 C
HETATM    8  C10 UNL     1      -7.165  71.502   4.962  1.00  0.00     0.038 A
HETATM    9  C11 UNL     1      -8.184  70.430   4.760  1.00  0.00     0.039 C
HETATM   10  N1  UNL     1      -7.426  72.358   6.101  1.00  0.00    -0.370 N
ATOM     11  H1  UNL     1      -7.476  72.150   7.099  1.00  0.00     0.161 HD
HETATM   12  C12 UNL     1      -7.577  73.463   5.460  1.00  0.00     0.081 A
HETATM   13  C15 UNL     1      -7.335  72.764   4.206  1.00  0.00     0.081 A
HETATM   14  C16 UNL     1      -6.095  73.173   3.431  1.00  0.00     0.018 C
HETATM   15  C17 UNL     1      -5.882  72.138   2.361  1.00  0.00     0.042 C
HETATM   16  C18 UNL     1      -4.782  71.164   2.695  1.00  0.00     0.089 C
ENDROOT
BRANCH   2  17
HETATM   17  C5  UNL     1      -4.343  67.801   1.500  1.00  0.00     0.184 C
HETATM   18  O2  UNL     1      -5.568  67.673   1.320  1.00  0.00    -0.647 OA
HETATM   19  O3  UNL     1      -3.502  66.696   1.439  1.00  0.00    -0.647 OA
ENDBRANCH   2  17
BRANCH   1  20
HETATM   20  O1  UNL     1      -4.388  70.883   0.321  1.00  0.00    -0.386 OA
HETATM   21  C1  UNL     1      -5.223  70.636  -0.729  1.00  0.00     0.202 C
ENDBRANCH   1  20
BRANCH  16  22
HETATM   22  O4  UNL     1      -3.617  71.751   3.090  1.00  0.00    -0.387 OA
ATOM     23  H4  UNL     1      -2.842  71.260   2.841  1.00  0.00     0.210 HD
ENDBRANCH  16  22
BRANCH  12  24
HETATM   24  N2  UNL     1      -7.861  74.785   5.874  1.00  0.00    -0.379 N
HETATM   25  C13 UNL     1      -6.769  75.698   6.109  1.00  0.00     0.150 C
HETATM   26  C14 UNL     1      -9.207  75.280   6.075  1.00  0.00     0.150 C
ENDBRANCH  12  24
TORSDOF 4
ENDMDL