MODEL 1
REMARK VINA RESULT: -6.326618065      0.000      0.000
REMARK  5 active torsions:
REMARK  status: ('A' for Active; 'I' for Inactive)
REMARK    1  A    between atoms: N1_4  and  C4_5
REMARK    2  A    between atoms: C4_5  and  S2_7
REMARK    3  A    between atoms: S2_7  and  C5_8
REMARK    4  A    between atoms: C5_8  and  C6_9
REMARK       I    between atoms: C6_9  and  N2_11
REMARK    5  A    between atoms: N2_11  and  C7_13
ROOT
HETATM    1  C4  UNL     1      -1.361  66.233   0.554  1.00  0.00     0.137 C
HETATM    2  S1  UNL     1      -0.637  67.324  -0.436  1.00  0.00    -0.053 SA
ENDROOT
BRANCH   1   3
HETATM    3  N1  UNL     1      -2.747  66.258   0.806  1.00  0.00    -0.363 N
HETATM    4  C3  UNL     1      -3.256  66.831   2.028  1.00  0.00     0.157 C
HETATM    5  C2  UNL     1      -4.329  67.828   1.592  1.00  0.00     0.200 C
HETATM    6  C1  UNL     1      -4.702  68.712   2.735  1.00  0.00     0.041 C
HETATM    7  N3  UNL     1      -5.400  67.044   1.046  1.00  0.00    -0.064 N
HETATM    8  C14 UNL     1      -4.960  66.507  -0.227  1.00  0.00     0.200 C
ATOM      9  H32 UNL     1      -5.726  66.321   1.687  1.00  0.00     0.278 HD
ATOM     10  H31 UNL     1      -6.272  67.567   0.972  1.00  0.00     0.278 HD
HETATM   11  C13 UNL     1      -3.676  65.719  -0.139  1.00  0.00     0.157 C
HETATM   12  C15 UNL     1      -6.007  65.568  -0.813  1.00  0.00     0.041 C
ENDBRANCH   1   3
BRANCH   1  13
HETATM   13  S2  UNL     1      -0.357  64.983   1.312  1.00  0.00    -0.091 SA
BRANCH  13  14
HETATM   14  C5  UNL     1      -0.258  63.542   0.232  1.00  0.00     0.184 C
BRANCH  14  15
HETATM   15  C6  UNL     1      -0.683  62.346   0.999  1.00  0.00     0.227 C
HETATM   16  O1  UNL     1      -0.348  61.229   0.504  1.00  0.00    -0.273 OA
HETATM   17  N2  UNL     1      -1.410  62.403   2.200  1.00  0.00    -0.356 N
ATOM     18  H2  UNL     1      -1.685  63.297   2.606  1.00  0.00     0.162 HD
BRANCH  17  19
HETATM   19  C7  UNL     1      -1.762  61.139   2.851  1.00  0.00     0.084 C
HETATM   20  C8  UNL     1      -3.081  61.363   3.606  1.00  0.00     0.025 C
HETATM   21  C9  UNL     1      -3.471  59.974   4.082  1.00  0.00     0.002 C
HETATM   22  C10 UNL     1      -2.512  59.614   5.182  1.00  0.00     0.000 C
HETATM   23  C11 UNL     1      -1.084  59.877   4.929  1.00  0.00     0.002 C
HETATM   24  C12 UNL     1      -0.729  60.861   3.883  1.00  0.00     0.025 C
ENDBRANCH  17  19
ENDBRANCH  14  15
ENDBRANCH  13  14
ENDBRANCH   1  13
TORSDOF 5
ENDMDL