MODEL 1
REMARK VINA RESULT: -6.389538343      0.000      0.000
REMARK  3 active torsions:
REMARK  status: ('A' for Active; 'I' for Inactive)
REMARK       I    between atoms: N2_3  and  C2_4
REMARK    1  A    between atoms: N2_3  and  C9_14
REMARK       I    between atoms: C2_4  and  N3_6
REMARK    2  A    between atoms: N3_6  and  C3_8
REMARK    3  A    between atoms: C14_19  and  N4_20
ROOT
HETATM    1  N1  UNL     1      -0.078  64.711  -1.852  1.00  0.00    -0.172 NA
HETATM    2  C1  UNL     1      -0.212  63.648  -1.360  1.00  0.00     0.188 C
HETATM    3  N2  UNL     1      -0.404  62.377  -0.737  1.00  0.00    -0.230 N
HETATM    4  C2  UNL     1      -0.580  62.441   0.674  1.00  0.00     0.332 C
HETATM    5  O1  UNL     1      -0.550  63.624   1.192  1.00  0.00    -0.246 OA
HETATM    6  N3  UNL     1      -0.779  61.384   1.561  1.00  0.00    -0.338 N
ATOM      7  H3  UNL     1      -0.809  60.433   1.196  1.00  0.00     0.164 HD
ENDROOT
BRANCH   3   8
HETATM    8  C9  UNL     1      -0.470  61.152  -1.488  1.00  0.00     0.139 C
HETATM    9  C10 UNL     1       0.808  60.391  -1.461  1.00  0.00     0.029 C
HETATM   10  C11 UNL     1       1.890  61.037  -2.246  1.00  0.00     0.002 C
HETATM   11  C12 UNL     1       1.442  61.359  -3.621  1.00  0.00     0.002 C
HETATM   12  C13 UNL     1       0.045  60.879  -3.940  1.00  0.00     0.038 C
HETATM   13  C14 UNL     1      -0.950  61.288  -2.896  1.00  0.00     0.247 C
BRANCH  13  14
HETATM   14  N4  UNL     1      -2.187  60.597  -3.084  1.00  0.00     0.099 N
HETATM   15  C15 UNL     1      -2.113  59.319  -3.703  1.00  0.00     0.299 C
HETATM   16  C16 UNL     1      -3.436  58.599  -3.512  1.00  0.00     0.198 C
HETATM   17  O2  UNL     1      -4.533  59.418  -3.644  1.00  0.00    -0.388 OA
HETATM   18  C17 UNL     1      -4.190  60.482  -4.459  1.00  0.00     0.198 C
HETATM   19  C18 UNL     1      -3.203  61.385  -3.704  1.00  0.00     0.299 C
ENDBRANCH  13  14
ENDBRANCH   3   8
BRANCH   6  20
HETATM   20  C3  UNL     1      -0.946  61.594   2.984  1.00  0.00     0.086 C
HETATM   21  C4  UNL     1      -2.270  62.145   3.294  1.00  0.00     0.025 C
HETATM   22  C5  UNL     1      -3.348  61.159   3.616  1.00  0.00     0.002 C
HETATM   23  C6  UNL     1      -2.898  60.016   4.469  1.00  0.00     0.000 C
HETATM   24  C7  UNL     1      -1.730  59.358   3.826  1.00  0.00     0.002 C
HETATM   25  C8  UNL     1      -0.582  60.310   3.665  1.00  0.00     0.025 C
ENDBRANCH   6  20
TORSDOF 3
ENDMDL