MODEL 2
REMARK VINA RESULT: -7.766982980      2.131      4.074
REMARK  4 active torsions:
REMARK  status: ('A' for Active; 'I' for Inactive)
REMARK       I    between atoms: C1_2  and  N1_3
REMARK    1  A    between atoms: C1_2  and  C8_13
REMARK    2  A    between atoms: N1_3  and  C2_5
REMARK    3  A    between atoms: C5_8  and  O2_9
REMARK    4  A    between atoms: N2_20  and  C15_21
ROOT
HETATM    1  C8  UNL     1      -1.444  64.726   0.472  1.00  0.00     0.113 C
HETATM    2  C9  UNL     1      -0.451  65.871   0.509  1.00  0.00     0.041 C
HETATM    3  C10 UNL     1      -0.212  66.340  -0.894  1.00  0.00     0.009 C
HETATM    4  C11 UNL     1      -0.846  65.410  -1.912  1.00  0.00     0.004 C
HETATM    5  C12 UNL     1      -0.097  64.095  -1.609  1.00  0.00     0.009 C
HETATM    6  C13 UNL     1      -0.673  63.622  -0.336  1.00  0.00     0.041 C
HETATM    7  C14 UNL     1      -2.278  65.075  -1.670  1.00  0.00     0.128 C
HETATM    8  N2  UNL     1      -2.588  64.988  -0.258  1.00  0.00    -0.369 N
ENDROOT
BRANCH   1   9
HETATM    9  C1  UNL     1      -1.563  64.006   1.765  1.00  0.00     0.246 C
HETATM   10  O1  UNL     1      -1.805  64.669   2.789  1.00  0.00    -0.271 OA
HETATM   11  N1  UNL     1      -1.415  62.609   1.895  1.00  0.00    -0.354 N
ATOM     12  H1  UNL     1      -1.215  62.047   1.067  1.00  0.00     0.162 HD
BRANCH  11  13
HETATM   13  C2  UNL     1      -1.544  61.947   3.210  1.00  0.00     0.084 C
HETATM   14  C3  UNL     1      -0.645  60.728   3.287  1.00  0.00     0.028 C
HETATM   15  C4  UNL     1      -1.007  60.027   4.592  1.00  0.00     0.034 C
HETATM   16  C5  UNL     1      -2.341  59.364   4.420  1.00  0.00     0.118 C
HETATM   17  C6  UNL     1      -3.268  60.159   3.562  1.00  0.00     0.034 C
HETATM   18  C7  UNL     1      -2.960  61.641   3.544  1.00  0.00     0.028 C
BRANCH  16  19
HETATM   19  O2  UNL     1      -2.869  59.112   5.703  1.00  0.00    -0.396 OA
ATOM     20  H2  UNL     1      -2.749  58.189   5.892  1.00  0.00     0.210 HD
ENDBRANCH  16  19
ENDBRANCH  11  13
ENDBRANCH   1   9
BRANCH   8  21
HETATM   21  C15 UNL     1      -3.627  65.858   0.076  1.00  0.00    -0.011 C
HETATM   22  C16 UNL     1      -3.334  67.070   0.893  1.00  0.00     0.078 C
HETATM   23  C17 UNL     1      -4.658  67.719   1.346  1.00  0.00     0.173 C
HETATM   24  O3  UNL     1      -5.449  68.037   0.251  1.00  0.00    -0.390 OA
HETATM   25  C18 UNL     1      -5.861  66.814  -0.277  1.00  0.00     0.173 C
HETATM   26  C19 UNL     1      -4.613  66.248  -0.979  1.00  0.00     0.078 C
ENDBRANCH   8  21
TORSDOF 4
ENDMDL