MODEL 4
REMARK VINA RESULT: -6.478319175      0.894      1.303
REMARK  5 active torsions:
REMARK  status: ('A' for Active; 'I' for Inactive)
REMARK    1  A    between atoms: C2_2  and  O1_5
REMARK    2  A    between atoms: O1_5  and  C5_6
REMARK       I    between atoms: C5_6  and  N1_8
REMARK    3  A    between atoms: C8_11  and  N2_12
REMARK       I    between atoms: N2_12  and  C9_14
REMARK       I    between atoms: C9_14  and  N3_16
REMARK    4  A    between atoms: N3_16  and  C10_18
REMARK    5  A    between atoms: C10_18  and  C11_19
ROOT
HETATM    1  N2  UNL     1      -0.378  60.269  -1.081  1.00  0.00    -0.337 N
ATOM      2  H2  UNL     1      -0.807  61.193  -1.048  1.00  0.00     0.164 HD
HETATM    3  C9  UNL     1      -0.069  59.586   0.105  1.00  0.00     0.316 C
HETATM    4  O3  UNL     1       0.455  58.459   0.069  1.00  0.00    -0.247 OA
HETATM    5  N3  UNL     1      -0.352  60.177   1.356  1.00  0.00    -0.341 N
ATOM      6  H3  UNL     1      -0.783  61.102   1.374  1.00  0.00     0.164 HD
ENDROOT
BRANCH   1   7
HETATM    7  C8  UNL     1      -0.080  59.643  -2.350  1.00  0.00     0.105 C
HETATM    8  C7  UNL     1      -1.273  59.871  -3.271  1.00  0.00     0.047 C
HETATM    9  C6  UNL     1      -1.158  61.346  -3.534  1.00  0.00     0.130 C
HETATM   10  N1  UNL     1       0.269  61.658  -3.388  1.00  0.00    -0.326 N
HETATM   11  C5  UNL     1       0.839  62.938  -3.540  1.00  0.00     0.363 C
HETATM   12  C16 UNL     1       0.987  60.442  -3.068  1.00  0.00     0.153 C
HETATM   13  O2  UNL     1       2.078  63.076  -3.389  1.00  0.00    -0.238 OA
BRANCH  11  14
HETATM   14  O1  UNL     1       0.077  64.068  -3.849  1.00  0.00    -0.294 OA
BRANCH  14  15
HETATM   15  C2  UNL     1      -0.180  64.992  -2.817  1.00  0.00     0.061 C
HETATM   16  C1  UNL     1      -1.504  65.683  -2.993  1.00  0.00     0.046 C
HETATM   17  C3  UNL     1       0.891  66.070  -2.827  1.00  0.00     0.046 C
HETATM   18  C4  UNL     1      -0.187  64.248  -1.502  1.00  0.00     0.046 C
ENDBRANCH  14  15
ENDBRANCH  11  14
ENDBRANCH   1   7
BRANCH   5  19
HETATM   19  C10 UNL     1      -0.055  59.520   2.617  1.00  0.00     0.156 C
BRANCH  19  20
HETATM   20  C11 UNL     1      -0.715  60.287   3.718  1.00  0.00     0.139 C
HETATM   21  C12 UNL     1      -1.532  61.395   3.075  1.00  0.00     0.034 C
HETATM   22  C13 UNL     1      -2.733  61.666   3.978  1.00  0.00     0.005 C
HETATM   23  C14 UNL     1      -3.610  60.414   3.866  1.00  0.00     0.026 C
HETATM   24  C15 UNL     1      -2.730  59.181   3.989  1.00  0.00     0.168 C
HETATM   25  O4  UNL     1      -1.497  59.490   4.544  1.00  0.00    -0.384 OA
ENDBRANCH  19  20
ENDBRANCH   5  19
TORSDOF 5
ENDMDL