MODEL 1
REMARK VINA RESULT: -6.561952751      0.000      0.000
REMARK  3 active torsions:
REMARK  status: ('A' for Active; 'I' for Inactive)
REMARK       I    between atoms: N1_2  and  C3_4
REMARK    1  A    between atoms: C3_4  and  C4_6
REMARK    2  A    between atoms: C4_6  and  S1_7
REMARK    3  A    between atoms: S1_7  and  C5_8
REMARK       I    between atoms: N2_11  and  C8_12
ROOT
HETATM    1  C5  UNL     1      -1.213  63.782   0.897  1.00  0.00     0.057 C
HETATM    2  C6  UNL     1      -1.694  64.354   2.184  1.00  0.00     0.035 C
HETATM    3  C7  UNL     1      -2.683  65.479   1.751  1.00  0.00     0.127 C
HETATM    4  N2  UNL     1      -1.984  66.397   0.894  1.00  0.00    -0.351 N
HETATM    5  C8  UNL     1      -2.678  67.539   0.446  1.00  0.00     0.184 C
HETATM    6  N3  UNL     1      -3.674  67.492  -0.373  1.00  0.00    -0.374 N
ATOM      7  H31 UNL     1      -4.176  68.319  -0.697  1.00  0.00     0.158 HD
ATOM      8  H32 UNL     1      -4.009  66.602  -0.739  1.00  0.00     0.158 HD
HETATM    9  N4  UNL     1      -2.207  68.788   0.959  1.00  0.00    -0.064 NA
HETATM   10  C9  UNL     1      -0.624  66.221   0.468  1.00  0.00     0.094 C
HETATM   11  C10 UNL     1      -0.227  66.883  -0.712  1.00  0.00     0.026 C
HETATM   12  C11 UNL     1       0.005  67.939  -1.606  1.00  0.00     0.004 C
HETATM   13  C12 UNL     1       0.401  67.210  -2.932  1.00  0.00     0.026 C
HETATM   14  C13 UNL     1       0.942  65.830  -2.743  1.00  0.00     0.167 C
HETATM   15  O2  UNL     1       0.407  64.782  -2.251  1.00  0.00    -0.391 OA
HETATM   16  C14 UNL     1      -0.315  64.372  -1.286  1.00  0.00     0.175 C
HETATM   17  C15 UNL     1      -0.297  64.734   0.168  1.00  0.00     0.046 C
ENDROOT
BRANCH   1  18
HETATM   18  S1  UNL     1      -0.436  62.178   0.964  1.00  0.00    -0.154 SA
BRANCH  18  19
HETATM   19  C4  UNL     1      -0.047  61.599   2.596  1.00  0.00     0.177 C
BRANCH  19  20
HETATM   20  C3  UNL     1      -0.740  60.347   2.937  1.00  0.00     0.228 C
HETATM   21  N1  UNL     1      -1.903  60.414   3.777  1.00  0.00    -0.360 N
HETATM   22  C1  UNL     1      -2.331  61.708   4.245  1.00  0.00     0.152 C
HETATM   23  C2  UNL     1      -2.608  59.198   4.126  1.00  0.00     0.152 C
HETATM   24  O1  UNL     1      -0.355  59.218   2.522  1.00  0.00    -0.273 OA
ENDBRANCH  19  20
ENDBRANCH  18  19
ENDBRANCH   1  18
TORSDOF 3
ENDMDL