MODEL 1
REMARK VINA RESULT: -8.922149675      0.000      0.000
REMARK  4 active torsions:
REMARK  status: ('A' for Active; 'I' for Inactive)
REMARK       I    between atoms: C1_2  and  N2_4
REMARK       I    between atoms: N2_4  and  C2_6
REMARK    1  A    between atoms: C2_6  and  C3_8
REMARK    2  A    between atoms: C7_12  and  C8_13
REMARK    3  A    between atoms: C8_13  and  O4_15
REMARK    4  A    between atoms: O4_15  and  C9_16
ROOT
HETATM    1  C8  UNL     1      -1.273  63.159   2.068  1.00  0.00     0.264 C
HETATM    2  O3  UNL     1      -2.053  63.473   3.003  1.00  0.00    -0.265 OA
ENDROOT
BRANCH   1   3
HETATM    3  C7  UNL     1      -1.128  61.721   1.714  1.00  0.00     0.098 C
HETATM    4  C3  UNL     1      -0.239  61.019   2.686  1.00  0.00     0.092 C
HETATM    5  C4  UNL     1       0.478  59.968   1.871  1.00  0.00     0.015 C
HETATM    6  C5  UNL     1       0.207  60.247   0.430  1.00  0.00     0.002 C
HETATM    7  C6  UNL     1      -0.314  61.665   0.427  1.00  0.00     0.015 C
BRANCH   4   8
HETATM    8  C2  UNL     1      -0.959  60.353   3.773  1.00  0.00     0.230 C
HETATM    9  N2  UNL     1      -2.346  60.146   3.675  1.00  0.00    -0.281 N
HETATM   10  C1  UNL     1      -3.028  59.499   4.736  1.00  0.00     0.335 C
ATOM     11  H2  UNL     1      -2.856  60.457   2.849  1.00  0.00     0.173 HD
HETATM   12  N1  UNL     1      -4.443  59.265   4.682  1.00  0.00    -0.040 NA
HETATM   13  O1  UNL     1      -2.413  59.113   5.756  1.00  0.00    -0.251 OA
HETATM   14  O2  UNL     1      -0.340  59.969   4.790  1.00  0.00    -0.273 OA
ENDBRANCH   4   8
ENDBRANCH   1   3
BRANCH   1  15
HETATM   15  O4  UNL     1      -0.600  64.175   1.431  1.00  0.00    -0.315 OA
BRANCH  15  16
HETATM   16  C9  UNL     1      -1.217  65.377   1.011  1.00  0.00     0.140 C
HETATM   17  C10 UNL     1      -0.260  66.132   0.146  1.00  0.00     0.016 C
HETATM   18  C11 UNL     1      -0.841  67.533  -0.053  1.00  0.00     0.012 C
HETATM   19  C15 UNL     1      -0.106  65.523  -1.227  1.00  0.00     0.012 C
HETATM   20  C12 UNL     1      -2.186  67.418  -0.699  1.00  0.00    -0.013 C
HETATM   21  C13 UNL     1      -1.974  66.831  -2.089  1.00  0.00     0.009 C
HETATM   22  C18 UNL     1      -3.134  66.548   0.104  1.00  0.00     0.012 C
HETATM   23  C14 UNL     1      -1.438  65.438  -1.918  1.00  0.00    -0.013 C
HETATM   24  C16 UNL     1      -2.345  64.571  -1.081  1.00  0.00     0.012 C
HETATM   25  C17 UNL     1      -2.512  65.157   0.291  1.00  0.00     0.016 C
ENDBRANCH  15  16
ENDBRANCH   1  15
TORSDOF 4
ENDMDL