MODEL 2
REMARK VINA RESULT: -6.828888158      1.725      1.957
REMARK  6 active torsions:
REMARK  status: ('A' for Active; 'I' for Inactive)
REMARK    1  A    between atoms: O1_1  and  N1_3
REMARK    2  A    between atoms: C1_5  and  C2_6
REMARK    3  A    between atoms: C1_5  and  C14_21
REMARK    4  A    between atoms: C2_6  and  N2_7
REMARK    5  A    between atoms: N2_7  and  C3_9
REMARK    6  A    between atoms: N3_12  and  C6_13
ROOT
HETATM    1  N2  UNL     1      52.763 135.362  20.143  1.00  0.00    -0.392 N
ATOM      2  H2  UNL     1      52.347 135.706  21.009  1.00  0.00     0.159 HD
ENDROOT
BRANCH   1   3
HETATM    3  C2  UNL     1      54.157 135.312  20.002  1.00  0.00     0.116 C
BRANCH   3   4
HETATM    4  C1  UNL     1      54.808 134.588  21.089  1.00  0.00     0.086 C
HETATM    5  N1  UNL     1      54.823 133.287  21.106  1.00  0.00    -0.267 N
ATOM      6  H1  UNL     1      55.277 132.777  21.864  1.00  0.00     0.194 HD
BRANCH   5   7
HETATM    7  O1  UNL     1      54.210 132.619  20.072  1.00  0.00    -0.289 OA
ATOM      8  H1  UNL     1      53.288 132.789  19.915  1.00  0.00     0.244 HD
ENDBRANCH   5   7
BRANCH   4   9
HETATM    9  C14 UNL     1      55.482 135.276  22.216  1.00  0.00     0.034 A
HETATM   10  C15 UNL     1      56.767 135.124  22.639  1.00  0.00     0.022 A
HETATM   11  C16 UNL     1      57.168 135.850  23.690  1.00  0.00     0.008 A
HETATM   12  C17 UNL     1      56.243 136.691  24.258  1.00  0.00     0.050 A
HETATM   13  S1  UNL     1      54.855 136.436  23.304  1.00  0.00    -0.100 SA
ENDBRANCH   4   9
ENDBRANCH   3   4
ENDBRANCH   1   3
BRANCH   1  14
HETATM   14  C3  UNL     1      51.945 134.938  19.092  1.00  0.00     0.084 C
HETATM   15  C4  UNL     1      52.587 135.222  17.738  1.00  0.00     0.055 C
HETATM   16  C5  UNL     1      51.741 134.503  16.672  1.00  0.00     0.275 C
HETATM   17  N3  UNL     1      50.490 135.235  16.629  1.00  0.00     0.093 N
HETATM   18  C12 UNL     1      49.824 134.938  17.884  1.00  0.00     0.275 C
HETATM   19  C13 UNL     1      50.578 135.594  19.021  1.00  0.00     0.055 C
BRANCH  17  20
HETATM   20  C6  UNL     1      49.680 134.914  15.489  1.00  0.00     0.223 C
HETATM   21  C7  UNL     1      48.275 134.569  15.914  1.00  0.00     0.036 C
HETATM   22  C8  UNL     1      47.417 134.141  14.747  1.00  0.00     0.002 C
HETATM   23  C9  UNL     1      48.022 133.063  13.912  1.00  0.00     0.000 C
HETATM   24  C10 UNL     1      49.410 133.423  13.495  1.00  0.00     0.002 C
HETATM   25  C11 UNL     1      50.306 133.869  14.628  1.00  0.00     0.036 C
ENDBRANCH  17  20
ENDBRANCH   1  14
TORSDOF 6
ENDMDL