MODEL 5
REMARK VINA RESULT: -5.383948721      2.413      4.533
REMARK  6 active torsions:
REMARK  status: ('A' for Active; 'I' for Inactive)
REMARK    1  A    between atoms: O1_2  and  C2_3
REMARK    2  A    between atoms: C3_4  and  O2_5
REMARK    3  A    between atoms: C5_8  and  O3_9
REMARK    4  A    between atoms: C9_14  and  C10_15
REMARK    5  A    between atoms: C9_14  and  O4_20
REMARK    6  A    between atoms: C11_16  and  C12_17
ROOT
HETATM    1  C2  UNL     1      53.894 135.436  17.498  1.00  0.00     0.110 A
HETATM    2  C3  UNL     1      52.596 135.340  17.041  1.00  0.00     0.102 A
HETATM    3  C4  UNL     1      51.496 135.453  17.881  1.00  0.00     0.078 A
HETATM    4  C5  UNL     1      51.763 135.671  19.231  1.00  0.00     0.102 A
HETATM    5  C6  UNL     1      53.042 135.772  19.719  1.00  0.00     0.112 A
HETATM    6  C7  UNL     1      54.091 135.654  18.849  1.00  0.00     0.018 A
HETATM    7  C8  UNL     1      55.474 135.757  19.344  1.00  0.00     0.090 C
HETATM    8  C9  UNL     1      55.403 136.804  20.585  1.00  0.00     0.113 C
HETATM    9  C16 UNL     1      54.579 136.016  21.557  1.00  0.00     0.095 C
HETATM   10  C17 UNL     1      54.591 136.509  22.979  1.00  0.00     0.050 C
HETATM   11  C18 UNL     1      54.986 134.573  21.604  1.00  0.00     0.050 C
HETATM   12  O5  UNL     1      53.228 135.986  21.056  1.00  0.00    -0.334 OA
ENDROOT
BRANCH   8  13
HETATM   13  C10 UNL     1      56.834 136.847  20.962  1.00  0.00     0.010 C
HETATM   14  C11 UNL     1      57.419 137.662  21.998  1.00  0.00    -0.024 C
BRANCH  14  15
HETATM   15  C12 UNL     1      57.407 139.137  21.969  1.00  0.00    -0.000 C
HETATM   16  C13 UNL     1      58.707 139.751  22.510  1.00  0.00     0.013 C
HETATM   17  C14 UNL     1      56.352 139.654  22.996  1.00  0.00     0.013 C
ENDBRANCH  14  15
ENDBRANCH   8  13
BRANCH   8  18
HETATM   18  O4  UNL     1      54.843 137.803  19.978  1.00  0.00    -0.378 OA
HETATM   19  C15 UNL     1      55.008 138.978  19.538  1.00  0.00     0.203 C
ENDBRANCH   8  18
BRANCH   1  20
HETATM   20  O1  UNL     1      54.922 135.310  16.576  1.00  0.00    -0.352 OA
HETATM   21  C1  UNL     1      55.449 136.389  15.846  1.00  0.00     0.210 C
ENDBRANCH   1  20
BRANCH   2  22
HETATM   22  O2  UNL     1      52.310 135.120  15.682  1.00  0.00    -0.358 OA
ATOM     23  H2  UNL     1      52.925 135.364  15.000  1.00  0.00     0.217 HD
ENDBRANCH   2  22
BRANCH   4  24
HETATM   24  O3  UNL     1      50.696 135.791  20.116  1.00  0.00    -0.358 OA
ATOM     25  H3  UNL     1      49.850 135.442  19.863  1.00  0.00     0.217 HD
ENDBRANCH   4  24
TORSDOF 6
ENDMDL