MODEL 2
REMARK VINA RESULT: -6.126394147      0.143      2.737
REMARK  6 active torsions:
REMARK  status: ('A' for Active; 'I' for Inactive)
REMARK    1  A    between atoms: O1_2  and  C2_3
REMARK    2  A    between atoms: C4_5  and  C5_6
REMARK    3  A    between atoms: C5_6  and  C6_7
REMARK    4  A    between atoms: C11_13  and  N1_14
REMARK    5  A    between atoms: C14_20  and  O2_21
REMARK    6  A    between atoms: C16_23  and  O3_24
ROOT
HETATM    1  C5  UNL     1      51.868 134.775  14.883  1.00  0.00    -0.035 C
HETATM    2  C7  UNL     1      50.796 134.028  14.756  1.00  0.00    -0.070 C
HETATM    3  C8  UNL     1      50.249 133.721  13.402  1.00  0.00     0.035 C
HETATM    4  C9  UNL     1      48.998 132.845  13.573  1.00  0.00     0.006 C
HETATM    5  C10 UNL     1      48.024 133.385  14.552  1.00  0.00     0.033 C
HETATM    6  C11 UNL     1      48.642 133.965  15.774  1.00  0.00     0.187 C
HETATM    7  C12 UNL     1      50.082 133.431  15.880  1.00  0.00     0.067 C
ENDROOT
BRANCH   1   8
HETATM    8  C4  UNL     1      52.452 135.117  16.164  1.00  0.00    -0.023 A
HETATM    9  C3  UNL     1      51.602 135.293  17.261  1.00  0.00     0.051 A
HETATM   10  C2  UNL     1      52.132 135.589  18.496  1.00  0.00     0.105 A
HETATM   11  C16 UNL     1      53.485 135.722  18.700  1.00  0.00     0.135 A
HETATM   12  C14 UNL     1      54.336 135.552  17.636  1.00  0.00     0.105 A
HETATM   13  C13 UNL     1      53.789 135.250  16.376  1.00  0.00     0.051 A
BRANCH  10  14
HETATM   14  O1  UNL     1      51.230 135.754  19.556  1.00  0.00    -0.353 OA
HETATM   15  C1  UNL     1      49.842 135.751  19.367  1.00  0.00     0.210 C
ENDBRANCH  10  14
BRANCH  11  16
HETATM   16  O3  UNL     1      53.944 136.020  19.965  1.00  0.00    -0.351 OA
HETATM   17  C17 UNL     1      54.372 135.044  20.891  1.00  0.00     0.210 C
ENDBRANCH  11  16
BRANCH  12  18
HETATM   18  O2  UNL     1      55.726 135.674  17.778  1.00  0.00    -0.353 OA
HETATM   19  C15 UNL     1      56.355 136.903  17.466  1.00  0.00     0.210 C
ENDBRANCH  12  18
ENDBRANCH   1   8
BRANCH   1  20
HETATM   20  C6  UNL     1      52.492 135.383  13.656  1.00  0.00     0.125 C
HETATM   21  S1  UNL     1      52.125 137.128  13.523  1.00  0.00    -0.093 SA
ENDBRANCH   1  20
BRANCH   6  22
HETATM   22  N1  UNL     1      47.912 133.702  16.974  1.00  0.00    -0.075 N
ATOM     23  H13 UNL     1      46.912 133.832  16.820  1.00  0.00     0.274 HD
ATOM     24  H12 UNL     1      47.926 132.705  17.190  1.00  0.00     0.274 HD
ATOM     25  H11 UNL     1      48.225 134.248  17.777  1.00  0.00     0.274 HD
ENDBRANCH   6  22
TORSDOF 6
ENDMDL