MODEL 3
REMARK VINA RESULT: -6.304855906      1.977      2.437
REMARK  7 active torsions:
REMARK  status: ('A' for Active; 'I' for Inactive)
REMARK    1  A    between atoms: C2_2  and  N1_4
REMARK       I    between atoms: N1_4  and  C4_6
REMARK    2  A    between atoms: C4_6  and  O2_8
REMARK    3  A    between atoms: O2_8  and  C5_9
REMARK    4  A    between atoms: C5_9  and  C6_10
REMARK    5  A    between atoms: C6_10  and  O3_11
REMARK    6  A    between atoms: C6_10  and  C7_13
REMARK    7  A    between atoms: C8_14  and  C9_15
ROOT
HETATM    1  C7  UNL     1      52.635 134.658  16.399  1.00  0.00     0.029 A
HETATM    2  C8  UNL     1      51.520 134.540  15.606  1.00  0.00    -0.051 A
HETATM    3  C15 UNL     1      51.604 135.286  14.400  1.00  0.00     0.116 A
HETATM    4  S1  UNL     1      53.095 136.064  14.412  1.00  0.00    -0.110 SA
HETATM    5  C16 UNL     1      53.658 135.503  15.875  1.00  0.00     0.096 A
HETATM    6  N2  UNL     1      54.929 135.816  16.501  1.00  0.00    -0.094 NA
ENDROOT
BRANCH   1   7
HETATM    7  C6  UNL     1      52.934 133.988  17.654  1.00  0.00     0.080 C
BRANCH   7   8
HETATM    8  C5  UNL     1      52.493 134.077  19.012  1.00  0.00     0.245 C
BRANCH   8   9
HETATM    9  O2  UNL     1      52.308 135.437  19.481  1.00  0.00    -0.297 OA
BRANCH   9  10
HETATM   10  C4  UNL     1      53.316 136.148  20.109  1.00  0.00     0.361 C
HETATM   11  N1  UNL     1      54.246 136.954  19.393  1.00  0.00    -0.333 N
ATOM     12  H1  UNL     1      54.179 137.021  18.377  1.00  0.00     0.165 HD
HETATM   13  O1  UNL     1      53.403 136.072  21.358  1.00  0.00    -0.238 OA
BRANCH  11  14
HETATM   14  C2  UNL     1      55.276 137.672  20.081  1.00  0.00     0.078 C
HETATM   15  C1  UNL     1      54.921 139.066  20.486  1.00  0.00     0.032 C
HETATM   16  C3  UNL     1      56.556 137.650  19.228  1.00  0.00     0.032 C
ENDBRANCH  11  14
ENDBRANCH   9  10
ENDBRANCH   8   9
ENDBRANCH   7   8
BRANCH   7  17
HETATM   17  O3  UNL     1      53.842 133.042  17.546  1.00  0.00    -0.362 OA
ATOM     18  H3  UNL     1      54.710 133.425  17.606  1.00  0.00     0.217 HD
ENDBRANCH   7  17
ENDBRANCH   1   7
BRANCH   2  19
HETATM   19  C9  UNL     1      50.262 133.761  15.736  1.00  0.00     0.016 C
HETATM   20  C10 UNL     1      49.324 134.187  14.561  1.00  0.00     0.009 C
HETATM   21  C11 UNL     1      47.874 134.082  14.835  1.00  0.00     0.001 C
HETATM   22  C12 UNL     1      47.422 134.940  16.007  1.00  0.00     0.000 C
HETATM   23  C13 UNL     1      48.542 134.942  17.022  1.00  0.00     0.001 C
HETATM   24  C14 UNL     1      49.366 133.660  16.827  1.00  0.00     0.009 C
ENDBRANCH   2  19
TORSDOF 7
ENDMDL