MODEL 4
REMARK VINA RESULT: -7.003632802      1.981      8.109
REMARK  6 active torsions:
REMARK  status: ('A' for Active; 'I' for Inactive)
REMARK    1  A    between atoms: C2_2  and  O1_3
REMARK    2  A    between atoms: O1_3  and  C3_4
REMARK    3  A    between atoms: C6_7  and  N1_8
REMARK    4  A    between atoms: C7_13  and  O2_14
REMARK    5  A    between atoms: O2_14  and  C8_15
REMARK    6  A    between atoms: C17_26  and  O3_27
ROOT
HETATM    1  C3  UNL     1      49.946 134.857  15.702  1.00  0.00     0.103 A
HETATM    2  C4  UNL     1      49.929 135.078  17.068  1.00  0.00     0.057 A
HETATM    3  C5  UNL     1      51.078 135.238  17.818  1.00  0.00     0.037 A
HETATM    4  C6  UNL     1      51.064 135.459  19.180  1.00  0.00     0.114 A
HETATM    5  N2  UNL     1      52.251 135.603  19.834  1.00  0.00    -0.308 N
ATOM      6  H2  UNL     1      52.249 135.767  20.841  1.00  0.00     0.171 HD
HETATM    7  C7  UNL     1      53.424 135.535  19.183  1.00  0.00     0.226 A
HETATM    8  N3  UNL     1      53.418 135.319  17.855  1.00  0.00    -0.321 N
ATOM      9  H3  UNL     1      54.310 135.268  17.364  1.00  0.00     0.169 HD
HETATM   10  C15 UNL     1      52.282 135.167  17.150  1.00  0.00     0.052 A
HETATM   11  C16 UNL     1      52.304 134.944  15.776  1.00  0.00     0.070 A
HETATM   12  C17 UNL     1      51.154 134.786  15.034  1.00  0.00     0.103 A
ENDROOT
BRANCH   7  13
HETATM   13  O2  UNL     1      54.659 135.675  19.799  1.00  0.00    -0.316 OA
BRANCH  13  14
HETATM   14  C8  UNL     1      55.184 134.715  20.702  1.00  0.00     0.132 C
HETATM   15  C9  UNL     1      55.456 133.395  20.006  1.00  0.00     0.032 C
HETATM   16  C10 UNL     1      55.001 132.287  20.934  1.00  0.00     0.002 C
HETATM   17  C11 UNL     1      56.007 132.182  22.042  1.00  0.00     0.000 C
HETATM   18  C12 UNL     1      55.967 133.360  22.988  1.00  0.00     0.000 C
HETATM   19  C13 UNL     1      56.848 134.489  22.573  1.00  0.00     0.002 C
HETATM   20  C14 UNL     1      56.430 135.221  21.358  1.00  0.00     0.032 C
ENDBRANCH  13  14
ENDBRANCH   7  13
BRANCH   4  21
HETATM   21  N1  UNL     1      49.939 135.519  19.771  1.00  0.00    -0.385 N
ATOM     22  H12 UNL     1      49.132 134.967  19.482  1.00  0.00     0.157 HD
ATOM     23  H11 UNL     1      49.843 136.148  20.569  1.00  0.00     0.157 HD
ENDBRANCH   4  21
BRANCH  12  24
HETATM   24  O3  UNL     1      51.191 134.565  13.662  1.00  0.00    -0.353 OA
HETATM   25  C18 UNL     1      52.158 135.185  12.836  1.00  0.00     0.210 C
ENDBRANCH  12  24
BRANCH   1  26
HETATM   26  O1  UNL     1      48.810 134.696  14.932  1.00  0.00    -0.349 OA
BRANCH  26  27
HETATM   27  C2  UNL     1      47.792 133.771  15.124  1.00  0.00     0.171 C
HETATM   28  C1  UNL     1      47.452 132.952  13.898  1.00  0.00     0.034 C
ENDBRANCH  26  27
ENDBRANCH   1  26
TORSDOF 6
ENDMDL