MODEL 1
REMARK VINA RESULT: -5.876740163      0.000      0.000
REMARK  7 active torsions:
REMARK  status: ('A' for Active; 'I' for Inactive)
REMARK    1  A    between atoms: O1_2  and  C2_3
REMARK    2  A    between atoms: C4_5  and  N1_6
REMARK    3  A    between atoms: N1_6  and  C5_8
REMARK    4  A    between atoms: C5_8  and  N2_10
REMARK    5  A    between atoms: N2_10  and  C6_12
REMARK    6  A    between atoms: C13_19  and  O2_20
REMARK    7  A    between atoms: C15_22  and  O3_23
ROOT
HETATM    1  C2  UNL     1      54.580 136.967  20.116  1.00  0.00     0.106 A
HETATM    2  C3  UNL     1      54.708 136.814  18.767  1.00  0.00     0.069 A
HETATM    3  C4  UNL     1      54.774 135.581  18.105  1.00  0.00     0.039 A
HETATM    4  C12 UNL     1      54.701 134.483  18.919  1.00  0.00     0.069 A
HETATM    5  C13 UNL     1      54.568 134.561  20.314  1.00  0.00     0.106 A
HETATM    6  C15 UNL     1      54.511 135.816  20.874  1.00  0.00     0.135 A
ENDROOT
BRANCH   3   7
HETATM    7  N1  UNL     1      54.937 135.594  16.710  1.00  0.00    -0.333 N
ATOM      8  H1  UNL     1      55.899 135.653  16.380  1.00  0.00     0.168 HD
BRANCH   7   9
HETATM    9  C5  UNL     1      53.965 135.538  15.722  1.00  0.00     0.172 C
HETATM   10  S1  UNL     1      54.098 136.396  14.353  1.00  0.00    -0.041 SA
BRANCH   9  11
HETATM   11  N2  UNL     1      52.833 134.666  15.876  1.00  0.00    -0.362 N
ATOM     12  H2  UNL     1      52.945 133.682  15.633  1.00  0.00     0.162 HD
BRANCH  11  13
HETATM   13  C6  UNL     1      51.553 135.106  16.355  1.00  0.00     0.083 C
HETATM   14  C7  UNL     1      51.184 134.371  17.608  1.00  0.00     0.025 C
HETATM   15  C8  UNL     1      49.982 135.130  18.179  1.00  0.00     0.002 C
HETATM   16  C9  UNL     1      48.841 134.876  17.235  1.00  0.00     0.000 C
HETATM   17  C10 UNL     1      49.101 135.123  15.808  1.00  0.00     0.002 C
HETATM   18  C11 UNL     1      50.490 134.860  15.321  1.00  0.00     0.025 C
ENDBRANCH  11  13
ENDBRANCH   9  11
ENDBRANCH   7   9
ENDBRANCH   3   7
BRANCH   1  19
HETATM   19  O1  UNL     1      54.522 138.240  20.709  1.00  0.00    -0.353 OA
HETATM   20  C1  UNL     1      55.719 138.970  20.830  1.00  0.00     0.210 C
ENDBRANCH   1  19
BRANCH   5  21
HETATM   21  O2  UNL     1      54.499 133.406  21.071  1.00  0.00    -0.353 OA
HETATM   22  C14 UNL     1      54.851 132.179  20.468  1.00  0.00     0.210 C
ENDBRANCH   5  21
BRANCH   6  23
HETATM   23  O3  UNL     1      54.382 135.946  22.244  1.00  0.00    -0.351 OA
HETATM   24  C16 UNL     1      55.444 135.954  23.154  1.00  0.00     0.210 C
ENDBRANCH   6  23
TORSDOF 7
ENDMDL