MODEL 1
REMARK VINA RESULT: -7.282520316      0.000      0.000
REMARK  7 active torsions:
REMARK  status: ('A' for Active; 'I' for Inactive)
REMARK    1  A    between atoms: O1_2  and  C2_3
REMARK    2  A    between atoms: C2_3  and  O2_4
REMARK    3  A    between atoms: O2_4  and  C3_5
REMARK    4  A    between atoms: C4_6  and  C5_7
REMARK    5  A    between atoms: C13_15  and  O3_16
REMARK    6  A    between atoms: N1_18  and  C14_19
REMARK    7  A    between atoms: C19_24  and  O4_25
ROOT
HETATM    1  C5  UNL     1      55.060 133.997  21.639  1.00  0.00     0.031 C
HETATM    2  C6  UNL     1      54.431 135.309  21.272  1.00  0.00     0.054 C
HETATM    3  C7  UNL     1      55.440 136.201  20.650  1.00  0.00    -0.021 C
HETATM    4  C8  UNL     1      56.343 135.691  19.831  1.00  0.00    -0.029 C
HETATM    5  C9  UNL     1      56.398 134.265  19.503  1.00  0.00     0.037 C
HETATM    6  C10 UNL     1      55.404 133.470  20.283  1.00  0.00     0.036 C
HETATM    7  C11 UNL     1      54.080 133.744  19.583  1.00  0.00     0.009 A
HETATM    8  C12 UNL     1      53.501 134.867  20.187  1.00  0.00     0.012 A
HETATM    9  C13 UNL     1      52.330 135.053  19.508  1.00  0.00     0.152 A
HETATM   10  N1  UNL     1      52.153 134.140  18.547  1.00  0.00    -0.303 N
HETATM   11  C19 UNL     1      53.225 133.334  18.589  1.00  0.00     0.152 A
ENDROOT
BRANCH   1  12
HETATM   12  C4  UNL     1      56.090 134.009  22.651  1.00  0.00     0.004 C
HETATM   13  C3  UNL     1      56.644 133.032  23.302  1.00  0.00     0.134 C
BRANCH  13  14
HETATM   14  O2  UNL     1      57.624 133.272  24.239  1.00  0.00    -0.338 OA
BRANCH  14  15
HETATM   15  C2  UNL     1      58.635 134.250  24.055  1.00  0.00     0.342 C
BRANCH  15  16
HETATM   16  O1  UNL     1      59.810 133.907  24.691  1.00  0.00    -0.371 OA
HETATM   17  C1  UNL     1      60.890 133.837  23.813  1.00  0.00     0.204 C
ENDBRANCH  15  16
ENDBRANCH  14  15
ENDBRANCH  13  14
ENDBRANCH   1  12
BRANCH   9  18
HETATM   18  O3  UNL     1      51.420 136.075  19.777  1.00  0.00    -0.345 OA
ATOM     19  H3  UNL     1      51.664 136.977  19.948  1.00  0.00     0.219 HD
ENDBRANCH   9  18
BRANCH  11  20
HETATM   20  O4  UNL     1      53.501 132.228  17.781  1.00  0.00    -0.345 OA
ATOM     21  H4  UNL     1      52.842 131.835  17.221  1.00  0.00     0.219 HD
ENDBRANCH  11  20
BRANCH  10  22
HETATM   22  C14 UNL     1      51.054 133.988  17.611  1.00  0.00     0.094 C
HETATM   23  C15 UNL     1      51.143 134.993  16.499  1.00  0.00     0.026 C
HETATM   24  C16 UNL     1      49.740 135.035  15.971  1.00  0.00     0.002 C
HETATM   25  C17 UNL     1      48.850 134.662  17.112  1.00  0.00     0.002 C
HETATM   26  C18 UNL     1      49.740 134.314  18.284  1.00  0.00     0.026 C
ENDBRANCH  10  22
TORSDOF 7
ENDMDL