MODEL 5
REMARK VINA RESULT: -5.939530861      2.490      4.519
REMARK  7 active torsions:
REMARK  status: ('A' for Active; 'I' for Inactive)
REMARK    1  A    between atoms: C2_2  and  C3_3
REMARK    2  A    between atoms: C4_5  and  C5_6
REMARK    3  A    between atoms: C5_6  and  N1_7
REMARK    4  A    between atoms: N1_7  and  C6_9
REMARK    5  A    between atoms: C6_9  and  C7_10
REMARK    6  A    between atoms: C7_10  and  O3_12
REMARK    7  A    between atoms: C19_24  and  O4_25
ROOT
HETATM    1  C6  UNL     1      54.843 135.894  19.576  1.00  0.00     0.125 C
HETATM    2  C9  UNL     1      55.243 136.166  21.024  1.00  0.00     0.043 C
HETATM    3  C10 UNL     1      55.841 137.477  21.305  1.00  0.00     0.012 C
HETATM    4  C11 UNL     1      55.878 138.519  20.268  1.00  0.00    -0.047 C
HETATM    5  C12 UNL     1      57.231 139.246  20.381  1.00  0.00     0.015 C
HETATM    6  C13 UNL     1      54.851 139.639  20.510  1.00  0.00     0.015 C
HETATM    7  C14 UNL     1      55.765 138.090  18.848  1.00  0.00     0.020 C
HETATM    8  C15 UNL     1      55.859 136.575  18.689  1.00  0.00    -0.012 C
HETATM    9  C16 UNL     1      55.700 136.275  17.226  1.00  0.00     0.018 C
HETATM   10  C17 UNL     1      57.251 136.106  19.078  1.00  0.00     0.018 C
ENDROOT
BRANCH   1  11
HETATM   11  N1  UNL     1      53.517 136.331  19.429  1.00  0.00    -0.378 N
ATOM     12  H1  UNL     1      53.372 137.224  18.956  1.00  0.00     0.160 HD
BRANCH  11  13
HETATM   13  C5  UNL     1      52.398 135.664  19.865  1.00  0.00     0.121 C
BRANCH  13  14
HETATM   14  C4  UNL     1      51.408 135.394  18.746  1.00  0.00     0.093 A
HETATM   15  O1  UNL     1      51.657 135.173  17.480  1.00  0.00    -0.311 OA
HETATM   16  C3  UNL     1      50.533 134.980  16.822  1.00  0.00     0.086 A
HETATM   17  C19 UNL     1      49.484 135.076  17.683  1.00  0.00     0.098 A
HETATM   18  C18 UNL     1      50.031 135.340  18.915  1.00  0.00     0.077 A
BRANCH  16  19
HETATM   19  C2  UNL     1      50.408 134.699  15.369  1.00  0.00     0.064 C
HETATM   20  C1  UNL     1      51.660 135.143  14.623  1.00  0.00     0.012 C
ENDBRANCH  16  19
BRANCH  17  21
HETATM   21  O4  UNL     1      48.145 134.945  17.422  1.00  0.00    -0.358 OA
ATOM     22  H4  UNL     1      47.722 134.585  16.650  1.00  0.00     0.217 HD
ENDBRANCH  17  21
ENDBRANCH  13  14
ENDBRANCH  11  13
ENDBRANCH   1  11
BRANCH   1  23
HETATM   23  C7  UNL     1      54.993 134.421  19.376  1.00  0.00     0.287 C
HETATM   24  O2  UNL     1      55.567 133.705  20.272  1.00  0.00    -0.262 OA
BRANCH  23  25
HETATM   25  O3  UNL     1      54.565 133.705  18.284  1.00  0.00    -0.325 OA
HETATM   26  C8  UNL     1      53.933 132.443  18.386  1.00  0.00     0.213 C
ENDBRANCH  23  25
ENDBRANCH   1  23
TORSDOF 7
ENDMDL