MODEL 4
REMARK VINA RESULT: -6.770172814      1.955      2.685
REMARK  7 active torsions:
REMARK  status: ('A' for Active; 'I' for Inactive)
REMARK    1  A    between atoms: C2_2  and  C4_4
REMARK    2  A    between atoms: C4_4  and  O2_19
REMARK    3  A    between atoms: C5_5  and  C6_6
REMARK    4  A    between atoms: C7_7  and  C9_9
REMARK    5  A    between atoms: C10_10  and  C11_11
REMARK    6  A    between atoms: C11_11  and  O1_12
REMARK    7  A    between atoms: O2_19  and  S1_20
ROOT
HETATM    1  C6  UNL     1      54.292 137.230  20.261  1.00  0.00     0.009 C
HETATM    2  C7  UNL     1      54.647 136.367  19.288  1.00  0.00    -0.062 C
HETATM    3  C8  UNL     1      56.067 136.072  19.056  1.00  0.00     0.048 C
ENDROOT
BRANCH   2   4
HETATM    4  C9  UNL     1      53.615 135.755  18.493  1.00  0.00     0.006 C
HETATM    5  C10 UNL     1      52.423 135.395  18.914  1.00  0.00     0.011 C
BRANCH   5   6
HETATM    6  C11 UNL     1      51.446 134.774  17.993  1.00  0.00     0.076 C
HETATM    7  C12 UNL     1      50.064 135.272  18.367  1.00  0.00     0.042 C
HETATM    8  C13 UNL     1      48.997 134.746  17.442  1.00  0.00     0.003 C
HETATM    9  C14 UNL     1      49.286 134.974  15.996  1.00  0.00     0.000 C
HETATM   10  C15 UNL     1      50.696 134.548  15.653  1.00  0.00     0.003 C
HETATM   11  C16 UNL     1      51.715 135.161  16.555  1.00  0.00     0.042 C
BRANCH   6  12
HETATM   12  O1  UNL     1      51.534 133.383  18.066  1.00  0.00    -0.386 OA
ATOM     13  H1  UNL     1      51.786 133.117  18.942  1.00  0.00     0.211 HD
ENDBRANCH   6  12
ENDBRANCH   5   6
ENDBRANCH   2   4
BRANCH   1  14
HETATM   14  C5  UNL     1      55.258 137.874  21.088  1.00  0.00     0.039 C
HETATM   15  C4  UNL     1      55.662 137.691  22.266  1.00  0.00     0.097 C
BRANCH  15  16
HETATM   16  C2  UNL     1      55.293 136.734  23.260  1.00  0.00    -0.036 C
HETATM   17  C1  UNL     1      54.483 137.085  24.289  1.00  0.00     0.021 C
HETATM   18  C3  UNL     1      55.761 135.331  23.230  1.00  0.00     0.050 C
ENDBRANCH  15  16
BRANCH  15  19
HETATM   19  O2  UNL     1      56.690 138.605  22.729  1.00  0.00    -0.214 OA
BRANCH  19  20
HETATM   20  S1  UNL     1      56.281 140.135  23.278  1.00  0.00     0.257 S
HETATM   21  O3  UNL     1      57.187 141.215  22.709  1.00  0.00    -0.572 OA
HETATM   22  O4  UNL     1      54.872 140.514  22.899  1.00  0.00    -0.572 OA
HETATM   23  O5  UNL     1      56.412 140.185  24.971  1.00  0.00    -0.572 OA
ENDBRANCH  19  20
ENDBRANCH  15  19
ENDBRANCH   1  14
TORSDOF 7
ENDMDL