MODEL 4
REMARK VINA RESULT: -5.957683945      3.858      5.852
REMARK  5 active torsions:
REMARK  status: ('A' for Active; 'I' for Inactive)
REMARK       I    between atoms: N2_3  and  C2_5
REMARK       I    between atoms: C2_5  and  N4_9
REMARK    1  A    between atoms: N7_17  and  N8_19
REMARK    2  A    between atoms: N8_19  and  C5_21
REMARK    3  A    between atoms: C5_21  and  C6_22
REMARK    4  A    between atoms: C6_22  and  S1_23
REMARK    5  A    between atoms: N9_27  and  O4_29
ROOT
HETATM    1  N1  UNL     1      -4.039   3.506   5.421  1.00  0.00    -0.171 NA
HETATM    2  C1  UNL     1      -4.403   2.415   5.302  1.00  0.00     0.196 C
HETATM    3  N2  UNL     1      -4.825   1.088   5.172  1.00  0.00    -0.124 N
ATOM      4  H2  UNL     1      -5.246   0.801   4.290  1.00  0.00     0.197 HD
HETATM    5  C2  UNL     1      -4.700   0.119   6.201  1.00  0.00     0.710 C
HETATM    6  N3  UNL     1      -5.056   0.369   7.397  1.00  0.00    -0.232 N
ATOM      7  H31 UNL     1      -4.966  -0.328   8.137  1.00  0.00     0.174 HD
ATOM      8  H32 UNL     1      -5.438   1.292   7.606  1.00  0.00     0.174 HD
HETATM    9  N4  UNL     1      -4.162  -1.180   5.907  1.00  0.00    -0.029 N
HETATM   10  N5  UNL     1      -3.007  -1.305   5.338  1.00  0.00    -0.257 N
ATOM     11  H5  UNL     1      -2.487  -0.460   5.102  1.00  0.00     0.190 HD
HETATM   12  C3  UNL     1      -2.444  -2.529   5.034  1.00  0.00     0.161 A
HETATM   13  N6  UNL     1      -1.310  -2.532   4.474  1.00  0.00    -0.381 N
ATOM     14  H61 UNL     1      -0.894  -3.437   4.250  1.00  0.00     0.157 HD
ATOM     15  H62 UNL     1      -0.787  -1.689   4.237  1.00  0.00     0.157 HD
HETATM   16  C4  UNL     1      -3.142  -3.654   5.350  1.00  0.00     0.170 A
HETATM   17  N7  UNL     1      -2.807  -4.829   5.165  1.00  0.00    -0.281 N
ATOM     18  H7  UNL     1      -3.507  -5.495   5.491  1.00  0.00     0.188 HD
HETATM   19  N10 UNL     1      -4.365  -3.464   5.954  1.00  0.00    -0.288 N
ATOM     20  H10 UNL     1      -4.912  -4.287   6.204  1.00  0.00     0.172 HD
HETATM   21  C7  UNL     1      -4.873  -2.265   6.230  1.00  0.00     0.362 A
HETATM   22  O5  UNL     1      -6.018  -2.147   6.794  1.00  0.00    -0.244 OA
ENDROOT
BRANCH  17  23
HETATM   23  N8  UNL     1      -1.719  -5.432   4.628  1.00  0.00    -0.285 N
ATOM     24  H8  UNL     1      -0.878  -5.490   5.202  1.00  0.00     0.188 HD
BRANCH  23  25
HETATM   25  C5  UNL     1      -1.663  -5.993   3.316  1.00  0.00     0.132 C
HETATM   26  N9  UNL     1      -2.678  -6.028   2.529  1.00  0.00    -0.255 N
ATOM     27  H9  UNL     1      -2.564  -6.444   1.605  1.00  0.00     0.195 HD
BRANCH  25  28
HETATM   28  C6  UNL     1      -0.384  -6.564   2.835  1.00  0.00     0.244 C
BRANCH  28  29
HETATM   29  S1  UNL     1       1.001  -5.551   3.290  1.00  0.00     0.108 S
HETATM   30  O1  UNL     1       2.222  -5.998   2.553  1.00  0.00    -0.595 OA
HETATM   31  O2  UNL     1       0.639  -4.124   2.967  1.00  0.00    -0.595 OA
HETATM   32  O3  UNL     1       1.210  -5.724   4.963  1.00  0.00    -0.595 OA
ENDBRANCH  28  29
ENDBRANCH  25  28
BRANCH  26  33
HETATM   33  O4  UNL     1      -3.902  -5.533   2.876  1.00  0.00    -0.288 OA
ATOM     34  H4  UNL     1      -4.531  -6.026   3.390  1.00  0.00     0.244 HD
ENDBRANCH  26  33
ENDBRANCH  23  25
ENDBRANCH  17  23
TORSDOF 5
ENDMDL