MODEL 2
REMARK VINA RESULT: -6.535055024      1.178      1.690
REMARK  10 active torsions:
REMARK  status: ('A' for Active; 'I' for Inactive)
REMARK    1  A    between atoms: N1_1  and  C1_4
REMARK    2  A    between atoms: N4_12  and  C4_13
REMARK    3  A    between atoms: C6_15  and  O2_16
REMARK    4  A    between atoms: C7_18  and  C8_19
REMARK    5  A    between atoms: C8_19  and  O3_20
REMARK    6  A    between atoms: C8_19  and  C9_22
REMARK    7  A    between atoms: C9_22  and  O4_23
REMARK    8  A    between atoms: C9_22  and  C10_25
REMARK    9  A    between atoms: C10_25  and  O5_26
REMARK   10  A    between atoms: C10_25  and  O6_28
ROOT
HETATM    1  C4  UNL     1      -4.918   0.851   6.912  1.00  0.00     0.265 C
HETATM    2  C5  UNL     1      -4.365   1.539   5.681  1.00  0.00     0.091 C
HETATM    3  C6  UNL     1      -4.045   0.348   4.803  1.00  0.00     0.154 C
HETATM    4  C7  UNL     1      -4.019  -0.778   5.806  1.00  0.00     0.184 C
HETATM    5  O7  UNL     1      -4.017  -0.199   7.065  1.00  0.00    -0.353 OA
ENDROOT
BRANCH   1   6
HETATM    6  N4  UNL     1      -4.885   1.776   8.012  1.00  0.00    -0.202 N
HETATM    7  N3  UNL     1      -5.015   3.088   7.887  1.00  0.00    -0.273 N
HETATM    8  C3  UNL     1      -4.945   3.699   9.071  1.00  0.00     0.164 A
ATOM      9  H3  UNL     1      -5.151   3.571   7.000  1.00  0.00     0.189 HD
HETATM   10  C2  UNL     1      -5.017   5.019   9.504  1.00  0.00     0.291 A
HETATM   11  C11 UNL     1      -4.757   2.694  10.005  1.00  0.00     0.171 A
HETATM   12  N2  UNL     1      -4.903   5.287  10.806  1.00  0.00    -0.154 N
HETATM   13  O1  UNL     1      -5.188   5.898   8.623  1.00  0.00    -0.265 OA
HETATM   14  C1  UNL     1      -4.722   4.299  11.698  1.00  0.00     0.680 A
ATOM     15  H2  UNL     1      -4.955   6.254  11.129  1.00  0.00     0.187 HD
HETATM   16  N6  UNL     1      -4.646   3.008  11.321  1.00  0.00    -0.173 N
ATOM     17  H6  UNL     1      -4.507   2.275  12.017  1.00  0.00     0.186 HD
HETATM   18  N5  UNL     1      -4.728   1.542   9.310  1.00  0.00    -0.264 N
ATOM     19  H5  UNL     1      -4.602   0.618   9.723  1.00  0.00     0.190 HD
BRANCH  14  20
HETATM   20  N1  UNL     1      -4.620   4.625  12.946  1.00  0.00    -0.234 N
ATOM     21  H12 UNL     1      -3.703   4.738  13.377  1.00  0.00     0.174 HD
ATOM     22  H11 UNL     1      -5.482   4.763  13.472  1.00  0.00     0.174 HD
ENDBRANCH  14  20
ENDBRANCH   1   6
BRANCH   3  23
HETATM   23  O2  UNL     1      -5.145   0.170   3.949  1.00  0.00    -0.393 OA
ATOM     24  H2  UNL     1      -5.646  -0.558   4.297  1.00  0.00     0.210 HD
ENDBRANCH   3  23
BRANCH   4  25
HETATM   25  C8  UNL     1      -2.804  -1.620   5.542  1.00  0.00     0.183 C
BRANCH  25  26
HETATM   26  O3  UNL     1      -2.553  -1.562   4.163  1.00  0.00    -0.390 OA
ATOM     27  H3  UNL     1      -1.623  -1.712   4.042  1.00  0.00     0.210 HD
ENDBRANCH  25  26
BRANCH  25  28
HETATM   28  C9  UNL     1      -3.095  -3.088   5.852  1.00  0.00     0.204 C
BRANCH  28  29
HETATM   29  O4  UNL     1      -4.352  -3.381   5.372  1.00  0.00    -0.388 OA
ATOM     30  H4  UNL     1      -4.253  -3.990   4.651  1.00  0.00     0.210 HD
ENDBRANCH  28  29
BRANCH  28  31
HETATM   31  C10 UNL     1      -2.027  -3.940   5.189  1.00  0.00     0.285 C
BRANCH  31  32
HETATM   32  O5  UNL     1      -0.841  -3.219   5.120  1.00  0.00    -0.369 OA
ATOM     33  H5  UNL     1      -0.399  -3.262   5.960  1.00  0.00     0.212 HD
ENDBRANCH  31  32
BRANCH  31  34
HETATM   34  O6  UNL     1      -2.421  -4.197   3.874  1.00  0.00    -0.369 OA
ATOM     35  H6  UNL     1      -2.155  -5.080   3.647  1.00  0.00     0.212 HD
ENDBRANCH  31  34
ENDBRANCH  28  31
ENDBRANCH  25  28
ENDBRANCH   4  25
TORSDOF 10
ENDMDL