MODEL 5
REMARK VINA RESULT: -5.691357887      2.551      6.971
REMARK  9 active torsions:
REMARK  status: ('A' for Active; 'I' for Inactive)
REMARK    1  A    between atoms: C3_3  and  O1_4
REMARK    2  A    between atoms: C3_3  and  C4_6
REMARK       I    between atoms: C4_6  and  N1_8
REMARK    3  A    between atoms: N1_8  and  N2_10
REMARK       I    between atoms: N2_10  and  C5_12
REMARK    4  A    between atoms: C5_12  and  C6_14
REMARK    5  A    between atoms: N5_19  and  N6_20
REMARK    6  A    between atoms: C7_23  and  C8_24
REMARK    7  A    between atoms: C8_24  and  N8_29
REMARK    8  A    between atoms: N7_25  and  O4_27
REMARK    9  A    between atoms: N8_29  and  N9_31
REMARK       I    between atoms: N9_31  and  C9_33
ROOT
HETATM    1  C1  UNL     1      -1.442  -5.954   6.286  1.00  0.00     0.015 C
HETATM    2  C2  UNL     1      -1.496  -5.027   5.504  1.00  0.00    -0.076 C
HETATM    3  C3  UNL     1      -1.573  -3.925   4.523  1.00  0.00     0.289 C
ENDROOT
BRANCH   3   4
HETATM    4  O1  UNL     1      -0.432  -3.855   3.752  1.00  0.00    -0.374 OA
ATOM      5  H1  UNL     1      -0.516  -3.205   3.064  1.00  0.00     0.211 HD
ENDBRANCH   3   4
BRANCH   3   6
HETATM    6  C4  UNL     1      -1.930  -2.667   5.208  1.00  0.00     0.276 C
HETATM    7  O2  UNL     1      -0.976  -2.023   5.737  1.00  0.00    -0.268 OA
HETATM    8  N1  UNL     1      -3.230  -2.128   5.327  1.00  0.00    -0.264 N
ATOM      9  H1  UNL     1      -4.012  -2.628   4.906  1.00  0.00     0.190 HD
BRANCH   8  10
HETATM   10  N2  UNL     1      -3.477  -0.934   6.000  1.00  0.00    -0.262 N
HETATM   11  C5  UNL     1      -4.263   0.067   5.394  1.00  0.00     0.290 C
HETATM   12  O3  UNL     1      -4.736  -0.113   4.267  1.00  0.00    -0.264 OA
ATOM     13  H2  UNL     1      -3.089  -0.784   6.932  1.00  0.00     0.190 HD
BRANCH  11  14
HETATM   14  C6  UNL     1      -4.511   1.308   6.125  1.00  0.00     0.153 A
HETATM   15  N3  UNL     1      -4.349   2.551   5.573  1.00  0.00    -0.277 N
HETATM   16  N4  UNL     1      -4.614   3.434   6.494  1.00  0.00    -0.221 N
ATOM     17  H3  UNL     1      -4.070   2.750   4.613  1.00  0.00     0.189 HD
HETATM   18  N5  UNL     1      -4.941   2.864   7.622  1.00  0.00    -0.182 N
ATOM     19  H4  UNL     1      -4.572   4.443   6.351  1.00  0.00     0.210 HD
HETATM   20  C7  UNL     1      -4.883   1.515   7.410  1.00  0.00     0.156 A
BRANCH  18  21
HETATM   21  N6  UNL     1      -5.279   3.529   8.821  1.00  0.00    -0.322 N
ATOM     22  H62 UNL     1      -4.759   4.277   9.281  1.00  0.00     0.179 HD
ATOM     23  H61 UNL     1      -6.104   3.352   9.393  1.00  0.00     0.179 HD
ENDBRANCH  18  21
BRANCH  20  24
HETATM   24  C8  UNL     1      -5.207   0.589   8.482  1.00  0.00     0.173 C
HETATM   25  N7  UNL     1      -4.286   0.477   9.439  1.00  0.00    -0.250 N
ATOM     26  H7  UNL     1      -3.436   1.034   9.360  1.00  0.00     0.196 HD
BRANCH  25  27
HETATM   27  O4  UNL     1      -4.421  -0.342  10.516  1.00  0.00    -0.288 OA
ATOM     28  H4  UNL     1      -3.851  -0.307  11.275  1.00  0.00     0.244 HD
ENDBRANCH  25  27
BRANCH  24  29
HETATM   29  N8  UNL     1      -6.356  -0.160   8.703  1.00  0.00    -0.278 N
ATOM     30  H8  UNL     1      -7.176   0.268   9.131  1.00  0.00     0.189 HD
BRANCH  29  31
HETATM   31  N9  UNL     1      -6.375  -1.531   8.324  1.00  0.00    -0.252 N
HETATM   32  C9  UNL     1      -6.961  -1.964   7.112  1.00  0.00     0.347 C
HETATM   33  N10 UNL     1      -6.999  -3.314   6.704  1.00  0.00    -0.038 NA
HETATM   34  O5  UNL     1      -7.475  -1.093   6.364  1.00  0.00    -0.249 OA
ATOM     35  H9  UNL     1      -5.955  -2.222   8.945  1.00  0.00     0.191 HD
ENDBRANCH  29  31
ENDBRANCH  24  29
ENDBRANCH  20  24
ENDBRANCH  11  14
ENDBRANCH   8  10
ENDBRANCH   3   6
TORSDOF 9
ENDMDL