MODEL 4
REMARK VINA RESULT: -5.646653264      9.693     11.431
REMARK  8 active torsions:
REMARK  status: ('A' for Active; 'I' for Inactive)
REMARK    1  A    between atoms: N5_15  and  C6_16
REMARK    2  A    between atoms: C7_18  and  C8_19
REMARK    3  A    between atoms: C8_19  and  O2_20
REMARK    4  A    between atoms: C8_19  and  C9_22
REMARK    5  A    between atoms: C9_22  and  O3_23
REMARK    6  A    between atoms: C9_22  and  N6_25
REMARK    7  A    between atoms: N6_25  and  N7_26
REMARK    8  A    between atoms: C12_34  and  O5_35
ROOT
HETATM    1  C6  UNL     1      -4.814   0.154   6.770  1.00  0.00     0.269 C
HETATM    2  O1  UNL     1      -6.050  -0.400   6.579  1.00  0.00    -0.353 OA
HETATM    3  C7  UNL     1      -6.271  -1.552   7.318  1.00  0.00     0.174 C
HETATM    4  C10 UNL     1      -5.675  -2.778   6.780  1.00  0.00     0.157 C
HETATM    5  N8  UNL     1      -4.394  -2.665   6.158  1.00  0.00    -0.356 N
ATOM      6  H8  UNL     1      -3.958  -3.575   6.014  1.00  0.00     0.162 HD
HETATM    7  C11 UNL     1      -3.585  -1.617   5.695  1.00  0.00     0.251 C
HETATM    8  O4  UNL     1      -2.401  -1.899   5.375  1.00  0.00    -0.271 OA
HETATM    9  C12 UNL     1      -3.989  -0.197   5.546  1.00  0.00     0.259 C
ENDROOT
BRANCH   1  10
HETATM   10  N5  UNL     1      -4.807   1.549   7.072  1.00  0.00    -0.297 N
HETATM   11  C3  UNL     1      -5.050   2.218   8.196  1.00  0.00     0.142 A
HETATM   12  N3  UNL     1      -5.378   1.796   9.414  1.00  0.00    -0.336 N
HETATM   13  C4  UNL     1      -4.922   3.577   8.002  1.00  0.00     0.122 A
HETATM   14  C2  UNL     1      -5.589   2.637  10.446  1.00  0.00     0.183 A
ATOM     15  H3  UNL     1      -5.475   0.794   9.574  1.00  0.00     0.168 HD
HETATM   16  N2  UNL     1      -5.461   3.968  10.248  1.00  0.00    -0.337 N
HETATM   17  C1  UNL     1      -5.132   4.448   9.047  1.00  0.00     0.131 A
ATOM     18  H2  UNL     1      -5.618   4.612  11.024  1.00  0.00     0.168 HD
HETATM   19  N1  UNL     1      -5.017   5.710   8.883  1.00  0.00    -0.383 N
ATOM     20  H12 UNL     1      -5.174   6.355   9.657  1.00  0.00     0.157 HD
ATOM     21  H11 UNL     1      -4.766   6.077   7.964  1.00  0.00     0.157 HD
HETATM   22  N4  UNL     1      -4.588   3.713   6.702  1.00  0.00    -0.346 N
HETATM   23  C5  UNL     1      -4.519   2.504   6.140  1.00  0.00     0.188 A
ATOM     24  H4  UNL     1      -4.417   4.598   6.224  1.00  0.00     0.167 HD
ENDBRANCH   1  10
BRANCH   9  25
HETATM   25  O5  UNL     1      -4.815  -0.154   4.398  1.00  0.00    -0.382 OA
ATOM     26  H5  UNL     1      -4.341   0.259   3.686  1.00  0.00     0.210 HD
ENDBRANCH   9  25
BRANCH   3  27
HETATM   27  C8  UNL     1      -7.788  -1.697   7.400  1.00  0.00     0.195 C
BRANCH  27  28
HETATM   28  O2  UNL     1      -8.247  -1.366   6.103  1.00  0.00    -0.389 OA
ATOM     29  H2  UNL     1      -8.798  -2.098   5.850  1.00  0.00     0.210 HD
ENDBRANCH  27  28
BRANCH  27  30
HETATM   30  C9  UNL     1      -8.410  -0.684   8.323  1.00  0.00     0.261 C
BRANCH  30  31
HETATM   31  O3  UNL     1      -9.429  -1.198   9.106  1.00  0.00    -0.375 OA
ATOM     32  H3  UNL     1     -10.294  -0.903   8.848  1.00  0.00     0.211 HD
ENDBRANCH  30  31
BRANCH  30  33
HETATM   33  N6  UNL     1      -9.030   0.327   7.462  1.00  0.00    -0.113 NA
BRANCH  33  34
HETATM   34  N7  UNL     1      -8.380   1.546   7.525  1.00  0.00    -0.346 N
ATOM     35  H72 UNL     1      -7.366   1.630   7.602  1.00  0.00     0.172 HD
ATOM     36  H71 UNL     1      -9.026   2.335   7.485  1.00  0.00     0.172 HD
ENDBRANCH  33  34
ENDBRANCH  30  33
ENDBRANCH  27  30
ENDBRANCH   3  27
TORSDOF 8
ENDMDL