MODEL 5
REMARK VINA RESULT: -5.899501901      0.843      1.048
REMARK  11 active torsions:
REMARK  status: ('A' for Active; 'I' for Inactive)
REMARK    1  A    between atoms: C4_8  and  O2_9
REMARK    2  A    between atoms: C5_11  and  C6_12
REMARK    3  A    between atoms: C6_12  and  C7_13
REMARK    4  A    between atoms: C7_13  and  O3_14
REMARK    5  A    between atoms: C7_13  and  C8_16
REMARK    6  A    between atoms: C8_16  and  O4_17
REMARK    7  A    between atoms: C8_16  and  C9_19
REMARK    8  A    between atoms: C9_19  and  O5_20
REMARK    9  A    between atoms: C9_19  and  O6_22
REMARK   10  A    between atoms: C11_27  and  O8_28
REMARK   11  A    between atoms: C12_30  and  O9_31
ROOT
HETATM    1  O1  UNL     1     -14.737   4.869   2.824  1.00  0.00    -0.270 OA
HETATM    2  C1  UNL     1     -15.036   3.697   2.478  1.00  0.00     0.259 C
HETATM    3  N1  UNL     1     -16.327   3.262   2.055  1.00  0.00    -0.356 N
ATOM      4  H1  UNL     1     -17.094   3.848   1.726  1.00  0.00     0.162 HD
HETATM    5  C2  UNL     1     -16.327   1.812   2.188  1.00  0.00     0.153 C
HETATM    6  C3  UNL     1     -14.901   1.473   1.790  1.00  0.00     0.177 C
HETATM    7  N2  UNL     1     -14.425   0.283   2.426  1.00  0.00    -0.253 N
HETATM    8  C4  UNL     1     -14.404  -1.064   2.235  1.00  0.00     0.170 A
HETATM    9  C5  UNL     1     -13.748  -1.605   3.295  1.00  0.00     0.066 A
HETATM   10  C10 UNL     1     -13.375  -0.577   4.124  1.00  0.00     0.275 A
HETATM   11  O7  UNL     1     -12.742  -0.716   5.212  1.00  0.00    -0.266 OA
HETATM   12  N3  UNL     1     -13.807   0.571   3.560  1.00  0.00    -0.219 N
HETATM   13  C11 UNL     1     -13.808   1.990   3.799  1.00  0.00     0.290 C
HETATM   14  C12 UNL     1     -14.110   2.563   2.448  1.00  0.00     0.208 C
ENDROOT
BRANCH   9  15
HETATM   15  C6  UNL     1     -13.497  -3.083   3.483  1.00  0.00     0.083 C
BRANCH  15  16
HETATM   16  C7  UNL     1     -12.027  -3.269   3.211  1.00  0.00     0.156 C
BRANCH  16  17
HETATM   17  O3  UNL     1     -11.869  -3.635   1.880  1.00  0.00    -0.393 OA
ATOM     18  H3  UNL     1     -11.217  -4.323   1.832  1.00  0.00     0.210 HD
ENDBRANCH  16  17
BRANCH  16  19
HETATM   19  C8  UNL     1     -11.292  -4.117   4.191  1.00  0.00     0.202 C
BRANCH  19  20
HETATM   20  O4  UNL     1     -12.235  -4.877   4.924  1.00  0.00    -0.388 OA
ATOM     21  H4  UNL     1     -11.816  -5.196   5.715  1.00  0.00     0.210 HD
ENDBRANCH  19  20
BRANCH  19  22
HETATM   22  C9  UNL     1     -10.476  -3.336   5.166  1.00  0.00     0.285 C
BRANCH  22  23
HETATM   23  O5  UNL     1     -11.215  -2.989   6.265  1.00  0.00    -0.369 OA
ATOM     24  H5  UNL     1     -11.689  -3.737   6.609  1.00  0.00     0.212 HD
ENDBRANCH  22  23
BRANCH  22  25
HETATM   25  O6  UNL     1      -9.955  -2.196   4.510  1.00  0.00    -0.369 OA
ATOM     26  H6  UNL     1     -10.575  -1.915   3.848  1.00  0.00     0.212 HD
ENDBRANCH  22  25
ENDBRANCH  19  22
ENDBRANCH  16  19
ENDBRANCH  15  16
ENDBRANCH   9  15
BRANCH   8  27
HETATM   27  O2  UNL     1     -14.947  -1.769   1.161  1.00  0.00    -0.344 OA
ATOM     28  H2  UNL     1     -15.825  -2.126   1.096  1.00  0.00     0.219 HD
ENDBRANCH   8  27
BRANCH  13  29
HETATM   29  O8  UNL     1     -12.602   2.444   4.321  1.00  0.00    -0.371 OA
ATOM     30  H8  UNL     1     -12.722   3.051   5.042  1.00  0.00     0.212 HD
ENDBRANCH  13  29
BRANCH  14  31
HETATM   31  O9  UNL     1     -12.962   2.813   1.701  1.00  0.00    -0.374 OA
ATOM     32  H9  UNL     1     -12.994   3.639   1.233  1.00  0.00     0.211 HD
ENDBRANCH  14  31
TORSDOF 11
ENDMDL