MODEL 1
REMARK VINA RESULT: -6.337758088      0.000      0.000
REMARK  7 active torsions:
REMARK  status: ('A' for Active; 'I' for Inactive)
REMARK       I    between atoms: N1_1  and  C1_4
REMARK       I    between atoms: C1_4  and  N3_6
REMARK    1  A    between atoms: N3_6  and  C2_8
REMARK    2  A    between atoms: C3_11  and  C4_12
REMARK    3  A    between atoms: C4_12  and  O1_13
REMARK    4  A    between atoms: C4_12  and  C5_15
REMARK    5  A    between atoms: C5_15  and  N5_16
REMARK    6  A    between atoms: N9_28  and  C9_29
REMARK    7  A    between atoms: C10_33  and  O4_34
ROOT
HETATM    1  C2  UNL     1      -2.582  -4.341   4.505  1.00  0.00     0.707 A
HETATM    2  N4  UNL     1      -3.543  -3.710   5.204  1.00  0.00    -0.175 N
ATOM      3  H4  UNL     1      -4.533  -3.675   4.963  1.00  0.00     0.185 HD
HETATM    4  C3  UNL     1      -2.973  -3.134   6.275  1.00  0.00     0.143 A
HETATM    5  N8  UNL     1      -1.665  -3.428   6.206  1.00  0.00    -0.266 N
ATOM      6  H8  UNL     1      -0.964  -3.129   6.884  1.00  0.00     0.189 HD
HETATM    7  N9  UNL     1      -1.416  -4.160   5.136  1.00  0.00    -0.065 N
ENDROOT
BRANCH   4   8
HETATM    8  C4  UNL     1      -3.674  -2.324   7.332  1.00  0.00     0.207 C
BRANCH   8   9
HETATM    9  O1  UNL     1      -2.854  -1.261   7.675  1.00  0.00    -0.386 OA
ATOM     10  H1  UNL     1      -3.052  -1.012   8.570  1.00  0.00     0.210 HD
ENDBRANCH   8   9
BRANCH   8  11
HETATM   11  C5  UNL     1      -4.964  -1.766   6.774  1.00  0.00     0.193 C
BRANCH  11  12
HETATM   12  N5  UNL     1      -4.778  -0.351   6.543  1.00  0.00    -0.240 N
HETATM   13  N6  UNL     1      -5.000   0.507   7.522  1.00  0.00    -0.300 N
HETATM   14  C6  UNL     1      -4.843   1.838   7.364  1.00  0.00     0.181 A
ATOM     15  H6  UNL     1      -5.301   0.152   8.430  1.00  0.00     0.186 HD
HETATM   16  C7  UNL     1      -4.441   2.324   6.151  1.00  0.00     0.266 A
HETATM   17  O2  UNL     1      -4.299   3.565   6.016  1.00  0.00    -0.267 OA
HETATM   18  N7  UNL     1      -4.213   1.463   5.147  1.00  0.00    -0.273 N
HETATM   19  C8  UNL     1      -4.385   0.138   5.359  1.00  0.00     0.344 A
ATOM     20  H7  UNL     1      -3.912   1.804   4.234  1.00  0.00     0.173 HD
HETATM   21  O3  UNL     1      -4.159  -0.636   4.387  1.00  0.00    -0.245 OA
ENDBRANCH  11  12
ENDBRANCH   8  11
ENDBRANCH   4   8
BRANCH   1  22
HETATM   22  N3  UNL     1      -2.730  -5.011   3.413  1.00  0.00    -0.162 N
HETATM   23  C1  UNL     1      -3.660  -6.089   3.322  1.00  0.00     0.200 C
HETATM   24  N1  UNL     1      -3.499  -7.086   4.116  1.00  0.00    -0.373 N
HETATM   25  N2  UNL     1      -4.731  -6.082   2.396  1.00  0.00    -0.063 NA
ATOM     26  H12 UNL     1      -4.164  -7.857   4.051  1.00  0.00     0.158 HD
ATOM     27  H11 UNL     1      -2.727  -7.091   4.783  1.00  0.00     0.158 HD
ATOM     28  H3  UNL     1      -2.170  -4.765   2.596  1.00  0.00     0.187 HD
ENDBRANCH   1  22
BRANCH   7  29
HETATM   29  C9  UNL     1      -0.093  -4.669   4.735  1.00  0.00     0.476 C
HETATM   30  N10 UNL     1      -0.163  -6.121   4.581  1.00  0.00     0.022 N
HETATM   31  C10 UNL     1       0.729  -5.863   3.456  1.00  0.00     0.475 C
ATOM     32 2H10 UNL     1       0.061  -6.774   5.333  1.00  0.00     0.288 HD
ATOM     33 1H10 UNL     1      -1.042  -6.632   4.492  1.00  0.00     0.288 HD
HETATM   34  O5  UNL     1       0.157  -4.582   3.390  1.00  0.00    -0.287 OA
BRANCH  31  35
HETATM   35  O4  UNL     1       0.454  -6.640   2.322  1.00  0.00    -0.349 OA
ATOM     36  H4  UNL     1       0.307  -6.132   1.532  1.00  0.00     0.214 HD
ENDBRANCH  31  35
ENDBRANCH   7  29
TORSDOF 7
ENDMDL