MODEL 3
REMARK VINA RESULT: -5.089167010     10.667     12.317
REMARK  11 active torsions:
REMARK  status: ('A' for Active; 'I' for Inactive)
REMARK    1  A    between atoms: C2_2  and  N1_3
REMARK    2  A    between atoms: C2_2  and  N2_7
REMARK    3  A    between atoms: C7_19  and  O2_20
REMARK    4  A    between atoms: C7_19  and  C8_22
REMARK    5  A    between atoms: C8_22  and  O3_23
REMARK    6  A    between atoms: C8_22  and  C9_25
REMARK    7  A    between atoms: C8_22  and  C10_28
REMARK    8  A    between atoms: C10_28  and  O5_29
REMARK    9  A    between atoms: C10_28  and  C11_31
REMARK   10  A    between atoms: C11_31  and  O6_32
REMARK   11  A    between atoms: C11_31  and  O7_34
ROOT
HETATM    1  N2  UNL     1      -4.305  -6.242   2.984  1.00  0.00    -0.210 N
HETATM    2  N3  UNL     1      -3.167  -5.591   2.928  1.00  0.00    -0.235 N
ATOM      3  H3  UNL     1      -2.633  -5.593   2.060  1.00  0.00     0.208 HD
HETATM    4  N4  UNL     1      -2.703  -4.940   3.968  1.00  0.00    -0.285 N
ATOM      5  H4  UNL     1      -1.812  -4.453   3.866  1.00  0.00     0.188 HD
HETATM    6  C3  UNL     1      -3.316  -4.873   5.143  1.00  0.00     0.099 A
HETATM    7  C4  UNL     1      -4.518  -5.541   5.257  1.00  0.00     0.126 A
HETATM    8  C5  UNL     1      -4.992  -6.229   4.137  1.00  0.00     0.293 A
HETATM    9  O1  UNL     1      -6.090  -6.857   4.187  1.00  0.00    -0.264 OA
HETATM   10  N5  UNL     1      -5.064  -5.398   6.557  1.00  0.00    -0.380 N
ATOM     11  H5  UNL     1      -6.034  -5.547   6.834  1.00  0.00     0.160 HD
HETATM   12  C6  UNL     1      -3.963  -4.994   7.416  1.00  0.00     0.168 C
HETATM   13  C7  UNL     1      -3.035  -4.248   6.430  1.00  0.00     0.161 C
ENDROOT
BRANCH  13  14
HETATM   14  O2  UNL     1      -1.738  -4.614   6.800  1.00  0.00    -0.378 OA
ATOM     15  H2  UNL     1      -1.801  -5.424   7.293  1.00  0.00     0.211 HD
ENDBRANCH  13  14
BRANCH  13  16
HETATM   16  C8  UNL     1      -3.325  -2.820   6.597  1.00  0.00     0.205 C
BRANCH  16  17
HETATM   17  O3  UNL     1      -4.376  -2.691   7.565  1.00  0.00    -0.375 OA
ATOM     18  H3  UNL     1      -4.206  -1.912   8.081  1.00  0.00     0.211 HD
ENDBRANCH  16  17
BRANCH  16  19
HETATM   19  C9  UNL     1      -2.179  -2.149   7.212  1.00  0.00     0.272 C
HETATM   20  N6  UNL     1      -2.283  -1.699   8.585  1.00  0.00    -0.059 NA
HETATM   21  O4  UNL     1      -1.084  -1.909   6.673  1.00  0.00    -0.273 OA
ENDBRANCH  16  19
BRANCH  16  22
HETATM   22  C10 UNL     1      -3.833  -2.047   5.425  1.00  0.00     0.220 C
BRANCH  22  23
HETATM   23  O5  UNL     1      -2.756  -1.725   4.554  1.00  0.00    -0.387 OA
ATOM     24  H5  UNL     1      -2.538  -0.804   4.637  1.00  0.00     0.210 HD
ENDBRANCH  22  23
BRANCH  22  25
HETATM   25  C11 UNL     1      -4.547  -0.774   5.689  1.00  0.00     0.286 C
BRANCH  25  26
HETATM   26  O6  UNL     1      -5.821  -0.836   6.173  1.00  0.00    -0.369 OA
ATOM     27  H6  UNL     1      -5.951  -0.731   7.108  1.00  0.00     0.212 HD
ENDBRANCH  25  26
BRANCH  25  28
HETATM   28  O7  UNL     1      -4.659  -0.107   4.438  1.00  0.00    -0.369 OA
ATOM     29  H7  UNL     1      -4.547   0.819   4.615  1.00  0.00     0.212 HD
ENDBRANCH  25  28
ENDBRANCH  22  25
ENDBRANCH  16  22
ENDBRANCH  13  16
BRANCH   1  30
HETATM   30  C2  UNL     1      -4.853  -6.976   1.855  1.00  0.00     0.305 C
HETATM   31  C1  UNL     1      -4.594  -6.272   0.540  1.00  0.00     0.065 C
BRANCH  30  32
HETATM   32  N1  UNL     1      -4.432  -8.344   1.814  1.00  0.00    -0.057 N
ATOM     33  H13 UNL     1      -5.053  -8.908   1.233  1.00  0.00     0.276 HD
ATOM     34  H12 UNL     1      -3.571  -8.452   1.277  1.00  0.00     0.276 HD
ATOM     35  H11 UNL     1      -4.339  -8.737   2.750  1.00  0.00     0.276 HD
ENDBRANCH  30  32
ENDBRANCH   1  30
TORSDOF 11
ENDMDL