MODEL 1
REMARK VINA RESULT: -5.805660426      0.000      0.000
REMARK  8 active torsions:
REMARK  status: ('A' for Active; 'I' for Inactive)
REMARK    1  A    between atoms: N1_1  and  C1_4
REMARK    2  A    between atoms: N5_15  and  C5_16
REMARK    3  A    between atoms: C5_16  and  C6_17
REMARK    4  A    between atoms: C6_17  and  O1_18
REMARK    5  A    between atoms: C6_17  and  C7_20
REMARK    6  A    between atoms: C10_27  and  C11_28
REMARK    7  A    between atoms: C11_28  and  O4_29
REMARK    8  A    between atoms: N7_31  and  O5_32
ROOT
HETATM    1  C1  UNL     1      -0.832  -5.932   2.955  1.00  0.00     0.679 A
HETATM    2  N2  UNL     1      -1.688  -6.213   1.971  1.00  0.00    -0.175 N
ATOM      3  H2  UNL     1      -1.343  -6.384   1.027  1.00  0.00     0.186 HD
HETATM    4  C2  UNL     1      -3.012  -6.269   2.229  1.00  0.00     0.145 A
HETATM    5  N3  UNL     1      -3.856  -6.543   1.280  1.00  0.00    -0.383 N
ATOM      6  H31 UNL     1      -4.856  -6.586   1.475  1.00  0.00     0.157 HD
ATOM      7  H32 UNL     1      -3.491  -6.712   0.342  1.00  0.00     0.157 HD
HETATM    8  C3  UNL     1      -3.507  -6.041   3.499  1.00  0.00     0.123 A
HETATM    9  N4  UNL     1      -4.752  -6.045   3.978  1.00  0.00    -0.346 N
ATOM     10  H4  UNL     1      -5.614  -6.228   3.464  1.00  0.00     0.167 HD
HETATM   11  C4  UNL     1      -4.624  -5.750   5.308  1.00  0.00     0.185 A
HETATM   12  N5  UNL     1      -3.323  -5.576   5.615  1.00  0.00    -0.324 N
HETATM   13  C12 UNL     1      -2.608  -5.754   4.492  1.00  0.00     0.155 A
HETATM   14  N8  UNL     1      -1.303  -5.705   4.208  1.00  0.00    -0.174 N
ATOM     15  H8  UNL     1      -0.642  -5.490   4.954  1.00  0.00     0.186 HD
ENDROOT
BRANCH  12  16
HETATM   16  C5  UNL     1      -2.796  -5.248   6.924  1.00  0.00     0.165 C
BRANCH  16  17
HETATM   17  C6  UNL     1      -2.274  -3.861   7.050  1.00  0.00     0.165 C
BRANCH  17  18
HETATM   18  O1  UNL     1      -0.900  -3.863   6.823  1.00  0.00    -0.392 OA
ATOM     19  H1  UNL     1      -0.627  -3.000   6.534  1.00  0.00     0.210 HD
ENDBRANCH  17  18
BRANCH  17  20
HETATM   20  C7  UNL     1      -2.988  -2.811   6.280  1.00  0.00     0.209 C
HETATM   21  C8  UNL     1      -2.155  -2.190   5.217  1.00  0.00     0.247 C
HETATM   22  O2  UNL     1      -0.992  -2.526   4.921  1.00  0.00    -0.271 OA
HETATM   23  N6  UNL     1      -2.792  -1.125   4.509  1.00  0.00    -0.295 N
HETATM   24  C9  UNL     1      -3.956  -0.578   5.120  1.00  0.00     0.246 C
ATOM     25  H6  UNL     1      -2.435  -0.778   3.618  1.00  0.00     0.171 HD
HETATM   26  O3  UNL     1      -4.837  -0.050   4.395  1.00  0.00    -0.271 OA
HETATM   27  C10 UNL     1      -4.060  -0.664   6.595  1.00  0.00     0.202 C
HETATM   28  N7  UNL     1      -3.432  -1.785   7.195  1.00  0.00    -0.168 NA
BRANCH  27  29
HETATM   29  C11 UNL     1      -5.502  -0.506   7.044  1.00  0.00     0.195 C
BRANCH  29  30
HETATM   30  O4  UNL     1      -6.360  -1.268   6.257  1.00  0.00    -0.399 OA
ATOM     31  H4  UNL     1      -5.917  -2.033   5.909  1.00  0.00     0.209 HD
ENDBRANCH  29  30
ENDBRANCH  27  29
BRANCH  28  32
HETATM   32  O5  UNL     1      -2.480  -1.439   8.093  1.00  0.00    -0.311 OA
ATOM     33  H5  UNL     1      -2.665  -1.764   8.967  1.00  0.00     0.237 HD
ENDBRANCH  28  32
ENDBRANCH  17  20
ENDBRANCH  16  17
ENDBRANCH  12  16
BRANCH   1  34
HETATM   34  N1  UNL     1       0.447  -5.870   2.735  1.00  0.00    -0.234 N
ATOM     35  H12 UNL     1       0.896  -6.605   2.189  1.00  0.00     0.174 HD
ATOM     36  H11 UNL     1       1.008  -5.101   3.101  1.00  0.00     0.174 HD
ENDBRANCH   1  34
TORSDOF 8
ENDMDL