MODEL 5
REMARK VINA RESULT: -7.080553991      4.147      7.262
REMARK  3 active torsions:
REMARK  status: ('A' for Active; 'I' for Inactive)
REMARK    1  A    between atoms: C3_6  and  C4_7
REMARK    2  A    between atoms: C4_7  and  C5_8
REMARK    3  A    between atoms: C7_12  and  O3_13
ROOT
HETATM    1  C5  UNL     1      45.530  13.401  -2.209  1.00  0.00     0.021 C
HETATM    2  N1  UNL     1      46.102  12.414  -2.776  1.00  0.00    -0.384 N
ATOM      3  H1  UNL     1      46.384  12.654  -3.727  1.00  0.00     0.160 HD
HETATM    4  C6  UNL     1      46.455  11.093  -2.467  1.00  0.00     0.119 C
HETATM    5  C7  UNL     1      45.314  10.158  -2.665  1.00  0.00     0.141 C
HETATM    6  C8  UNL     1      45.700   8.717  -2.316  1.00  0.00     0.034 C
HETATM    7  C9  UNL     1      45.930   8.768  -0.798  1.00  0.00     0.003 C
HETATM    8  C10 UNL     1      47.177   9.556  -0.601  1.00  0.00     0.012 C
HETATM    9  C11 UNL     1      47.183  10.932  -1.166  1.00  0.00     0.049 C
HETATM   10  C12 UNL     1      46.785  11.925  -0.105  1.00  0.00     0.067 C
HETATM   11  N2  UNL     1      45.455  12.321  -0.058  1.00  0.00    -0.377 N
ATOM     12  H2  UNL     1      44.800  11.826   0.548  1.00  0.00     0.164 HD
HETATM   13  C13 UNL     1      45.007  13.393  -0.833  1.00  0.00     0.112 C
ENDROOT
BRANCH   1  14
HETATM   14  C4  UNL     1      45.420  14.610  -3.039  1.00  0.00     0.062 C
BRANCH  14  15
HETATM   15  C3  UNL     1      44.331  14.423  -4.060  1.00  0.00    -0.007 C
HETATM   16  C2  UNL     1      43.197  15.331  -3.648  1.00  0.00     0.020 C
HETATM   17  C1  UNL     1      41.967  15.175  -4.488  1.00  0.00     0.140 C
HETATM   18  S1  UNL     1      42.445  15.570  -6.173  1.00  0.00     0.144 S
HETATM   19  O1  UNL     1      42.810  17.042  -6.158  1.00  0.00    -0.228 OA
HETATM   20  O2  UNL     1      41.341  15.279  -7.132  1.00  0.00    -0.228 OA
HETATM   21  C15 UNL     1      43.878  14.605  -6.531  1.00  0.00     0.140 C
HETATM   22  C14 UNL     1      44.886  14.760  -5.414  1.00  0.00     0.020 C
ENDBRANCH  14  15
ENDBRANCH   1  14
BRANCH   5  23
HETATM   23  O3  UNL     1      44.147  10.464  -2.019  1.00  0.00    -0.393 OA
ATOM     24  H3  UNL     1      43.888   9.889  -1.308  1.00  0.00     0.210 HD
ENDBRANCH   5  23
TORSDOF 3
ENDMDL