MODEL 1
REMARK VINA RESULT: -6.824064308      0.000      0.000
REMARK  1 active torsions:
REMARK  status: ('A' for Active; 'I' for Inactive)
REMARK    1  A    between atoms: O1_2  and  C2_3
ROOT
HETATM    1  C2  UNL     1      41.526  15.772  -7.197  1.00  0.00     0.087 C
HETATM    2  C3  UNL     1      42.457  14.745  -7.801  1.00  0.00     0.041 C
HETATM    3  C4  UNL     1      43.875  14.785  -7.367  1.00  0.00     0.030 C
HETATM    4  C5  UNL     1      44.233  13.792  -6.276  1.00  0.00     0.232 C
HETATM    5  N1  UNL     1      45.350  14.235  -5.471  1.00  0.00    -0.075 N
ATOM      6  H11 UNL     1      45.834  15.024  -5.899  1.00  0.00     0.277 HD
ATOM      7  H12 UNL     1      46.115  13.559  -5.483  1.00  0.00     0.277 HD
HETATM    8  C6  UNL     1      44.916  14.543  -4.095  1.00  0.00     0.237 C
HETATM    9  C7  UNL     1      44.448  15.973  -3.960  1.00  0.00     0.099 C
HETATM   10  C8  UNL     1      43.035  16.131  -3.510  1.00  0.00     0.264 C
HETATM   11  N2  UNL     1      42.394  14.970  -3.055  1.00  0.00    -0.038 N
ATOM     12  H21 UNL     1      42.608  14.168  -3.647  1.00  0.00     0.281 HD
ATOM     13  H22 UNL     1      41.387  15.013  -3.209  1.00  0.00     0.281 HD
HETATM   14  C9  UNL     1      42.704  14.713  -1.696  1.00  0.00     0.262 C
HETATM   15  C10 UNL     1      43.133  16.100  -1.257  1.00  0.00     0.198 C
HETATM   16  O2  UNL     1      43.107  16.919  -2.336  1.00  0.00    -0.351 OA
HETATM   17  C11 UNL     1      42.140  16.894  -4.503  1.00  0.00     0.217 C
HETATM   18  C12 UNL     1      41.721  18.241  -3.939  1.00  0.00     0.049 C
HETATM   19  C13 UNL     1      42.117  19.289  -4.946  1.00  0.00     0.033 C
HETATM   20  C14 UNL     1      43.290  18.618  -5.601  1.00  0.00     0.274 C
HETATM   21  N3  UNL     1      42.847  17.246  -5.685  1.00  0.00     0.106 N
HETATM   22  C15 UNL     1      42.206  17.087  -6.922  1.00  0.00     0.311 C
HETATM   23  C16 UNL     1      40.860  16.146  -4.778  1.00  0.00     0.050 C
HETATM   24  C17 UNL     1      40.811  15.286  -5.995  1.00  0.00     0.042 C
ENDROOT
BRANCH   1  25
HETATM   25  O1  UNL     1      40.616  16.082  -8.203  1.00  0.00    -0.383 OA
HETATM   26  C1  UNL     1      39.443  15.394  -8.205  1.00  0.00     0.202 C
ENDBRANCH   1  25
TORSDOF 1
ENDMDL