MODEL 5
REMARK VINA RESULT: -6.303948341      2.087      4.778
REMARK  3 active torsions:
REMARK  status: ('A' for Active; 'I' for Inactive)
REMARK    1  A    between atoms: O1_2  and  C2_3
REMARK    2  A    between atoms: C6_9  and  O4_10
REMARK    3  A    between atoms: C17_22  and  O5_23
ROOT
HETATM    1  C2  UNL     1      43.657  15.595  -2.562  1.00  0.00     0.190 C
HETATM    2  C3  UNL     1      43.273  15.580  -1.080  1.00  0.00     0.082 C
HETATM    3  O2  UNL     1      43.264  16.773  -3.109  1.00  0.00    -0.315 OA
HETATM    4  C4  UNL     1      42.215  16.558  -3.988  1.00  0.00     0.182 C
HETATM    5  O3  UNL     1      41.224  17.451  -3.812  1.00  0.00    -0.351 OA
HETATM    6  C5  UNL     1      41.768  18.712  -3.829  1.00  0.00     0.203 C
HETATM    7  C6  UNL     1      42.846  19.019  -4.750  1.00  0.00     0.143 C
HETATM    8  C7  UNL     1      43.571  17.826  -5.395  1.00  0.00     0.049 C
HETATM    9  C8  UNL     1      42.640  16.744  -5.434  1.00  0.00     0.028 A
HETATM   10  C9  UNL     1      41.588  16.823  -6.471  1.00  0.00     0.005 A
HETATM   11  C10 UNL     1      42.162  17.294  -7.790  1.00  0.00     0.006 C
HETATM   12  C11 UNL     1      41.599  16.242  -8.760  1.00  0.00     0.005 C
HETATM   13  C12 UNL     1      42.020  14.981  -8.003  1.00  0.00    -0.014 C
HETATM   14  C13 UNL     1      43.466  14.658  -8.230  1.00  0.00     0.010 C
HETATM   15  C14 UNL     1      41.665  15.318  -6.618  1.00  0.00    -0.000 A
HETATM   16  C15 UNL     1      42.756  15.349  -5.579  1.00  0.00     0.017 A
HETATM   17  C16 UNL     1      42.061  15.147  -4.220  1.00  0.00     0.088 C
HETATM   18  C17 UNL     1      42.962  14.460  -3.225  1.00  0.00     0.190 C
ENDROOT
BRANCH   1  19
HETATM   19  O1  UNL     1      45.026  15.364  -2.613  1.00  0.00    -0.358 OA
HETATM   20  C1  UNL     1      45.530  14.929  -1.389  1.00  0.00     0.205 C
ENDBRANCH   1  19
BRANCH  18  21
HETATM   21  O5  UNL     1      43.812  13.584  -3.880  1.00  0.00    -0.390 OA
ATOM     22  H5  UNL     1      43.622  12.667  -3.718  1.00  0.00     0.210 HD
ENDBRANCH  18  21
BRANCH   7  23
HETATM   23  O4  UNL     1      42.388  19.903  -5.756  1.00  0.00    -0.393 OA
ATOM     24  H4  UNL     1      41.908  20.622  -5.363  1.00  0.00     0.210 HD
ENDBRANCH   7  23
TORSDOF 3
ENDMDL