MODEL 5
REMARK VINA RESULT: -5.606500110      1.979      3.360
REMARK  2 active torsions:
REMARK  status: ('A' for Active; 'I' for Inactive)
REMARK    1  A    between atoms: C2_2  and  C3_3
REMARK    2  A    between atoms: C11_13  and  O3_14
ROOT
HETATM    1  C3  UNL     1      43.843  15.402   0.133  1.00  0.00     0.058 C
HETATM    2  C4  UNL     1      44.873  14.502   0.825  1.00  0.00     0.046 C
HETATM    3  C5  UNL     1      44.447  15.884  -1.131  1.00  0.00     0.054 C
HETATM    4  C6  UNL     1      43.378  15.608  -2.156  1.00  0.00     0.039 C
HETATM    5  C7  UNL     1      42.504  14.617  -1.477  1.00  0.00     0.183 C
HETATM    6  O1  UNL     1      42.750  14.630  -0.139  1.00  0.00    -0.380 OA
HETATM    7  C8  UNL     1      43.938  14.964  -3.414  1.00  0.00     0.136 C
HETATM    8  C9  UNL     1      42.777  14.608  -4.284  1.00  0.00     0.065 C
HETATM    9  C10 UNL     1      41.896  15.755  -4.647  1.00  0.00     0.136 C
HETATM   10  O2  UNL     1      42.337  16.297  -5.836  1.00  0.00    -0.347 OA
HETATM   11  C11 UNL     1      42.800  17.559  -5.616  1.00  0.00     0.191 C
HETATM   12  C12 UNL     1      44.279  17.591  -5.937  1.00  0.00     0.073 C
HETATM   13  C13 UNL     1      44.765  16.209  -6.391  1.00  0.00     0.032 C
HETATM   14  C14 UNL     1      45.302  15.418  -5.218  1.00  0.00     0.168 C
HETATM   15  O4  UNL     1      44.806  15.845  -4.012  1.00  0.00    -0.385 OA
HETATM   16  C15 UNL     1      42.478  17.989  -4.234  1.00  0.00     0.256 C
HETATM   17  N1  UNL     1      43.493  17.809  -3.233  1.00  0.00    -0.059 N
ATOM     18  H11 UNL     1      43.856  18.624  -2.739  1.00  0.00     0.278 HD
ATOM     19  H12 UNL     1      44.435  17.545  -3.520  1.00  0.00     0.278 HD
HETATM   20  C16 UNL     1      42.681  16.859  -2.522  1.00  0.00     0.208 C
HETATM   21  C17 UNL     1      41.742  16.808  -3.639  1.00  0.00     0.082 C
ENDROOT
BRANCH   1  22
HETATM   22  C2  UNL     1      43.457  16.478   1.100  1.00  0.00     0.033 C
HETATM   23  C1  UNL     1      42.579  15.985   2.225  1.00  0.00     0.008 C
ENDBRANCH   1  22
BRANCH  11  24
HETATM   24  O3  UNL     1      42.102  18.416  -6.498  1.00  0.00    -0.364 OA
ATOM     25  H3  UNL     1      42.026  19.258  -6.065  1.00  0.00     0.213 HD
ENDBRANCH  11  24
TORSDOF 2
ENDMDL