MODEL 1
REMARK VINA RESULT: -6.808785740      0.000      0.000
REMARK  1 active torsions:
REMARK  status: ('A' for Active; 'I' for Inactive)
REMARK    1  A    between atoms: C2_2  and  C4_4
ROOT
HETATM    1  C4  UNL     1      44.758  15.356  -0.778  1.00  0.00     0.008 C
HETATM    2  C5  UNL     1      43.359  15.197  -1.274  1.00  0.00     0.045 C
HETATM    3  C6  UNL     1      43.201  15.690  -2.725  1.00  0.00     0.084 C
HETATM    4  C7  UNL     1      43.254  17.178  -2.661  1.00  0.00     0.067 C
HETATM    5  C8  UNL     1      42.271  17.904  -3.503  1.00  0.00     0.235 C
HETATM    6  N1  UNL     1      42.854  18.046  -4.846  1.00  0.00    -0.075 N
ATOM      7  H11 UNL     1      43.533  17.310  -5.045  1.00  0.00     0.277 HD
ATOM      8  H12 UNL     1      43.480  18.849  -4.906  1.00  0.00     0.277 HD
HETATM    9  C9  UNL     1      41.823  18.100  -5.834  1.00  0.00     0.233 C
HETATM   10  C10 UNL     1      42.070  17.251  -7.032  1.00  0.00     0.055 C
HETATM   11  C11 UNL     1      42.234  15.809  -6.797  1.00  0.00     0.233 C
HETATM   12  N2  UNL     1      42.780  15.436  -5.519  1.00  0.00    -0.075 N
ATOM     13  H21 UNL     1      43.325  16.190  -5.099  1.00  0.00     0.277 HD
ATOM     14  H22 UNL     1      43.527  14.746  -5.606  1.00  0.00     0.277 HD
HETATM   15  C12 UNL     1      41.735  14.991  -4.667  1.00  0.00     0.235 C
HETATM   16  C13 UNL     1      41.941  15.094  -3.215  1.00  0.00     0.067 C
HETATM   17  O1  UNL     1      44.264  15.247  -3.498  1.00  0.00    -0.264 OA
HETATM   18  S1  UNL     1      44.957  13.844  -2.939  1.00  0.00     0.266 S
HETATM   19  O2  UNL     1      46.155  13.550  -3.797  1.00  0.00    -0.199 OA
HETATM   20  O3  UNL     1      44.042  12.679  -2.965  1.00  0.00    -0.199 OA
HETATM   21  C14 UNL     1      45.569  14.181  -1.285  1.00  0.00     0.175 C
ENDROOT
BRANCH   1  22
HETATM   22  C2  UNL     1      44.741  15.378   0.736  1.00  0.00    -0.018 C
HETATM   23  C1  UNL     1      43.368  15.607   1.288  1.00  0.00     0.010 C
HETATM   24  C3  UNL     1      45.178  13.984   1.203  1.00  0.00     0.010 C
ENDBRANCH   1  22
TORSDOF 1
ENDMDL