MODEL 5
REMARK VINA RESULT: -6.954815296      2.389      7.000
REMARK  2 active torsions:
REMARK  status: ('A' for Active; 'I' for Inactive)
REMARK    1  A    between atoms: O1_3  and  C2_4
REMARK    2  A    between atoms: C16_22  and  O4_23
ROOT
HETATM    1  N1  UNL     1      45.652  13.218   2.628  1.00  0.00    -0.164 NA
HETATM    2  C1  UNL     1      44.995  13.602   1.755  1.00  0.00     0.229 C
HETATM    3  O1  UNL     1      44.223  14.037   0.723  1.00  0.00    -0.268 OA
ENDROOT
BRANCH   3   4
HETATM    4  C2  UNL     1      44.570  15.198  -0.008  1.00  0.00     0.239 C
HETATM    5  C3  UNL     1      43.380  15.836  -0.631  1.00  0.00     0.159 C
HETATM    6  O2  UNL     1      42.695  15.167  -1.376  1.00  0.00    -0.295 OA
HETATM    7  C4  UNL     1      42.960  17.239  -0.413  1.00  0.00     0.083 C
HETATM    8  C5  UNL     1      43.107  18.141  -1.569  1.00  0.00     0.027 C
HETATM    9  C6  UNL     1      42.050  18.014  -2.632  1.00  0.00     0.123 C
HETATM   10  N2  UNL     1      42.551  18.491  -3.908  1.00  0.00    -0.361 N
HETATM   11  C7  UNL     1      42.138  18.104  -5.180  1.00  0.00     0.217 C
ATOM     12  H2  UNL     1      43.293  19.190  -3.867  1.00  0.00     0.162 HD
HETATM   13  O3  UNL     1      41.836  19.023  -6.024  1.00  0.00    -0.274 OA
HETATM   14  C8  UNL     1      41.991  16.735  -5.719  1.00  0.00     0.103 C
HETATM   15  C9  UNL     1      42.765  15.692  -4.986  1.00  0.00     0.009 C
HETATM   16  C10 UNL     1      43.333  14.738  -5.990  1.00  0.00     0.000 C
HETATM   17  C11 UNL     1      44.554  14.011  -5.532  1.00  0.00     0.000 C
HETATM   18  C12 UNL     1      44.343  13.155  -4.323  1.00  0.00     0.000 C
HETATM   19  C13 UNL     1      45.616  12.893  -3.553  1.00  0.00     0.000 C
HETATM   20  C14 UNL     1      45.265  12.670  -2.119  1.00  0.00     0.002 C
HETATM   21  C15 UNL     1      46.027  13.479  -1.136  1.00  0.00     0.035 C
HETATM   22  C16 UNL     1      45.657  14.914  -1.020  1.00  0.00     0.156 C
BRANCH  22  23
HETATM   23  O4  UNL     1      45.373  15.416  -2.266  1.00  0.00    -0.393 OA
ATOM     24  H4  UNL     1      45.808  14.942  -2.965  1.00  0.00     0.210 HD
ENDBRANCH  22  23
ENDBRANCH   3   4
TORSDOF 2
ENDMDL