MODEL 1
REMARK VINA RESULT: -5.029948787      0.000      0.000
REMARK  3 active torsions:
REMARK  status: ('A' for Active; 'I' for Inactive)
REMARK    1  A    between atoms: O1_2  and  C2_3
REMARK    2  A    between atoms: C5_6  and  O2_8
REMARK    3  A    between atoms: C8_11  and  O3_12
ROOT
HETATM    1  C2  UNL     1      44.605  14.418  -4.533  1.00  0.00     0.156 C
HETATM    2  C3  UNL     1      45.428  15.026  -3.454  1.00  0.00     0.038 C
HETATM    3  C4  UNL     1      44.742  16.087  -2.671  1.00  0.00     0.041 C
HETATM    4  C5  UNL     1      43.277  16.228  -2.947  1.00  0.00     0.070 C
HETATM    5  C6  UNL     1      42.810  17.421  -2.132  1.00  0.00     0.047 C
HETATM    6  C7  UNL     1      42.850  16.224  -4.355  1.00  0.00     0.084 C
HETATM    7  C8  UNL     1      41.422  15.652  -4.419  1.00  0.00     0.143 C
HETATM    8  C9  UNL     1      41.015  16.769  -5.372  1.00  0.00     0.053 C
HETATM    9  C10 UNL     1      40.796  16.302  -6.749  1.00  0.00     0.013 C
HETATM   10  C11 UNL     1      41.948  16.291  -7.675  1.00  0.00     0.032 C
HETATM   11  C12 UNL     1      42.830  15.082  -7.454  1.00  0.00     0.118 C
HETATM   12  C13 UNL     1      43.933  15.048  -8.493  1.00  0.00     0.039 C
HETATM   13  O4  UNL     1      43.158  14.774  -6.220  1.00  0.00    -0.372 OA
HETATM   14  C14 UNL     1      43.783  15.486  -5.299  1.00  0.00     0.099 C
HETATM   15  C15 UNL     1      44.885  16.374  -5.836  1.00  0.00     0.050 C
HETATM   16  C16 UNL     1      42.292  17.438  -4.991  1.00  0.00     0.104 A
HETATM   17  C17 UNL     1      42.852  18.600  -5.462  1.00  0.00     0.208 A
HETATM   18  O5  UNL     1      42.113  18.640  -4.322  1.00  0.00    -0.373 OA
ENDROOT
BRANCH   4  19
HETATM   19  O2  UNL     1      42.669  15.131  -2.274  1.00  0.00    -0.389 OA
ATOM     20  H2  UNL     1      42.152  14.691  -2.939  1.00  0.00     0.210 HD
ENDBRANCH   4  19
BRANCH   7  21
HETATM   21  O3  UNL     1      41.264  14.383  -4.865  1.00  0.00    -0.394 OA
ATOM     22  H3  UNL     1      41.279  13.680  -4.227  1.00  0.00     0.210 HD
ENDBRANCH   7  21
BRANCH   1  23
HETATM   23  O1  UNL     1      43.860  13.334  -4.179  1.00  0.00    -0.388 OA
HETATM   24  C1  UNL     1      44.591  12.416  -3.431  1.00  0.00     0.202 C
ENDBRANCH   1  23
TORSDOF 3
ENDMDL