MODEL 2
REMARK VINA RESULT: -7.802748914      1.230      1.922
REMARK  4 active torsions:
REMARK  status: ('A' for Active; 'I' for Inactive)
REMARK    1  A    between atoms: O1_1  and  C1_3
REMARK    2  A    between atoms: C3_5  and  O2_6
REMARK    3  A    between atoms: O2_6  and  C4_7
REMARK    4  A    between atoms: C17_22  and  O5_23
ROOT
HETATM    1  C4  UNL     1      43.323  16.574  -1.722  1.00  0.00     0.264 C
HETATM    2  C5  UNL     1      42.404  17.751  -1.502  1.00  0.00     0.064 C
HETATM    3  C6  UNL     1      42.364  18.334  -2.925  1.00  0.00     0.044 C
HETATM    4  C7  UNL     1      42.530  17.097  -3.749  1.00  0.00     0.071 C
HETATM    5  O3  UNL     1      42.848  16.051  -2.925  1.00  0.00    -0.349 OA
HETATM    6  C8  UNL     1      43.636  17.226  -4.779  1.00  0.00     0.021 C
HETATM    7  C9  UNL     1      43.302  18.216  -5.862  1.00  0.00     0.012 C
HETATM    8  C10 UNL     1      42.077  17.711  -6.586  1.00  0.00    -0.013 C
HETATM    9  C11 UNL     1      42.264  16.345  -7.164  1.00  0.00     0.009 C
HETATM   10  C12 UNL     1      42.560  15.382  -6.023  1.00  0.00    -0.013 C
HETATM   11  C13 UNL     1      43.833  15.842  -5.371  1.00  0.00     0.012 C
HETATM   12  C14 UNL     1      41.433  15.341  -5.027  1.00  0.00     0.012 C
HETATM   13  C15 UNL     1      41.229  16.726  -4.463  1.00  0.00     0.021 C
HETATM   14  C16 UNL     1      40.943  17.678  -5.601  1.00  0.00     0.012 C
ENDROOT
BRANCH   1  15
HETATM   15  O2  UNL     1      43.164  15.572  -0.789  1.00  0.00    -0.331 OA
BRANCH  15  16
HETATM   16  C3  UNL     1      43.922  14.470  -0.943  1.00  0.00     0.268 C
HETATM   17  C2  UNL     1      45.348  14.910  -1.303  1.00  0.00     0.097 C
HETATM   18  C1  UNL     1      45.893  13.559  -1.747  1.00  0.00     0.177 C
HETATM   19  C17 UNL     1      44.686  12.963  -2.409  1.00  0.00     0.288 C
HETATM   20  O4  UNL     1      43.568  13.583  -1.909  1.00  0.00    -0.329 OA
BRANCH  18  21
HETATM   21  O1  UNL     1      46.228  12.873  -0.559  1.00  0.00    -0.390 OA
ATOM     22  H1  UNL     1      47.132  12.601  -0.666  1.00  0.00     0.210 HD
ENDBRANCH  18  21
BRANCH  19  23
HETATM   23  O5  UNL     1      44.698  11.584  -2.209  1.00  0.00    -0.369 OA
ATOM     24  H5  UNL     1      44.766  11.152  -3.053  1.00  0.00     0.212 HD
ENDBRANCH  19  23
ENDBRANCH  15  16
ENDBRANCH   1  15
TORSDOF 4
ENDMDL