MODEL 1
REMARK VINA RESULT: -5.548489097      0.000      0.000
REMARK  3 active torsions:
REMARK  status: ('A' for Active; 'I' for Inactive)
REMARK    1  A    between atoms: C5_5  and  O1_6
REMARK    2  A    between atoms: O1_6  and  C6_7
REMARK    3  A    between atoms: C12_15  and  O4_16
ROOT
HETATM    1  C1  UNL     1      29.295  51.696  -6.282  1.00  0.00     0.015 C
HETATM    2  C2  UNL     1      29.456  53.094  -5.872  1.00  0.00    -0.039 C
HETATM    3  C3  UNL     1      30.887  53.544  -5.648  1.00  0.00     0.012 C
HETATM    4  C4  UNL     1      30.659  54.892  -4.996  1.00  0.00     0.041 C
HETATM    5  C5  UNL     1      29.196  54.893  -4.527  1.00  0.00     0.090 C
HETATM    6  C11 UNL     1      28.901  53.397  -4.467  1.00  0.00     0.050 C
HETATM    7  C12 UNL     1      28.394  55.280  -5.732  1.00  0.00     0.153 C
HETATM    8  C13 UNL     1      28.735  54.120  -6.686  1.00  0.00     0.044 C
ENDROOT
BRANCH   5   9
HETATM    9  O1  UNL     1      29.100  55.573  -3.405  1.00  0.00    -0.345 OA
BRANCH   9  10
HETATM   10  C6  UNL     1      28.430  55.132  -2.324  1.00  0.00     0.288 C
HETATM   11  C7  UNL     1      27.300  56.143  -2.055  1.00  0.00     0.232 C
HETATM   12  O2  UNL     1      27.329  56.404  -0.706  1.00  0.00    -0.351 OA
HETATM   13  C8  UNL     1      28.079  55.327  -0.206  1.00  0.00     0.160 C
HETATM   14  C9  UNL     1      27.190  54.125  -0.215  1.00  0.00     0.078 C
HETATM   15  C10 UNL     1      28.603  55.650   1.194  1.00  0.00     0.078 C
HETATM   16  O3  UNL     1      29.129  55.245  -1.120  1.00  0.00    -0.324 OA
ENDBRANCH   9  10
ENDBRANCH   5   9
BRANCH   7  17
HETATM   17  O4  UNL     1      27.021  55.215  -5.569  1.00  0.00    -0.393 OA
ATOM     18  H4  UNL     1      26.552  54.787  -6.275  1.00  0.00     0.210 HD
ENDBRANCH   7  17
TORSDOF 3
ENDMDL