MODEL 5
REMARK VINA RESULT: -5.011625400      1.260      2.729
REMARK  1 active torsions:
REMARK  status: ('A' for Active; 'I' for Inactive)
REMARK    1  A    between atoms: N4_9  and  C5_10
ROOT
HETATM    1  C5  UNL     1      29.120  53.992  -4.278  1.00  0.00     0.053 C
HETATM    2  C6  UNL     1      30.134  54.856  -5.005  1.00  0.00     0.037 C
HETATM    3  C7  UNL     1      30.826  54.166  -6.132  1.00  0.00    -0.012 C
HETATM    4  C8  UNL     1      29.830  53.752  -7.170  1.00  0.00     0.009 C
HETATM    5  C9  UNL     1      28.842  52.821  -6.487  1.00  0.00    -0.012 C
HETATM    6  C10 UNL     1      29.555  51.633  -5.916  1.00  0.00     0.009 C
HETATM    7  C11 UNL     1      30.560  52.115  -4.886  1.00  0.00    -0.012 C
HETATM    8  C12 UNL     1      31.570  52.988  -5.523  1.00  0.00     0.009 C
HETATM    9  C13 UNL     1      29.763  52.760  -3.767  1.00  0.00     0.037 C
HETATM   10  C14 UNL     1      28.134  53.555  -5.375  1.00  0.00     0.037 C
ENDROOT
BRANCH   1  11
HETATM   11  N4  UNL     1      28.422  54.814  -3.382  1.00  0.00    -0.274 N
HETATM   12  N1  UNL     1      28.633  54.645  -2.001  1.00  0.00    -0.229 NA
HETATM   13  C1  UNL     1      27.485  54.012  -1.369  1.00  0.00     0.136 C
HETATM   14  C2  UNL     1      28.794  55.941  -1.357  1.00  0.00     0.133 C
HETATM   15  C3  UNL     1      27.450  56.624  -1.410  1.00  0.00     0.138 C
HETATM   16  N2  UNL     1      27.046  56.666  -2.802  1.00  0.00    -0.362 N
HETATM   17  C4  UNL     1      27.493  55.838  -3.696  1.00  0.00     0.202 C
ATOM     18  H2  UNL     1      26.378  57.381  -3.092  1.00  0.00     0.162 HD
HETATM   19  N3  UNL     1      27.038  55.969  -5.001  1.00  0.00    -0.062 NA
ENDBRANCH   1  11
TORSDOF 1
ENDMDL