MODEL 2
REMARK VINA RESULT: -3.425725363      7.064      8.833
REMARK  3 active torsions:
REMARK  status: ('A' for Active; 'I' for Inactive)
REMARK    1  A    between atoms: C2_2  and  O2_4
REMARK    2  A    between atoms: O2_4  and  C3_5
REMARK    3  A    between atoms: C11_14  and  O4_15
ROOT
HETATM    1  C3  UNL     1      29.305  54.335  -4.558  1.00  0.00     0.182 C
HETATM    2  C4  UNL     1      29.268  53.407  -3.366  1.00  0.00     0.071 C
HETATM    3  C5  UNL     1      30.041  52.177  -3.727  1.00  0.00     0.015 C
HETATM    4  C6  UNL     1      30.197  52.301  -5.241  1.00  0.00    -0.029 C
HETATM    5  C7  UNL     1      31.307  51.465  -5.773  1.00  0.00     0.016 C
HETATM    6  C8  UNL     1      28.864  51.998  -5.848  1.00  0.00     0.050 C
HETATM    7  C9  UNL     1      28.263  53.288  -6.344  1.00  0.00     0.087 C
HETATM    8  C10 UNL     1      26.918  52.996  -6.930  1.00  0.00     0.049 C
HETATM    9  O3  UNL     1      28.154  54.193  -5.320  1.00  0.00    -0.341 OA
HETATM   10  C11 UNL     1      29.162  53.789  -7.467  1.00  0.00     0.153 C
HETATM   11  C12 UNL     1      30.446  54.260  -6.794  1.00  0.00     0.050 C
HETATM   12  C13 UNL     1      30.463  53.796  -5.360  1.00  0.00     0.023 C
HETATM   13  C14 UNL     1      31.795  54.167  -4.771  1.00  0.00     0.022 C
ENDROOT
BRANCH   1  14
HETATM   14  O2  UNL     1      29.519  55.654  -4.121  1.00  0.00    -0.283 OA
BRANCH  14  15
HETATM   15  C2  UNL     1      28.723  56.133  -3.093  1.00  0.00     0.257 C
HETATM   16  C1  UNL     1      27.299  56.562  -3.339  1.00  0.00     0.126 C
HETATM   17  O1  UNL     1      29.151  56.228  -1.922  1.00  0.00    -0.266 OA
ENDBRANCH  14  15
ENDBRANCH   1  14
BRANCH  10  18
HETATM   18  O4  UNL     1      28.576  54.785  -8.212  1.00  0.00    -0.393 OA
ATOM     19  H4  UNL     1      28.857  55.654  -7.950  1.00  0.00     0.210 HD
ENDBRANCH  10  18
TORSDOF 3
ENDMDL