MODEL 3
REMARK VINA RESULT: -3.384810164      2.946      5.182
REMARK  3 active torsions:
REMARK  status: ('A' for Active; 'I' for Inactive)
REMARK    1  A    between atoms: O1_2  and  N1_3
REMARK    2  A    between atoms: C3_5  and  C4_6
REMARK    3  A    between atoms: C4_6  and  N2_7
ROOT
HETATM    1  N1  UNL     1      27.662  54.370  -1.348  1.00  0.00    -0.179 NA
HETATM    2  C2  UNL     1      28.983  53.881  -1.173  1.00  0.00     0.128 C
HETATM    3  C3  UNL     1      29.093  52.383  -1.187  1.00  0.00     0.026 C
HETATM    4  C5  UNL     1      29.271  51.790  -2.546  1.00  0.00     0.007 C
HETATM    5  C6  UNL     1      30.651  51.803  -3.083  1.00  0.00     0.000 C
HETATM    6  C7  UNL     1      30.813  51.881  -4.546  1.00  0.00     0.000 C
HETATM    7  C8  UNL     1      29.634  52.329  -5.358  1.00  0.00     0.000 C
HETATM    8  C9  UNL     1      29.469  53.841  -5.343  1.00  0.00     0.000 C
HETATM    9  C10 UNL     1      28.062  54.280  -5.622  1.00  0.00     0.000 C
HETATM   10  C11 UNL     1      27.665  55.490  -4.758  1.00  0.00     0.003 C
HETATM   11  C12 UNL     1      26.908  55.092  -3.552  1.00  0.00     0.037 C
HETATM   12  C13 UNL     1      27.506  55.483  -2.237  1.00  0.00     0.192 C
HETATM   13  C14 UNL     1      28.699  56.309  -2.360  1.00  0.00     0.081 C
HETATM   14  N3  UNL     1      29.658  56.962  -2.440  1.00  0.00    -0.195 NA
ENDROOT
BRANCH   1  15
HETATM   15  O1  UNL     1      27.076  54.574  -0.145  1.00  0.00    -0.307 OA
HETATM   16  C1  UNL     1      27.914  55.109   0.803  1.00  0.00     0.229 C
ENDBRANCH   1  15
BRANCH   3  17
HETATM   17  C4  UNL     1      30.134  51.866  -0.201  1.00  0.00     0.235 C
BRANCH  17  18
HETATM   18  N2  UNL     1      29.614  51.839   1.151  1.00  0.00    -0.079 N
ATOM     19  H23 UNL     1      28.707  52.301   1.211  1.00  0.00     0.274 HD
ATOM     20  H22 UNL     1      29.331  50.899   1.424  1.00  0.00     0.274 HD
ATOM     21  H21 UNL     1      30.281  52.237   1.814  1.00  0.00     0.274 HD
ENDBRANCH  17  18
ENDBRANCH   3  17
TORSDOF 3
ENDMDL