MODEL 4
REMARK VINA RESULT: -4.179975078      2.311      3.562
REMARK  2 active torsions:
REMARK  status: ('A' for Active; 'I' for Inactive)
REMARK    1  A    between atoms: C5_8  and  C6_9
REMARK    2  A    between atoms: C6_9  and  O4_10
ROOT
HETATM    1  C1  UNL     1      28.965  55.789   0.934  1.00  0.00     0.040 C
HETATM    2  C2  UNL     1      28.104  55.372  -0.265  1.00  0.00     0.135 C
HETATM    3  O1  UNL     1      27.387  56.508  -0.727  1.00  0.00    -0.314 OA
HETATM    4  C3  UNL     1      27.635  56.692  -2.093  1.00  0.00     0.289 C
HETATM    5  O2  UNL     1      26.925  57.222  -2.960  1.00  0.00    -0.262 OA
HETATM    6  C4  UNL     1      28.984  56.100  -2.309  1.00  0.00     0.229 C
HETATM    7  O3  UNL     1      29.325  55.895  -3.589  1.00  0.00    -0.362 OA
HETATM    8  C5  UNL     1      28.998  54.714  -4.174  1.00  0.00     0.084 C
HETATM    9  C7  UNL     1      30.237  53.877  -4.330  1.00  0.00     0.040 C
HETATM   10  C8  UNL     1      30.273  52.641  -3.519  1.00  0.00     0.004 C
HETATM   11  C9  UNL     1      29.642  52.688  -2.189  1.00  0.00     0.010 C
HETATM   12  C10 UNL     1      28.489  53.648  -2.056  1.00  0.00    -0.032 C
HETATM   13  C11 UNL     1      27.362  52.958  -1.303  1.00  0.00     0.016 C
HETATM   14  C12 UNL     1      27.960  53.911  -3.449  1.00  0.00     0.050 C
HETATM   15  C13 UNL     1      28.950  54.904  -1.415  1.00  0.00     0.062 C
ENDROOT
BRANCH   8  16
HETATM   16  C6  UNL     1      28.392  55.055  -5.546  1.00  0.00     0.202 C
BRANCH  16  17
HETATM   17  O4  UNL     1      27.094  55.540  -5.402  1.00  0.00    -0.398 OA
ATOM     18  H4  UNL     1      26.471  54.955  -5.815  1.00  0.00     0.209 HD
ENDBRANCH  16  17
ENDBRANCH   8  16
TORSDOF 2
ENDMDL