MODEL 4
REMARK VINA RESULT: -2.086316395      1.202      1.334
REMARK  2 active torsions:
REMARK  status: ('A' for Active; 'I' for Inactive)
REMARK    1  A    between atoms: C2_2  and  C3_3
REMARK    2  A    between atoms: C4_4  and  N1_5
ROOT
HETATM    1  C3  UNL     1      30.599  52.966  -4.988  1.00  0.00     0.050 C
HETATM    2  C4  UNL     1      30.431  51.846  -4.062  1.00  0.00     0.199 C
HETATM    3  C5  UNL     1      29.486  51.886  -2.943  1.00  0.00     0.144 C
HETATM    4  C6  UNL     1      29.482  53.126  -2.123  1.00  0.00     0.261 C
HETATM    5  O1  UNL     1      30.446  53.192  -1.275  1.00  0.00    -0.265 OA
HETATM    6  O2  UNL     1      28.590  54.125  -2.199  1.00  0.00    -0.314 OA
HETATM    7  C7  UNL     1      28.239  55.077  -3.122  1.00  0.00     0.157 C
HETATM    8  C8  UNL     1      27.121  55.918  -2.477  1.00  0.00     0.042 C
HETATM    9  C9  UNL     1      27.674  54.593  -4.422  1.00  0.00     0.152 C
HETATM   10  C10 UNL     1      28.015  55.498  -5.582  1.00  0.00     0.037 C
HETATM   11  C11 UNL     1      29.471  55.069  -5.813  1.00  0.00     0.041 C
HETATM   12  C12 UNL     1      29.356  53.588  -5.529  1.00  0.00     0.063 C
HETATM   13  C13 UNL     1      28.982  52.951  -6.882  1.00  0.00     0.046 C
HETATM   14  O3  UNL     1      28.240  53.400  -4.746  1.00  0.00    -0.372 OA
ENDROOT
BRANCH   2  15
HETATM   15  N1  UNL     1      30.110  50.647  -4.859  1.00  0.00    -0.074 N
ATOM     16  H13 UNL     1      29.111  50.549  -5.044  1.00  0.00     0.274 HD
ATOM     17  H12 UNL     1      30.419  50.722  -5.829  1.00  0.00     0.274 HD
ATOM     18  H11 UNL     1      30.505  49.839  -4.379  1.00  0.00     0.274 HD
ENDBRANCH   2  15
BRANCH   1  19
HETATM   19  C2  UNL     1      31.624  54.010  -4.518  1.00  0.00     0.005 C
HETATM   20  C1  UNL     1      32.672  54.175  -5.621  1.00  0.00     0.005 C
ENDBRANCH   1  19
TORSDOF 2
ENDMDL