MODEL 2
REMARK VINA RESULT: -3.965182974      1.772      2.524
REMARK  2 active torsions:
REMARK  status: ('A' for Active; 'I' for Inactive)
REMARK    1  A    between atoms: O1_2  and  C2_3
REMARK    2  A    between atoms: C4_5  and  N1_6
ROOT
HETATM    1  N1  UNL     1      29.031  53.432  -4.493  1.00  0.00    -0.394 N
HETATM    2  C5  UNL     1      30.369  53.483  -4.080  1.00  0.00     0.080 C
HETATM    3  C6  UNL     1      30.860  52.059  -3.921  1.00  0.00     0.025 C
HETATM    4  C7  UNL     1      29.981  51.052  -4.592  1.00  0.00     0.004 C
HETATM    5  C8  UNL     1      29.314  51.507  -5.839  1.00  0.00     0.031 C
HETATM    6  C9  UNL     1      28.799  52.932  -5.780  1.00  0.00     0.125 C
HETATM    7  C10 UNL     1      29.634  53.709  -6.732  1.00  0.00     0.003 C
HETATM    8  N2  UNL     1      29.132  53.992  -7.869  1.00  0.00    -0.404 N
ATOM      9  H21 UNL     1      29.705  54.526  -8.522  1.00  0.00     0.155 HD
ATOM     10  H22 UNL     1      28.186  53.678  -8.084  1.00  0.00     0.155 HD
HETATM   11  C11 UNL     1      30.988  54.159  -6.425  1.00  0.00     0.056 C
HETATM   12  C12 UNL     1      31.317  54.225  -4.966  1.00  0.00     0.031 C
ENDROOT
BRANCH   1  13
HETATM   13  C4  UNL     1      28.067  54.187  -3.795  1.00  0.00     0.086 C
HETATM   14  C3  UNL     1      28.050  53.997  -2.313  1.00  0.00     0.085 C
HETATM   15  C2  UNL     1      28.252  55.253  -1.507  1.00  0.00     0.260 C
HETATM   16  O2  UNL     1      29.138  56.137  -2.105  1.00  0.00    -0.361 OA
HETATM   17  C14 UNL     1      28.694  56.600  -3.328  1.00  0.00     0.173 C
HETATM   18  C13 UNL     1      27.957  55.632  -4.165  1.00  0.00     0.051 C
BRANCH  15  19
HETATM   19  O1  UNL     1      28.832  54.892  -0.296  1.00  0.00    -0.366 OA
HETATM   20  C1  UNL     1      27.878  54.931   0.702  1.00  0.00     0.204 C
ENDBRANCH  15  19
ENDBRANCH   1  13
TORSDOF 2
ENDMDL