MODEL 3
REMARK VINA RESULT: -5.238750844      1.066      1.712
REMARK  3 active torsions:
REMARK  status: ('A' for Active; 'I' for Inactive)
REMARK    1  A    between atoms: C7_8  and  O1_9
REMARK    2  A    between atoms: O1_9  and  C8_10
REMARK    3  A    between atoms: C8_10  and  O2_11
ROOT
HETATM    1  O1  UNL     1      28.634  55.322  -4.183  1.00  0.00    -0.317 OA
ENDROOT
BRANCH   1   2
HETATM    2  C7  UNL     1      28.946  54.304  -4.882  1.00  0.00     0.202 C
HETATM    3  C4  UNL     1      30.099  54.629  -5.850  1.00  0.00     0.083 C
HETATM    4  C3  UNL     1      31.037  53.448  -5.542  1.00  0.00     0.083 C
HETATM    5  C5  UNL     1      29.610  54.075  -7.179  1.00  0.00     0.287 C
HETATM    6  C2  UNL     1      29.830  52.486  -5.476  1.00  0.00     0.260 C
HETATM    7  C1  UNL     1      30.171  51.087  -5.381  1.00  0.00     0.081 C
HETATM    8  N1  UNL     1      28.955  52.882  -6.571  1.00  0.00     0.129 N
HETATM    9  O3  UNL     1      29.282  53.070  -4.305  1.00  0.00    -0.313 OA
HETATM   10  C6  UNL     1      27.939  53.711  -5.865  1.00  0.00     0.345 C
ENDBRANCH   1   2
BRANCH   1  11
HETATM   11  C8  UNL     1      28.470  55.518  -2.885  1.00  0.00     0.165 C
HETATM   12  C9  UNL     1      27.080  56.000  -2.579  1.00  0.00     0.068 C
HETATM   13  C10 UNL     1      26.945  56.702  -1.255  1.00  0.00     0.005 C
HETATM   14  C11 UNL     1      27.574  56.031  -0.094  1.00  0.00     0.000 C
HETATM   15  C12 UNL     1      27.541  54.538  -0.106  1.00  0.00     0.000 C
HETATM   16  C13 UNL     1      28.823  54.100  -0.821  1.00  0.00     0.005 C
HETATM   17  C14 UNL     1      28.524  54.090  -2.273  1.00  0.00     0.068 C
BRANCH  11  18
HETATM   18  O2  UNL     1      29.415  56.310  -2.244  1.00  0.00    -0.365 OA
ATOM     19  H2  UNL     1      29.246  57.244  -2.215  1.00  0.00     0.213 HD
ENDBRANCH  11  18
ENDBRANCH   1  11
TORSDOF 3
ENDMDL