MODEL 4
REMARK VINA RESULT: -2.041326797      1.987      2.710
REMARK  1 active torsions:
REMARK  status: ('A' for Active; 'I' for Inactive)
REMARK    1  A    between atoms: O1_3  and  C2_4
ROOT
HETATM    1  N1  UNL     1      33.431  51.613  -1.603  1.00  0.00    -0.164 NA
HETATM    2  C1  UNL     1      32.599  52.173  -2.203  1.00  0.00     0.229 C
HETATM    3  O1  UNL     1      31.632  52.817  -2.921  1.00  0.00    -0.277 OA
ENDROOT
BRANCH   3   4
HETATM    4  C2  UNL     1      30.444  52.192  -3.324  1.00  0.00     0.159 C
HETATM    5  C3  UNL     1      29.530  51.909  -2.124  1.00  0.00     0.036 C
HETATM    6  C4  UNL     1      29.236  53.144  -1.350  1.00  0.00     0.022 C
HETATM    7  C5  UNL     1      27.780  53.487  -1.245  1.00  0.00     0.122 C
HETATM    8  N2  UNL     1      27.674  54.904  -0.954  1.00  0.00    -0.361 N
HETATM    9  C6  UNL     1      27.582  55.908  -1.943  1.00  0.00     0.217 C
ATOM     10  H2  UNL     1      27.665  55.192   0.024  1.00  0.00     0.162 HD
HETATM   11  O2  UNL     1      28.137  57.017  -1.729  1.00  0.00    -0.274 OA
HETATM   12  C7  UNL     1      26.871  55.754  -3.238  1.00  0.00     0.103 C
HETATM   13  C8  UNL     1      27.626  56.468  -4.346  1.00  0.00     0.009 C
HETATM   14  C9  UNL     1      28.372  55.476  -5.235  1.00  0.00     0.001 C
HETATM   15  C10 UNL     1      29.777  55.406  -4.792  1.00  0.00     0.001 C
HETATM   16  C11 UNL     1      30.456  54.080  -4.984  1.00  0.00     0.022 C
HETATM   17  C12 UNL     1      29.701  52.932  -4.388  1.00  0.00     0.123 C
HETATM   18  C13 UNL     1      29.358  52.008  -5.482  1.00  0.00     0.066 C
HETATM   19  N3  UNL     1      29.082  51.285  -6.355  1.00  0.00    -0.197 NA
ENDBRANCH   3   4
TORSDOF 1
ENDMDL