MODEL 1
REMARK VINA RESULT: -5.794274096      0.000      0.000
REMARK  3 active torsions:
REMARK  status: ('A' for Active; 'I' for Inactive)
REMARK       I    between atoms: N1_2  and  C2_4
REMARK    1  A    between atoms: C2_4  and  O2_6
REMARK    2  A    between atoms: O2_6  and  N2_7
REMARK    3  A    between atoms: N3_14  and  O3_15
ROOT
HETATM    1  N2  UNL     1      28.586  53.141  -2.040  1.00  0.00    -0.264 N
ATOM      2  H2  UNL     1      27.835  53.622  -1.546  1.00  0.00     0.194 HD
HETATM    3  C3  UNL     1      29.037  53.726  -3.058  1.00  0.00     0.022 C
HETATM    4  C4  UNL     1      30.126  53.224  -3.939  1.00  0.00     0.087 C
HETATM    5  C5  UNL     1      29.761  53.301  -5.404  1.00  0.00     0.052 C
HETATM    6  C6  UNL     1      29.867  51.900  -5.985  1.00  0.00     0.041 C
HETATM    7  C7  UNL     1      30.725  54.167  -6.189  1.00  0.00     0.041 C
HETATM    8  N3  UNL     1      28.401  53.724  -5.504  1.00  0.00    -0.286 N
HETATM    9  C8  UNL     1      28.135  55.006  -4.930  1.00  0.00     0.165 C
HETATM   10  C9  UNL     1      28.458  55.038  -3.457  1.00  0.00     0.011 C
HETATM   11  C10 UNL     1      27.189  55.355  -2.715  1.00  0.00     0.023 C
HETATM   12  C11 UNL     1      29.525  56.083  -3.145  1.00  0.00     0.023 C
ENDROOT
BRANCH   1  13
HETATM   13  O2  UNL     1      28.971  51.956  -1.517  1.00  0.00    -0.181 OA
BRANCH  13  14
HETATM   14  C2  UNL     1      29.784  51.939  -0.405  1.00  0.00     0.382 C
HETATM   15  N1  UNL     1      29.428  51.327   0.826  1.00  0.00    -0.340 N
HETATM   16  C1  UNL     1      30.306  51.328   1.972  1.00  0.00     0.151 C
ATOM     17  H1  UNL     1      28.519  50.871   0.903  1.00  0.00     0.164 HD
HETATM   18  O1  UNL     1      30.900  52.491  -0.477  1.00  0.00    -0.236 OA
ENDBRANCH  13  14
ENDBRANCH   1  13
BRANCH   8  19
HETATM   19  O3  UNL     1      27.820  53.515  -6.678  1.00  0.00    -0.291 OA
ATOM     20  H3  UNL     1      26.890  53.702  -6.715  1.00  0.00     0.244 HD
ENDBRANCH   8  19
TORSDOF 3
ENDMDL