MODEL 4
REMARK VINA RESULT: -7.361838061      1.527      2.329
REMARK  6 active torsions:
REMARK  status: ('A' for Active; 'I' for Inactive)
REMARK       I    between atoms: C2_2  and  N1_4
REMARK    1  A    between atoms: N1_4  and  C3_6
REMARK    2  A    between atoms: C10_13  and  N2_15
REMARK       I    between atoms: N2_15  and  C12_17
REMARK    3  A    between atoms: C12_17  and  C13_19
REMARK    4  A    between atoms: C15_22  and  C16_23
REMARK       I    between atoms: C16_23  and  N3_25
REMARK    5  A    between atoms: N3_25  and  C17_27
REMARK    6  A    between atoms: N5_33  and  S2_34
ROOT
HETATM    1  C3  UNL     1      75.429  51.243  72.954  1.00  0.00     0.159 C
HETATM    2  C4  UNL     1      75.983  52.408  72.132  1.00  0.00     0.033 C
HETATM    3  C5  UNL     1      75.520  53.742  72.646  1.00  0.00     0.002 C
HETATM    4  C6  UNL     1      74.859  54.513  71.525  1.00  0.00     0.000 C
HETATM    5  C7  UNL     1      75.768  55.582  70.974  1.00  0.00     0.000 C
HETATM    6  C8  UNL     1      76.057  55.271  69.518  1.00  0.00     0.002 C
HETATM    7  C9  UNL     1      75.201  56.157  68.660  1.00  0.00     0.031 C
HETATM    8  C10 UNL     1      74.857  55.549  67.318  1.00  0.00     0.029 C
HETATM    9  C11 UNL     1      76.047  54.711  66.861  1.00  0.00     0.038 C
HETATM   10  C20 UNL     1      73.624  54.709  67.480  1.00  0.00     0.031 C
HETATM   11  C21 UNL     1      73.575  53.634  66.388  1.00  0.00     0.002 C
HETATM   12  C22 UNL     1      72.274  52.893  66.426  1.00  0.00     0.000 C
HETATM   13  C23 UNL     1      72.114  52.020  67.640  1.00  0.00     0.001 C
HETATM   14  C24 UNL     1      72.332  50.562  67.322  1.00  0.00     0.012 C
HETATM   15  C25 UNL     1      73.690  50.167  67.907  1.00  0.00     0.094 C
HETATM   16  C26 UNL     1      73.676  50.053  69.317  1.00  0.00    -0.102 C
HETATM   17  C27 UNL     1      73.645  49.956  70.443  1.00  0.00    -0.075 C
HETATM   18  C28 UNL     1      73.579  49.828  71.838  1.00  0.00     0.116 C
HETATM   19  C29 UNL     1      74.008  51.071  72.559  1.00  0.00     0.179 C
HETATM   20  O8  UNL     1      73.202  51.932  72.819  1.00  0.00    -0.290 OA
ENDROOT
BRANCH   8  21
HETATM   21  N2  UNL     1      74.707  56.635  66.383  1.00  0.00    -0.350 N
HETATM   22  C12 UNL     1      73.569  57.471  66.328  1.00  0.00     0.244 C
HETATM   23  O2  UNL     1      72.633  57.268  67.134  1.00  0.00    -0.271 OA
ATOM     24  H2  UNL     1      75.465  56.811  65.723  1.00  0.00     0.163 HD
BRANCH  22  25
HETATM   25  C13 UNL     1      73.445  58.562  65.368  1.00  0.00     0.241 C
HETATM   26  C14 UNL     1      72.118  58.705  64.717  1.00  0.00     0.182 C
HETATM   27  O3  UNL     1      71.212  58.025  64.292  1.00  0.00    -0.293 OA
HETATM   28  C15 UNL     1      72.377  60.159  64.807  1.00  0.00     0.242 C
HETATM   29  N5  UNL     1      73.232  59.883  65.947  1.00  0.00    -0.150 NA
BRANCH  28  30
HETATM   30  C16 UNL     1      71.208  61.009  65.097  1.00  0.00     0.250 C
HETATM   31  O4  UNL     1      71.060  61.560  66.205  1.00  0.00    -0.271 OA
HETATM   32  N3  UNL     1      70.245  61.188  64.073  1.00  0.00    -0.305 N
ATOM     33  H3  UNL     1      69.420  60.589  64.040  1.00  0.00     0.171 HD
BRANCH  32  34
HETATM   34  C17 UNL     1      70.413  62.124  63.163  1.00  0.00     0.150 A
HETATM   35  N4  UNL     1      71.447  62.954  63.046  1.00  0.00    -0.346 N
HETATM   36  C18 UNL     1      71.448  63.824  62.078  1.00  0.00     0.097 A
ATOM     37  H4  UNL     1      72.226  62.907  63.702  1.00  0.00     0.167 HD
HETATM   38  C19 UNL     1      70.370  63.833  61.229  1.00  0.00     0.070 A
HETATM   39  S1  UNL     1      69.403  62.580  61.869  1.00  0.00    -0.064 SA
ENDBRANCH  32  34
ENDBRANCH  28  30
BRANCH  29  40
HETATM   40  S2  UNL     1      74.646  60.902  65.841  1.00  0.00     0.187 S
HETATM   41  O5  UNL     1      75.693  60.476  66.834  1.00  0.00    -0.582 OA
HETATM   42  O6  UNL     1      74.256  62.308  66.198  1.00  0.00    -0.582 OA
HETATM   43  O7  UNL     1      75.245  60.939  64.275  1.00  0.00    -0.582 OA
ENDBRANCH  29  40
ENDBRANCH  22  25
ENDBRANCH   8  21
BRANCH   1  44
HETATM   44  N1  UNL     1      75.592  51.429  74.361  1.00  0.00    -0.350 N
HETATM   45  C2  UNL     1      75.731  50.314  75.220  1.00  0.00     0.214 C
HETATM   46  C1  UNL     1      75.903  50.513  76.705  1.00  0.00     0.117 C
HETATM   47  O1  UNL     1      75.710  49.160  74.724  1.00  0.00    -0.274 OA
ATOM     48  H1  UNL     1      75.609  52.372  74.748  1.00  0.00     0.163 HD
ENDBRANCH   1  44
TORSDOF 6
ENDMDL