MODEL 4
REMARK VINA RESULT: -7.315172393      1.521      1.814
REMARK  7 active torsions:
REMARK  status: ('A' for Active; 'I' for Inactive)
REMARK    1  A    between atoms: C2_2  and  N1_3
REMARK    2  A    between atoms: C2_2  and  C8_13
REMARK       I    between atoms: N1_3  and  C3_5
REMARK       I    between atoms: C3_5  and  N2_7
REMARK       I    between atoms: C8_13  and  N3_15
REMARK    3  A    between atoms: C11_18  and  O4_19
REMARK    4  A    between atoms: N4_22  and  C13_23
REMARK    5  A    between atoms: C17_27  and  C18_28
REMARK    6  A    between atoms: C18_28  and  C19_30
REMARK    7  A    between atoms: C19_30  and  C20_31
ROOT
HETATM    1  C8  UNL     1      72.180  53.263  67.999  1.00  0.00     0.242 C
HETATM    2  O3  UNL     1      71.202  52.558  68.381  1.00  0.00    -0.271 OA
HETATM    3  N3  UNL     1      71.903  54.405  67.233  1.00  0.00    -0.349 N
HETATM    4  C9  UNL     1      70.538  54.771  66.845  1.00  0.00     0.129 C
HETATM    5  C10 UNL     1      70.319  56.161  67.359  1.00  0.00     0.064 C
HETATM    6  C11 UNL     1      71.275  57.210  66.770  1.00  0.00     0.104 C
HETATM    7  C12 UNL     1      70.479  58.228  66.038  1.00  0.00     0.098 C
HETATM    8  N4  UNL     1      70.020  59.420  66.531  1.00  0.00    -0.369 N
HETATM    9  C17 UNL     1      70.404  60.643  65.903  1.00  0.00     0.178 C
HETATM   10  C21 UNL     1      71.901  60.663  65.508  1.00  0.00     0.200 C
HETATM   11  O8  UNL     1      72.184  61.989  65.206  1.00  0.00    -0.389 OA
HETATM   12  C22 UNL     1      72.986  62.175  64.097  1.00  0.00     0.167 C
HETATM   13  C23 UNL     1      74.314  61.540  64.364  1.00  0.00     0.026 C
HETATM   14  C24 UNL     1      75.103  61.208  63.149  1.00  0.00     0.002 C
HETATM   15  C25 UNL     1      75.533  59.784  63.220  1.00  0.00     0.000 C
HETATM   16  C26 UNL     1      75.014  58.881  62.149  1.00  0.00     0.002 C
HETATM   17  C27 UNL     1      73.573  58.573  62.150  1.00  0.00     0.020 C
HETATM   18  C28 UNL     1      73.146  57.353  62.919  1.00  0.00     0.122 C
HETATM   19  N5  UNL     1      73.876  57.120  64.121  1.00  0.00    -0.361 N
ATOM     20  H5  UNL     1      74.868  56.911  64.006  1.00  0.00     0.162 HD
HETATM   21  C29 UNL     1      73.404  57.140  65.445  1.00  0.00     0.226 C
HETATM   22  O9  UNL     1      74.052  57.842  66.287  1.00  0.00    -0.273 OA
HETATM   23  C30 UNL     1      72.192  56.373  65.869  1.00  0.00     0.135 C
HETATM   24  C31 UNL     1      72.868  55.343  66.764  1.00  0.00     0.143 C
ENDROOT
BRANCH   1  25
HETATM   25  C2  UNL     1      73.543  52.817  68.397  1.00  0.00     0.174 C
HETATM   26  C1  UNL     1      74.581  53.015  67.334  1.00  0.00     0.042 C
BRANCH  25  27
HETATM   27  N1  UNL     1      73.967  53.482  69.615  1.00  0.00    -0.330 N
HETATM   28  C3  UNL     1      74.508  52.722  70.671  1.00  0.00     0.319 C
HETATM   29  O1  UNL     1      74.587  51.450  70.478  1.00  0.00    -0.247 OA
HETATM   30  N2  UNL     1      74.953  53.268  71.890  1.00  0.00    -0.330 N
HETATM   31  C4  UNL     1      74.925  54.674  72.162  1.00  0.00     0.153 C
HETATM   32  C7  UNL     1      75.453  52.393  72.924  1.00  0.00     0.153 C
HETATM   33  C5  UNL     1      76.369  55.114  72.408  1.00  0.00     0.187 C
HETATM   34  O2  UNL     1      77.124  54.120  73.003  1.00  0.00    -0.388 OA
HETATM   35  C6  UNL     1      76.354  53.276  73.796  1.00  0.00     0.187 C
ATOM     36  H1  UNL     1      73.874  54.494  69.706  1.00  0.00     0.165 HD
ENDBRANCH  25  27
ENDBRANCH   1  25
BRANCH   6  37
HETATM   37  O4  UNL     1      72.166  57.702  67.717  1.00  0.00    -0.383 OA
ATOM     38  H4  UNL     1      72.140  57.208  68.528  1.00  0.00     0.211 HD
ENDBRANCH   6  37
BRANCH   8  39
HETATM   39  C13 UNL     1      69.000  59.562  67.483  1.00  0.00     0.022 C
HETATM   40  C14 UNL     1      67.586  59.205  67.031  1.00  0.00     0.037 C
HETATM   41  C15 UNL     1      69.158  58.900  68.832  1.00  0.00     0.037 C
HETATM   42  C16 UNL     1      68.808  61.053  67.891  1.00  0.00     0.037 C
ENDBRANCH   8  39
BRANCH   9  43
HETATM   43  C18 UNL     1      69.802  60.999  64.612  1.00  0.00     0.161 C
HETATM   44  O5  UNL     1      70.252  60.448  63.630  1.00  0.00    -0.295 OA
BRANCH  43  45
HETATM   45  C19 UNL     1      68.708  61.949  64.381  1.00  0.00     0.193 C
BRANCH  45  46
HETATM   46  C20 UNL     1      69.185  63.312  64.029  1.00  0.00     0.179 C
HETATM   47  O6  UNL     1      68.872  64.299  64.705  1.00  0.00    -0.648 OA
HETATM   48  O7  UNL     1      70.006  63.511  62.916  1.00  0.00    -0.648 OA
ENDBRANCH  45  46
ENDBRANCH  43  45
ENDBRANCH   9  43
TORSDOF 7
ENDMDL