MODEL 2
REMARK VINA RESULT: -7.720861244      2.742      6.413
REMARK  6 active torsions:
REMARK  status: ('A' for Active; 'I' for Inactive)
REMARK    1  A    between atoms: C2_2  and  C3_3
REMARK    2  A    between atoms: C5_5  and  N1_6
REMARK    3  A    between atoms: C5_5  and  C31_46
REMARK       I    between atoms: N1_6  and  C6_8
REMARK    4  A    between atoms: C6_8  and  C7_10
REMARK       I    between atoms: N3_37  and  C27_38
REMARK    5  A    between atoms: C27_38  and  C28_40
REMARK       I    between atoms: C31_46  and  N5_48
REMARK    6  A    between atoms: N5_48  and  C32_50
ROOT
HETATM    1  C7  UNL     1      73.703  56.553  65.002  1.00  0.00     0.224 C
HETATM    2  C8  UNL     1      72.843  55.737  64.137  1.00  0.00     0.178 C
HETATM    3  S1  UNL     1      73.627  55.035  62.697  1.00  0.00     0.155 S
HETATM    4  O2  UNL     1      74.764  55.869  62.221  1.00  0.00    -0.227 OA
HETATM    5  O3  UNL     1      74.156  53.667  63.133  1.00  0.00    -0.227 OA
HETATM    6  C9  UNL     1      72.447  54.657  61.415  1.00  0.00     0.064 C
HETATM    7  C10 UNL     1      71.034  54.606  61.985  1.00  0.00     0.025 C
HETATM    8  C11 UNL     1      70.239  53.435  61.500  1.00  0.00     0.002 C
HETATM    9  C12 UNL     1      70.416  53.113  60.046  1.00  0.00     0.000 C
HETATM   10  C13 UNL     1      71.854  52.931  59.690  1.00  0.00     0.002 C
HETATM   11  C14 UNL     1      72.719  53.269  60.846  1.00  0.00     0.025 C
HETATM   12  C15 UNL     1      72.447  55.616  60.277  1.00  0.00     0.034 C
HETATM   13  C16 UNL     1      72.898  56.988  60.608  1.00  0.00     0.104 C
HETATM   14  C17 UNL     1      72.186  58.080  59.891  1.00  0.00     0.217 C
HETATM   15  O4  UNL     1      71.260  57.833  59.085  1.00  0.00    -0.274 OA
HETATM   16  N2  UNL     1      72.632  59.408  60.186  1.00  0.00    -0.361 N
ATOM     17  H2  UNL     1      72.017  60.189  59.958  1.00  0.00     0.162 HD
HETATM   18  C18 UNL     1      73.896  59.692  60.783  1.00  0.00     0.123 C
HETATM   19  C19 UNL     1      73.865  60.741  61.872  1.00  0.00     0.024 C
HETATM   20  C20 UNL     1      73.280  60.107  63.114  1.00  0.00     0.043 C
HETATM   21  C21 UNL     1      73.900  60.684  64.353  1.00  0.00    -0.022 A
HETATM   22  C22 UNL     1      74.350  61.969  64.201  1.00  0.00     0.010 A
HETATM   23  C23 UNL     1      74.966  62.673  65.225  1.00  0.00     0.001 A
HETATM   24  C24 UNL     1      75.128  62.045  66.437  1.00  0.00     0.003 A
HETATM   25  C25 UNL     1      74.677  60.771  66.573  1.00  0.00     0.040 A
HETATM   26  C26 UNL     1      74.040  60.021  65.547  1.00  0.00     0.105 A
HETATM   27  O5  UNL     1      73.642  58.781  65.823  1.00  0.00    -0.232 OA
HETATM   28  N3  UNL     1      73.014  57.662  65.661  1.00  0.00    -0.205 N
HETATM   29  C27 UNL     1      71.682  57.301  66.112  1.00  0.00     0.252 C
HETATM   30  O6  UNL     1      71.175  56.168  65.981  1.00  0.00    -0.271 OA
ENDROOT
BRANCH   1  31
HETATM   31  C6  UNL     1      74.528  55.784  65.992  1.00  0.00     0.245 C
HETATM   32  N1  UNL     1      74.098  54.656  66.686  1.00  0.00    -0.341 N
ATOM     33  H1  UNL     1      73.143  54.355  66.492  1.00  0.00     0.163 HD
HETATM   34  O1  UNL     1      75.670  56.213  66.181  1.00  0.00    -0.271 OA
BRANCH  32  35
HETATM   35  C5  UNL     1      74.809  53.871  67.626  1.00  0.00     0.121 A
HETATM   36  C3  UNL     1      74.766  52.383  67.562  1.00  0.00     0.048 A
HETATM   37  C4  UNL     1      76.052  53.141  67.234  1.00  0.00     0.053 A
BRANCH  36  38
HETATM   38  C2  UNL     1      74.840  51.583  68.799  1.00  0.00    -0.029 C
HETATM   39  C1  UNL     1      74.211  50.424  68.935  1.00  0.00     0.007 C
ENDBRANCH  36  38
BRANCH  35  40
HETATM   40  C31 UNL     1      74.873  54.426  69.034  1.00  0.00     0.246 C
HETATM   41  O7  UNL     1      73.793  54.369  69.699  1.00  0.00    -0.271 OA
HETATM   42  N5  UNL     1      76.032  54.978  69.611  1.00  0.00    -0.359 N
ATOM     43  H5  UNL     1      76.903  55.024  69.083  1.00  0.00     0.162 HD
BRANCH  42  44
HETATM   44  C32 UNL     1      75.968  55.486  70.988  1.00  0.00     0.118 C
HETATM   45  C33 UNL     1      76.419  54.405  71.933  1.00  0.00     0.026 C
ENDBRANCH  42  44
ENDBRANCH  35  40
ENDBRANCH  32  35
ENDBRANCH   1  31
BRANCH  29  46
HETATM   46  C28 UNL     1      70.777  58.286  66.794  1.00  0.00     0.131 C
HETATM   47  C29 UNL     1      71.353  58.974  67.972  1.00  0.00     0.248 C
HETATM   48  N4  UNL     1      70.173  58.675  68.772  1.00  0.00    -0.073 N
HETATM   49  C30 UNL     1      69.811  57.696  67.779  1.00  0.00     0.248 C
ATOM     50  H42 UNL     1      70.258  58.417  69.755  1.00  0.00     0.277 HD
ATOM     51  H41 UNL     1      69.522  59.413  69.041  1.00  0.00     0.277 HD
ENDBRANCH  29  46
TORSDOF 6
ENDMDL