MODEL 1
REMARK VINA RESULT: -8.856078069      0.000      0.000
REMARK  8 active torsions:
REMARK  status: ('A' for Active; 'I' for Inactive)
REMARK    1  A    between atoms: N2_6  and  C4_7
REMARK    2  A    between atoms: C4_7  and  O2_8
REMARK    3  A    between atoms: C4_7  and  C5_10
REMARK    4  A    between atoms: N3_26  and  C21_27
REMARK    5  A    between atoms: C23_29  and  S1_30
REMARK    6  A    between atoms: S1_30  and  N4_33
REMARK       I    between atoms: N4_33  and  C24_34
REMARK       I    between atoms: C24_34  and  N5_36
REMARK    7  A    between atoms: N5_36  and  N6_38
REMARK    8  A    between atoms: C28_45  and  C29_46
ROOT
HETATM    1  C1  UNL     1      67.394  55.066  68.510  1.00  0.00     0.153 C
HETATM    2  N1  UNL     1      68.550  55.233  67.591  1.00  0.00    -0.349 N
HETATM    3  C2  UNL     1      68.328  56.163  66.540  1.00  0.00     0.238 C
HETATM    4  O1  UNL     1      67.130  56.380  66.201  1.00  0.00    -0.272 OA
HETATM    5  C3  UNL     1      69.341  56.946  65.751  1.00  0.00     0.232 C
HETATM    6  N2  UNL     1      70.433  57.169  66.754  1.00  0.00    -0.332 N
HETATM    7  C11 UNL     1      71.369  56.143  66.958  1.00  0.00     0.079 C
HETATM    8  C12 UNL     1      71.009  55.168  68.031  1.00  0.00     0.098 C
HETATM    9  C13 UNL     1      71.979  54.050  68.015  1.00  0.00     0.036 A
HETATM   10  C14 UNL     1      71.395  53.025  67.249  1.00  0.00    -0.020 A
HETATM   11  C15 UNL     1      72.238  51.956  67.189  1.00  0.00    -0.001 A
HETATM   12  C16 UNL     1      72.114  50.714  66.561  1.00  0.00     0.014 A
HETATM   13  C17 UNL     1      73.137  49.810  66.669  1.00  0.00     0.001 A
HETATM   14  C18 UNL     1      74.259  50.160  67.399  1.00  0.00     0.002 A
HETATM   15  C19 UNL     1      74.380  51.387  68.019  1.00  0.00     0.031 A
HETATM   16  C20 UNL     1      73.357  52.288  67.908  1.00  0.00     0.050 A
HETATM   17  N3  UNL     1      73.166  53.556  68.393  1.00  0.00    -0.312 N
HETATM   18  C30 UNL     1      70.046  53.451  66.768  1.00  0.00     0.068 C
HETATM   19  C31 UNL     1      69.707  54.470  67.840  1.00  0.00     0.105 C
ENDROOT
BRANCH  17  20
HETATM   20  C21 UNL     1      74.155  54.197  69.188  1.00  0.00     0.054 A
HETATM   21  C22 UNL     1      74.139  54.062  70.585  1.00  0.00     0.057 A
HETATM   22  C23 UNL     1      75.044  54.666  71.412  1.00  0.00     0.095 A
HETATM   23  C26 UNL     1      76.029  55.450  70.790  1.00  0.00     0.027 A
HETATM   24  C27 UNL     1      76.049  55.583  69.425  1.00  0.00     0.018 A
HETATM   25  C28 UNL     1      75.114  54.964  68.585  1.00  0.00     0.029 A
BRANCH  22  26
HETATM   26  S1  UNL     1      74.972  54.627  73.146  1.00  0.00     0.329 S
HETATM   27  O3  UNL     1      75.639  55.905  73.669  1.00  0.00    -0.186 OA
HETATM   28  O4  UNL     1      73.496  54.830  73.580  1.00  0.00    -0.186 OA
BRANCH  26  29
HETATM   29  N4  UNL     1      75.645  53.339  73.957  1.00  0.00    -0.259 NA
HETATM   30  C24 UNL     1      76.171  52.330  74.592  1.00  0.00     0.423 C
HETATM   31  O5  UNL     1      76.410  52.132  75.835  1.00  0.00    -0.228 OA
HETATM   32  N5  UNL     1      76.607  51.145  73.820  1.00  0.00    -0.237 N
ATOM     33  H5  UNL     1      76.484  51.150  72.807  1.00  0.00     0.193 HD
BRANCH  32  34
HETATM   34  N6  UNL     1      77.168  50.041  74.406  1.00  0.00    -0.271 N
HETATM   35  C25 UNL     1      76.579  48.903  74.568  1.00  0.00     0.215 C
HETATM   36  N7  UNL     1      75.246  48.764  74.110  1.00  0.00    -0.065 NA
HETATM   37  N8  UNL     1      77.209  47.806  75.191  1.00  0.00    -0.065 NA
ATOM     38  H6  UNL     1      78.127  50.125  74.742  1.00  0.00     0.189 HD
ENDBRANCH  32  34
ENDBRANCH  26  29
ENDBRANCH  22  26
BRANCH  25  39
HETATM   39  C29 UNL     1      75.186  55.216  67.149  1.00  0.00     0.272 C
HETATM   40  O6  UNL     1      76.282  55.103  66.564  1.00  0.00    -0.301 OA
ENDBRANCH  25  39
ENDBRANCH  17  20
BRANCH   6  41
HETATM   41  C4  UNL     1      70.300  58.394  67.397  1.00  0.00     0.152 C
BRANCH  41  42
HETATM   42  O2  UNL     1      70.399  58.322  68.728  1.00  0.00    -0.345 OA
ATOM     43  H2  UNL     1      70.038  59.073  69.184  1.00  0.00     0.219 HD
ENDBRANCH  41  42
BRANCH  41  44
HETATM   44  C5  UNL     1      70.083  59.735  66.967  1.00  0.00     0.015 A
HETATM   45  C6  UNL     1      70.739  60.347  65.945  1.00  0.00     0.016 A
HETATM   46  C7  UNL     1      70.501  61.687  65.587  1.00  0.00     0.001 A
HETATM   47  C8  UNL     1      69.593  62.440  66.254  1.00  0.00     0.000 A
HETATM   48  C9  UNL     1      68.907  61.856  67.294  1.00  0.00     0.001 A
HETATM   49  C10 UNL     1      69.152  60.545  67.631  1.00  0.00     0.016 A
ENDBRANCH  41  44
ENDBRANCH   6  41
TORSDOF 8
ENDMDL