MODEL 2
REMARK VINA RESULT: -8.531135719      4.649      9.288
REMARK  6 active torsions:
REMARK  status: ('A' for Active; 'I' for Inactive)
REMARK       I    between atoms: C1_2  and  N1_3
REMARK       I    between atoms: C1_2  and  N2_10
REMARK    1  A    between atoms: N1_3  and  C2_5
REMARK    2  A    between atoms: N2_10  and  S1_12
REMARK    3  A    between atoms: S1_12  and  N3_15
REMARK    4  A    between atoms: C17_28  and  C18_29
REMARK       I    between atoms: C18_29  and  N4_31
REMARK    5  A    between atoms: N4_31  and  C19_33
REMARK    6  A    between atoms: C27_43  and  O8_44
ROOT
HETATM    1  N3  UNL     1      72.512  56.144  64.318  1.00  0.00    -0.210 N
HETATM    2  C6  UNL     1      71.530  56.932  64.977  1.00  0.00     0.148 C
HETATM    3  C7  UNL     1      71.112  58.225  64.434  1.00  0.00     0.021 C
HETATM    4  C8  UNL     1      72.139  59.235  64.076  1.00  0.00     0.002 C
HETATM    5  C9  UNL     1      72.249  60.383  65.081  1.00  0.00     0.000 C
HETATM    6  C10 UNL     1      73.583  61.029  64.875  1.00  0.00     0.000 C
HETATM    7  C11 UNL     1      74.276  61.436  66.153  1.00  0.00     0.000 C
HETATM    8  C12 UNL     1      75.649  60.802  66.221  1.00  0.00     0.000 C
HETATM    9  C13 UNL     1      75.846  60.028  67.502  1.00  0.00     0.000 C
HETATM   10  C14 UNL     1      74.808  58.939  67.664  1.00  0.00     0.004 C
HETATM   11  C15 UNL     1      74.968  57.858  66.613  1.00  0.00     0.054 C
HETATM   12  C16 UNL     1      74.352  56.614  67.191  1.00  0.00     0.228 C
HETATM   13  O5  UNL     1      75.258  56.176  68.115  1.00  0.00    -0.350 OA
HETATM   14  C17 UNL     1      75.506  54.879  67.911  1.00  0.00     0.233 C
HETATM   15  C28 UNL     1      74.284  54.380  67.194  1.00  0.00     0.172 C
HETATM   16  N6  UNL     1      74.058  55.565  66.292  1.00  0.00    -0.303 N
HETATM   17  C29 UNL     1      73.665  55.586  64.932  1.00  0.00     0.337 C
HETATM   18  O9  UNL     1      74.468  55.013  64.117  1.00  0.00    -0.246 OA
ENDROOT
BRANCH  14  19
HETATM   19  C18 UNL     1      75.821  54.192  69.169  1.00  0.00     0.248 C
HETATM   20  O6  UNL     1      76.386  53.049  69.163  1.00  0.00    -0.271 OA
HETATM   21  N4  UNL     1      75.487  54.832  70.392  1.00  0.00    -0.350 N
ATOM     22  H4  UNL     1      75.031  55.743  70.394  1.00  0.00     0.163 HD
BRANCH  21  23
HETATM   23  C19 UNL     1      75.807  54.164  71.634  1.00  0.00     0.131 C
HETATM   24  C20 UNL     1      74.554  53.529  72.165  1.00  0.00     0.153 C
HETATM   25  N5  UNL     1      74.721  52.974  73.497  1.00  0.00    -0.345 N
HETATM   26  C21 UNL     1      73.904  51.980  74.055  1.00  0.00     0.220 C
HETATM   27  C25 UNL     1      75.830  53.528  74.275  1.00  0.00     0.089 C
HETATM   28  O7  UNL     1      72.754  51.801  73.549  1.00  0.00    -0.273 OA
HETATM   29  C22 UNL     1      74.339  51.141  75.204  1.00  0.00     0.103 C
HETATM   30  C23 UNL     1      75.586  51.700  75.854  1.00  0.00     0.011 C
HETATM   31  C24 UNL     1      75.516  53.227  75.726  1.00  0.00     0.026 C
HETATM   32  C26 UNL     1      75.838  55.007  73.975  1.00  0.00     0.059 C
HETATM   33  C27 UNL     1      76.422  55.171  72.595  1.00  0.00     0.144 C
BRANCH  33  34
HETATM   34  O8  UNL     1      76.204  56.466  72.097  1.00  0.00    -0.393 OA
ATOM     35  H8  UNL     1      76.341  56.460  71.157  1.00  0.00     0.210 HD
ENDBRANCH  33  34
ENDBRANCH  21  23
ENDBRANCH  14  19
BRANCH   1  36
HETATM   36  S1  UNL     1      72.233  55.826  62.606  1.00  0.00     0.332 S
HETATM   37  O3  UNL     1      70.804  56.125  62.293  1.00  0.00    -0.182 OA
HETATM   38  O4  UNL     1      73.033  56.851  61.795  1.00  0.00    -0.182 OA
BRANCH  36  39
HETATM   39  N2  UNL     1      72.656  54.307  62.085  1.00  0.00    -0.218 N
HETATM   40  C1  UNL     1      72.136  53.076  62.577  1.00  0.00     0.331 C
HETATM   41  O1  UNL     1      71.262  53.150  63.506  1.00  0.00    -0.246 OA
HETATM   42  N1  UNL     1      72.562  51.825  62.067  1.00  0.00    -0.336 N
ATOM     43  H1  UNL     1      73.262  51.821  61.325  1.00  0.00     0.164 HD
ATOM     44  H2  UNL     1      73.353  54.251  61.342  1.00  0.00     0.185 HD
BRANCH  42  45
HETATM   45  C2  UNL     1      72.059  50.556  62.539  1.00  0.00     0.112 C
HETATM   46  C3  UNL     1      72.898  50.026  63.688  1.00  0.00     0.053 C
HETATM   47  C4  UNL     1      73.922  49.193  62.996  1.00  0.00     0.169 C
HETATM   48  O2  UNL     1      73.668  49.265  61.631  1.00  0.00    -0.389 OA
HETATM   49  C5  UNL     1      72.300  49.476  61.493  1.00  0.00     0.192 C
ENDBRANCH  42  45
ENDBRANCH  36  39
ENDBRANCH   1  36
TORSDOF 6
ENDMDL