MODEL 5
REMARK VINA RESULT: -7.087404460      6.398     12.598
REMARK  5 active torsions:
REMARK  status: ('A' for Active; 'I' for Inactive)
REMARK    1  A    between atoms: N2_5  and  C4_6
REMARK    2  A    between atoms: C4_6  and  C5_7
REMARK    3  A    between atoms: C4_6  and  C6_10
REMARK    4  A    between atoms: C6_10  and  C7_11
REMARK    5  A    between atoms: C8_12  and  O3_13
ROOT
HETATM    1  C6  UNL     1      74.825  53.485  68.426  1.00  0.00     0.110 C
HETATM    2  C9  UNL     1      75.965  54.042  69.171  1.00  0.00     0.030 C
HETATM    3  C10 UNL     1      75.811  54.843  70.378  1.00  0.00     0.002 C
HETATM    4  C11 UNL     1      74.645  54.679  71.258  1.00  0.00     0.001 C
HETATM    5  C12 UNL     1      74.998  53.943  72.562  1.00  0.00     0.010 C
HETATM    6  C13 UNL     1      74.230  52.614  72.471  1.00  0.00     0.049 C
HETATM    7  C14 UNL     1      74.883  51.833  71.364  1.00  0.00     0.134 C
HETATM    8  N3  UNL     1      73.961  51.800  70.247  1.00  0.00    -0.342 N
HETATM    9  C15 UNL     1      72.754  51.010  70.617  1.00  0.00     0.228 C
HETATM   10  C16 UNL     1      73.091  49.583  70.375  1.00  0.00     0.235 C
HETATM   11  O4  UNL     1      74.225  49.184  70.007  1.00  0.00    -0.272 OA
HETATM   12  N4  UNL     1      72.063  48.600  70.571  1.00  0.00    -0.360 N
ATOM     13  H4  UNL     1      72.311  47.614  70.646  1.00  0.00     0.162 HD
HETATM   14  C17 UNL     1      70.678  49.002  70.663  1.00  0.00     0.122 C
HETATM   15  C18 UNL     1      69.791  47.792  70.516  1.00  0.00     0.022 C
HETATM   16  C19 UNL     1      68.768  47.792  71.644  1.00  0.00     0.028 C
HETATM   17  C20 UNL     1      68.267  46.397  71.868  1.00  0.00     0.167 C
HETATM   18  O5  UNL     1      68.046  46.248  73.253  1.00  0.00    -0.391 OA
HETATM   19  C21 UNL     1      69.179  45.712  73.880  1.00  0.00     0.167 C
HETATM   20  C22 UNL     1      69.607  46.549  75.057  1.00  0.00     0.026 C
HETATM   21  C23 UNL     1      71.050  46.958  74.861  1.00  0.00     0.002 C
HETATM   22  C24 UNL     1      71.561  47.539  76.139  1.00  0.00     0.000 C
HETATM   23  C25 UNL     1      72.907  48.179  76.026  1.00  0.00     0.002 C
HETATM   24  C26 UNL     1      73.094  48.897  74.703  1.00  0.00     0.026 C
HETATM   25  C27 UNL     1      74.284  49.816  74.787  1.00  0.00     0.169 C
HETATM   26  O6  UNL     1      74.399  50.549  73.639  1.00  0.00    -0.368 OA
HETATM   27  C28 UNL     1      74.244  51.901  73.798  1.00  0.00     0.162 A
HETATM   28  C29 UNL     1      73.166  52.385  74.717  1.00  0.00     0.171 A
HETATM   29  N5  UNL     1      74.100  53.037  75.593  1.00  0.00    -0.355 N
ATOM     30  H5  UNL     1      74.030  53.623  76.425  1.00  0.00     0.162 HD
HETATM   31  C30 UNL     1      75.161  52.519  74.807  1.00  0.00     0.254 A
HETATM   32  O7  UNL     1      76.403  52.556  74.908  1.00  0.00    -0.270 OA
HETATM   33  C31 UNL     1      74.074  52.366  68.991  1.00  0.00     0.239 C
HETATM   34  O8  UNL     1      73.341  51.762  68.112  1.00  0.00    -0.272 OA
ENDROOT
BRANCH   1  35
HETATM   35  C4  UNL     1      75.361  53.164  67.043  1.00  0.00     0.110 C
BRANCH  35  36
HETATM   36  N2  UNL     1      74.545  52.297  66.242  1.00  0.00    -0.354 N
HETATM   37  C3  UNL     1      75.316  51.122  65.839  1.00  0.00     0.158 C
HETATM   38  C2  UNL     1      75.083  50.701  64.429  1.00  0.00     0.292 C
HETATM   39  N1  UNL     1      73.627  50.484  64.353  1.00  0.00     0.090 N
HETATM   40  C1  UNL     1      73.339  49.806  63.128  1.00  0.00     0.310 C
HETATM   41  C33 UNL     1      73.050  51.779  64.356  1.00  0.00     0.316 C
HETATM   42  C32 UNL     1      73.725  52.807  65.238  1.00  0.00     0.094 C
ENDBRANCH  35  36
BRANCH  35  43
HETATM   43  C5  UNL     1      75.978  54.246  66.295  1.00  0.00     0.224 C
HETATM   44  O1  UNL     1      75.314  55.075  65.592  1.00  0.00    -0.643 OA
HETATM   45  O2  UNL     1      77.336  54.465  66.282  1.00  0.00    -0.643 OA
ENDBRANCH  35  43
ENDBRANCH   1  35
BRANCH   1  46
HETATM   46  C7  UNL     1      73.761  54.545  68.151  1.00  0.00     0.023 C
HETATM   47  C8  UNL     1      72.489  54.282  68.374  1.00  0.00     0.129 C
BRANCH  47  48
HETATM   48  O3  UNL     1      71.516  55.239  68.126  1.00  0.00    -0.373 OA
ATOM     49  H3  UNL     1      70.845  55.089  67.470  1.00  0.00     0.216 HD
ENDBRANCH  47  48
ENDBRANCH   1  46
TORSDOF 5
ENDMDL