MODEL 2
REMARK VINA RESULT: -9.593676142      2.227      2.888
REMARK  10 active torsions:
REMARK  status: ('A' for Active; 'I' for Inactive)
REMARK    1  A    between atoms: N1_2  and  C2_4
REMARK    2  A    between atoms: C3_7  and  C4_8
REMARK       I    between atoms: C4_8  and  N3_10
REMARK    3  A    between atoms: N3_10  and  C5_12
REMARK    4  A    between atoms: C8_15  and  C9_16
REMARK    5  A    between atoms: C16_28  and  C17_29
REMARK    6  A    between atoms: C18_30  and  C19_31
REMARK    7  A    between atoms: C19_31  and  C20_32
REMARK    8  A    between atoms: C22_36  and  N8_37
REMARK    9  A    between atoms: N8_37  and  S1_39
REMARK   10  A    between atoms: S1_39  and  C23_42
ROOT
HETATM    1  C2  UNL     1      75.946  53.326  70.319  1.00  0.00     0.120 A
HETATM    2  N2  UNL     1      76.377  53.194  71.587  1.00  0.00    -0.337 N
ATOM      3  H2  UNL     1      76.546  52.272  71.987  1.00  0.00     0.167 HD
HETATM    4  C3  UNL     1      76.577  54.300  72.309  1.00  0.00     0.102 A
HETATM    5  C14 UNL     1      76.342  55.558  71.749  1.00  0.00     0.037 A
HETATM    6  C15 UNL     1      75.901  55.694  70.451  1.00  0.00     0.027 A
HETATM    7  C16 UNL     1      75.700  54.555  69.727  1.00  0.00     0.061 A
ENDROOT
BRANCH   7   8
HETATM    8  C17 UNL     1      75.239  54.648  68.358  1.00  0.00    -0.063 C
HETATM    9  C18 UNL     1      74.845  54.734  67.224  1.00  0.00    -0.095 C
BRANCH   9  10
HETATM   10  C19 UNL     1      74.345  54.823  65.859  1.00  0.00     0.152 C
BRANCH  10  11
HETATM   11  C20 UNL     1      73.788  56.199  65.676  1.00  0.00     0.039 A
HETATM   12  C21 UNL     1      74.091  57.190  66.574  1.00  0.00     0.116 A
HETATM   13  N7  UNL     1      73.592  58.457  66.416  1.00  0.00    -0.345 N
HETATM   14  C22 UNL     1      72.798  58.777  65.393  1.00  0.00     0.184 A
ATOM     15  H7  UNL     1      73.835  59.175  67.099  1.00  0.00     0.167 HD
HETATM   16  C32 UNL     1      72.492  57.755  64.480  1.00  0.00     0.290 A
HETATM   17  O4  UNL     1      71.755  58.030  63.522  1.00  0.00    -0.264 OA
HETATM   18  N10 UNL     1      72.994  56.517  64.654  1.00  0.00    -0.322 N
ATOM     19  H10 UNL     1      72.757  55.793  63.977  1.00  0.00     0.169 HD
BRANCH  14  20
HETATM   20  N8  UNL     1      72.333  59.937  65.216  1.00  0.00    -0.261 N
ATOM     21  H8  UNL     1      71.341  60.074  65.411  1.00  0.00     0.180 HD
BRANCH  20  22
HETATM   22  S1  UNL     1      73.211  61.292  64.680  1.00  0.00     0.266 S
HETATM   23  O2  UNL     1      74.674  60.883  64.537  1.00  0.00    -0.200 OA
HETATM   24  O3  UNL     1      73.160  62.453  65.655  1.00  0.00    -0.200 OA
BRANCH  22  25
HETATM   25  C23 UNL     1      72.656  61.890  63.124  1.00  0.00     0.107 A
HETATM   26  C24 UNL     1      71.911  63.042  63.025  1.00  0.00     0.028 A
HETATM   27  C25 UNL     1      71.479  63.506  61.788  1.00  0.00     0.003 A
HETATM   28  C26 UNL     1      71.804  62.796  60.635  1.00  0.00     0.014 A
HETATM   29  C27 UNL     1      72.550  61.640  60.718  1.00  0.00    -0.008 A
HETATM   30  C28 UNL     1      72.860  60.958  59.555  1.00  0.00     0.015 A
HETATM   31  C31 UNL     1      72.977  61.183  61.959  1.00  0.00     0.066 A
HETATM   32  C29 UNL     1      73.610  59.804  59.654  1.00  0.00     0.018 A
HETATM   33  C30 UNL     1      74.013  59.389  60.921  1.00  0.00     0.088 A
HETATM   34  N9  UNL     1      73.706  60.059  62.040  1.00  0.00    -0.364 N
ATOM     35  H9  UNL     1      74.023  59.717  62.947  1.00  0.00     0.165 HD
ENDBRANCH  22  25
ENDBRANCH  20  22
ENDBRANCH  14  20
ENDBRANCH  10  11
ENDBRANCH   9  10
ENDBRANCH   7   8
BRANCH   1  36
HETATM   36  N1  UNL     1      75.759  52.230  69.639  1.00  0.00    -0.379 N
HETATM   37  C1  UNL     1      74.592  51.407  69.821  1.00  0.00     0.147 C
ATOM     38  H1  UNL     1      76.462  51.947  68.957  1.00  0.00     0.160 HD
ENDBRANCH   1  36
BRANCH   4  39
HETATM   39  C4  UNL     1      77.035  54.237  73.672  1.00  0.00     0.273 C
HETATM   40  O1  UNL     1      77.123  55.235  74.432  1.00  0.00    -0.266 OA
HETATM   41  N3  UNL     1      77.414  52.995  74.221  1.00  0.00    -0.308 N
ATOM     42  H3  UNL     1      78.411  52.795  74.291  1.00  0.00     0.170 HD
BRANCH  41  43
HETATM   43  C5  UNL     1      76.594  52.093  74.640  1.00  0.00     0.107 A
HETATM   44  C6  UNL     1      75.586  52.323  75.551  1.00  0.00     0.049 A
HETATM   45  C7  UNL     1      74.723  51.337  75.982  1.00  0.00     0.017 A
HETATM   46  C8  UNL     1      74.856  50.053  75.495  1.00  0.00    -0.008 A
HETATM   47  C13 UNL     1      75.872  49.844  74.584  1.00  0.00     0.102 A
HETATM   48  N6  UNL     1      76.703  50.818  74.174  1.00  0.00    -0.351 N
ATOM     49  H6  UNL     1      77.433  50.596  73.497  1.00  0.00     0.166 HD
BRANCH  46  50
HETATM   50  C9  UNL     1      73.968  48.984  75.932  1.00  0.00     0.009 A
HETATM   51  C10 UNL     1      72.669  49.165  76.392  1.00  0.00     0.121 A
HETATM   52  N4  UNL     1      72.186  47.948  76.692  1.00  0.00    -0.310 N
HETATM   53  N5  UNL     1      73.071  46.997  76.461  1.00  0.00    -0.307 N
ATOM     54  H4  UNL     1      71.247  47.780  77.054  1.00  0.00     0.186 HD
HETATM   55  C11 UNL     1      72.891  45.552  76.672  1.00  0.00     0.177 C
HETATM   56  C12 UNL     1      74.171  47.620  75.995  1.00  0.00     0.123 A
ENDBRANCH  46  50
ENDBRANCH  41  43
ENDBRANCH   4  39
TORSDOF 10
ENDMDL