MODEL 2
REMARK VINA RESULT: -7.699214691      0.552      1.054
REMARK  10 active torsions:
REMARK  status: ('A' for Active; 'I' for Inactive)
REMARK    1  A    between atoms: C2_2  and  O1_5
REMARK    2  A    between atoms: O1_5  and  C5_6
REMARK       I    between atoms: C5_6  and  N1_8
REMARK    3  A    between atoms: N2_11  and  C8_12
REMARK    4  A    between atoms: C8_12  and  N3_13
REMARK    5  A    between atoms: C8_12  and  C22_42
REMARK    6  A    between atoms: N3_13  and  C9_15
REMARK    7  A    between atoms: C9_15  and  C10_17
REMARK       I    between atoms: C10_17  and  N4_19
REMARK       I    between atoms: N5_22  and  C13_23
REMARK       I    between atoms: C13_23  and  N6_25
REMARK    8  A    between atoms: N6_25  and  C14_27
REMARK    9  A    between atoms: C17_30  and  S2_31
REMARK   10  A    between atoms: S2_31  and  N7_32
ROOT
HETATM    1  C10 UNL     1      72.079  56.375  63.287  1.00  0.00     0.281 C
HETATM    2  O3  UNL     1      70.845  56.045  63.066  1.00  0.00    -0.265 OA
HETATM    3  N4  UNL     1      72.776  55.549  64.184  1.00  0.00    -0.343 N
HETATM    4  C11 UNL     1      72.040  54.393  64.743  1.00  0.00     0.146 C
HETATM    5  C12 UNL     1      72.125  54.477  66.254  1.00  0.00     0.147 C
HETATM    6  N5  UNL     1      73.538  54.461  66.664  1.00  0.00    -0.331 N
HETATM    7  C13 UNL     1      73.839  54.249  68.041  1.00  0.00     0.323 C
HETATM    8  O4  UNL     1      72.827  54.102  68.826  1.00  0.00    -0.247 OA
HETATM    9  N6  UNL     1      75.127  54.194  68.565  1.00  0.00    -0.307 N
ATOM     10  H6  UNL     1      75.881  54.319  67.890  1.00  0.00     0.170 HD
HETATM   11  C20 UNL     1      74.540  54.652  65.681  1.00  0.00     0.147 C
HETATM   12  C21 UNL     1      74.117  55.689  64.646  1.00  0.00     0.146 C
ENDROOT
BRANCH   1  13
HETATM   13  C9  UNL     1      72.611  57.547  62.595  1.00  0.00     0.166 C
HETATM   14  S1  UNL     1      72.933  57.453  61.012  1.00  0.00    -0.055 SA
BRANCH  13  15
HETATM   15  N3  UNL     1      72.861  58.760  63.284  1.00  0.00    -0.355 N
ATOM     16  H3  UNL     1      73.746  58.845  63.785  1.00  0.00     0.162 HD
BRANCH  15  17
HETATM   17  C8  UNL     1      71.948  59.895  63.331  1.00  0.00     0.187 C
BRANCH  17  18
HETATM   18  N2  UNL     1      71.038  59.849  64.375  1.00  0.00    -0.389 N
HETATM   19  C7  UNL     1      71.177  59.082  65.528  1.00  0.00     0.139 C
HETATM   20  C6  UNL     1      70.925  59.979  66.752  1.00  0.00     0.147 C
HETATM   21  N1  UNL     1      69.817  60.878  66.536  1.00  0.00    -0.325 N
HETATM   22  C5  UNL     1      69.150  61.382  67.683  1.00  0.00     0.363 C
HETATM   23  C27 UNL     1      69.347  61.296  65.240  1.00  0.00     0.147 C
HETATM   24  O2  UNL     1      69.506  61.072  68.869  1.00  0.00    -0.238 OA
HETATM   25  C26 UNL     1      69.694  60.260  64.166  1.00  0.00     0.139 C
BRANCH  22  26
HETATM   26  O1  UNL     1      68.057  62.254  67.617  1.00  0.00    -0.294 OA
BRANCH  26  27
HETATM   27  C2  UNL     1      66.730  61.788  67.834  1.00  0.00     0.061 C
HETATM   28  C1  UNL     1      66.623  60.298  67.835  1.00  0.00     0.046 C
HETATM   29  C3  UNL     1      66.192  62.343  69.158  1.00  0.00     0.046 C
HETATM   30  C4  UNL     1      65.880  62.365  66.719  1.00  0.00     0.046 C
ENDBRANCH  26  27
ENDBRANCH  22  26
ENDBRANCH  17  18
BRANCH  17  31
HETATM   31  C22 UNL     1      72.747  61.175  63.299  1.00  0.00    -0.013 C
HETATM   32  C23 UNL     1      74.192  60.844  62.828  1.00  0.00     0.018 C
HETATM   33  C24 UNL     1      72.938  61.858  64.611  1.00  0.00     0.018 C
HETATM   34  C25 UNL     1      72.210  62.135  62.295  1.00  0.00     0.018 C
ENDBRANCH  17  31
ENDBRANCH  15  17
ENDBRANCH  13  15
ENDBRANCH   1  13
BRANCH   9  35
HETATM   35  C14 UNL     1      75.533  53.990  69.895  1.00  0.00     0.060 A
HETATM   36  C15 UNL     1      75.596  52.768  70.519  1.00  0.00     0.033 A
HETATM   37  C16 UNL     1      76.020  52.650  71.845  1.00  0.00     0.027 A
HETATM   38  C17 UNL     1      76.396  53.731  72.595  1.00  0.00     0.081 A
HETATM   39  C18 UNL     1      76.338  54.956  71.979  1.00  0.00     0.054 A
HETATM   40  C19 UNL     1      75.924  55.089  70.679  1.00  0.00     0.074 A
HETATM   41  N8  UNL     1      75.865  56.382  70.047  1.00  0.00    -0.100 NA
BRANCH  38  42
HETATM   42  S2  UNL     1      76.923  53.552  74.251  1.00  0.00     0.256 S
HETATM   43  O5  UNL     1      78.240  54.250  74.415  1.00  0.00    -0.201 OA
HETATM   44  O6  UNL     1      75.886  54.106  75.188  1.00  0.00    -0.201 OA
BRANCH  42  45
HETATM   45  N7  UNL     1      77.143  51.869  74.564  1.00  0.00    -0.324 N
ATOM     46  H72 UNL     1      77.425  51.175  73.872  1.00  0.00     0.169 HD
ATOM     47  H71 UNL     1      76.942  51.702  75.550  1.00  0.00     0.169 HD
ENDBRANCH  42  45
ENDBRANCH  38  42
ENDBRANCH   9  35
TORSDOF 10
ENDMDL