MODEL 1
REMARK VINA RESULT: -7.872404327      0.000      0.000
REMARK  8 active torsions:
REMARK  status: ('A' for Active; 'I' for Inactive)
REMARK    1  A    between atoms: C3_3  and  C4_4
REMARK       I    between atoms: C4_4  and  N1_6
REMARK    2  A    between atoms: C8_10  and  O2_11
REMARK    3  A    between atoms: C11_15  and  C12_16
REMARK       I    between atoms: N3_24  and  C19_25
REMARK    4  A    between atoms: C19_25  and  C20_27
REMARK    5  A    between atoms: C23_30  and  O4_31
REMARK    6  A    between atoms: O4_31  and  C24_32
REMARK       I    between atoms: N6_42  and  C30_43
REMARK    7  A    between atoms: C30_43  and  O6_45
REMARK    8  A    between atoms: O6_45  and  C31_46
ROOT
HETATM    1  C1  UNL     1      70.314  51.793  74.890  1.00  0.00     0.012 C
HETATM    2  C2  UNL     1      71.492  52.012  75.042  1.00  0.00    -0.108 C
HETATM    3  C3  UNL     1      72.911  52.252  75.215  1.00  0.00     0.196 C
ENDROOT
BRANCH   3   4
HETATM    4  C4  UNL     1      73.692  51.645  74.103  1.00  0.00     0.231 C
HETATM    5  O1  UNL     1      73.723  50.392  74.009  1.00  0.00    -0.272 OA
HETATM    6  N1  UNL     1      74.397  52.452  73.156  1.00  0.00    -0.348 N
HETATM    7  C5  UNL     1      74.330  53.896  73.316  1.00  0.00     0.135 C
HETATM    8  C9  UNL     1      75.127  51.800  72.104  1.00  0.00     0.168 C
HETATM    9  C6  UNL     1      75.243  54.504  72.305  1.00  0.00     0.039 C
HETATM   10  C7  UNL     1      76.549  53.770  72.297  1.00  0.00     0.055 C
HETATM   11  C10 UNL     1      74.976  53.955  70.904  1.00  0.00    -0.036 C
HETATM   12  C8  UNL     1      75.862  52.849  71.279  1.00  0.00     0.098 C
HETATM   13  C11 UNL     1      74.189  54.480  70.006  1.00  0.00     0.036 C
BRANCH  12  14
HETATM   14  O2  UNL     1      76.734  52.327  70.361  1.00  0.00    -0.384 OA
ATOM     15  H2  UNL     1      76.552  52.615  69.474  1.00  0.00     0.211 HD
ENDBRANCH  12  14
BRANCH  13  16
HETATM   16  C12 UNL     1      73.929  53.972  68.671  1.00  0.00     0.039 A
HETATM   17  C13 UNL     1      73.323  52.784  68.434  1.00  0.00     0.032 A
HETATM   18  C14 UNL     1      73.188  52.661  67.085  1.00  0.00     0.034 A
HETATM   19  C15 UNL     1      73.723  53.798  66.529  1.00  0.00     0.054 A
HETATM   20  N2  UNL     1      74.198  54.641  67.516  1.00  0.00    -0.322 N
HETATM   21  C35 UNL     1      73.842  54.207  65.195  1.00  0.00     0.126 C
HETATM   22  C16 UNL     1      74.802  55.920  67.291  1.00  0.00     0.104 C
HETATM   23  C17 UNL     1      74.228  56.855  66.354  1.00  0.00     0.179 C
HETATM   24  C18 UNL     1      74.635  58.281  66.313  1.00  0.00     0.163 C
HETATM   25  O7  UNL     1      74.817  56.533  65.104  1.00  0.00    -0.370 OA
HETATM   26  N3  UNL     1      74.153  58.831  65.021  1.00  0.00    -0.347 N
HETATM   27  C19 UNL     1      73.691  60.164  65.003  1.00  0.00     0.224 C
HETATM   28  C27 UNL     1      74.130  58.044  63.766  1.00  0.00     0.159 C
HETATM   29  O3  UNL     1      73.696  60.796  66.115  1.00  0.00    -0.273 OA
HETATM   30  C28 UNL     1      73.799  56.644  64.170  1.00  0.00     0.158 C
HETATM   31  C29 UNL     1      73.975  55.530  63.176  1.00  0.00     0.167 C
HETATM   32  N6  UNL     1      73.667  54.210  63.878  1.00  0.00    -0.299 N
HETATM   33  C30 UNL     1      73.234  53.158  63.049  1.00  0.00     0.367 C
HETATM   34  O5  UNL     1      72.960  52.044  63.544  1.00  0.00    -0.238 OA
BRANCH  27  35
HETATM   35  C20 UNL     1      73.211  60.872  63.829  1.00  0.00     0.078 C
HETATM   36  C21 UNL     1      72.997  62.336  63.954  1.00  0.00     0.017 C
HETATM   37  C22 UNL     1      71.974  62.643  64.989  1.00  0.00     0.033 C
HETATM   38  C23 UNL     1      70.796  61.747  65.079  1.00  0.00     0.131 C
HETATM   39  C25 UNL     1      70.746  60.553  64.188  1.00  0.00     0.033 C
HETATM   40  C26 UNL     1      71.912  60.292  63.318  1.00  0.00     0.017 C
BRANCH  38  41
HETATM   41  O4  UNL     1      69.557  62.428  65.200  1.00  0.00    -0.319 OA
BRANCH  41  42
HETATM   42  C24 UNL     1      68.798  62.252  66.328  1.00  0.00     0.225 C
HETATM   43  N4  UNL     1      67.528  62.278  66.176  1.00  0.00    -0.368 N
ATOM     44  H42 UNL     1      67.149  62.425  65.240  1.00  0.00     0.159 HD
ATOM     45  H41 UNL     1      66.963  62.147  67.015  1.00  0.00     0.159 HD
HETATM   46  N5  UNL     1      69.324  62.047  67.627  1.00  0.00    -0.057 NA
ENDBRANCH  41  42
ENDBRANCH  38  41
ENDBRANCH  27  35
BRANCH  33  47
HETATM   47  O6  UNL     1      73.105  53.339  61.692  1.00  0.00    -0.294 OA
BRANCH  47  48
HETATM   48  C31 UNL     1      73.947  52.666  60.800  1.00  0.00     0.061 C
HETATM   49  C32 UNL     1      73.203  51.539  60.123  1.00  0.00     0.046 C
HETATM   50  C33 UNL     1      74.500  53.651  59.775  1.00  0.00     0.046 C
HETATM   51  C34 UNL     1      75.144  52.095  61.535  1.00  0.00     0.046 C
ENDBRANCH  47  48
ENDBRANCH  33  47
ENDBRANCH  13  16
ENDBRANCH   3   4
TORSDOF 8
ENDMDL