MODEL 3
REMARK VINA RESULT: -6.990384684      1.452      1.780
REMARK  10 active torsions:
REMARK  status: ('A' for Active; 'I' for Inactive)
REMARK    1  A    between atoms: C4_4  and  O1_5
REMARK    2  A    between atoms: C12_14  and  O2_15
REMARK    3  A    between atoms: C17_21  and  C18_22
REMARK       I    between atoms: C18_22  and  N1_24
REMARK    4  A    between atoms: C23_30  and  O5_31
REMARK    5  A    between atoms: O5_31  and  C24_32
REMARK    6  A    between atoms: C24_32  and  C25_33
REMARK    7  A    between atoms: C26_34  and  C27_35
REMARK    8  A    between atoms: C27_35  and  N2_36
REMARK    9  A    between atoms: C31_41  and  O7_43
REMARK   10  A    between atoms: C35_47  and  O8_48
ROOT
HETATM    1  C1  UNL     1      75.516  51.160  76.518  1.00  0.00     0.018 C
HETATM    2  C2  UNL     1      75.508  51.657  75.141  1.00  0.00    -0.017 C
HETATM    3  C3  UNL     1      76.985  52.014  74.841  1.00  0.00     0.018 C
HETATM    4  C4  UNL     1      74.781  52.951  75.039  1.00  0.00     0.126 C
HETATM    5  C5  UNL     1      73.396  52.626  74.769  1.00  0.00     0.033 C
HETATM    6  C6  UNL     1      72.948  51.204  74.858  1.00  0.00     0.013 C
HETATM    7  C7  UNL     1      73.745  50.189  74.018  1.00  0.00    -0.022 C
HETATM    8  C8  UNL     1      75.103  50.661  74.042  1.00  0.00     0.005 C
HETATM    9  C9  UNL     1      76.100  49.543  74.283  1.00  0.00     0.007 C
HETATM   10  C10 UNL     1      75.318  48.580  75.057  1.00  0.00     0.009 C
HETATM   11  C11 UNL     1      73.866  48.831  74.786  1.00  0.00     0.030 C
HETATM   12  C12 UNL     1      73.532  47.897  73.693  1.00  0.00     0.073 C
HETATM   13  C13 UNL     1      73.462  46.481  73.632  1.00  0.00     0.040 C
HETATM   14  C14 UNL     1      73.348  46.115  72.124  1.00  0.00     0.017 C
HETATM   15  C15 UNL     1      72.240  46.954  71.421  1.00  0.00    -0.004 C
HETATM   16  C16 UNL     1      71.299  45.833  70.894  1.00  0.00     0.021 C
HETATM   17  C17 UNL     1      72.730  47.769  70.308  1.00  0.00     0.051 C
HETATM   18  C23 UNL     1      72.781  49.251  70.342  1.00  0.00     0.094 C
HETATM   19  C31 UNL     1      73.231  50.110  71.466  1.00  0.00     0.108 C
HETATM   20  C32 UNL     1      72.614  51.502  71.133  1.00  0.00     0.053 C
HETATM   21  C33 UNL     1      72.885  49.839  72.858  1.00  0.00     0.050 C
HETATM   22  C34 UNL     1      72.263  48.585  73.316  1.00  0.00     0.029 C
HETATM   23  C35 UNL     1      71.055  48.454  74.082  1.00  0.00     0.131 C
HETATM   24  C36 UNL     1      70.387  48.411  72.664  1.00  0.00     0.039 C
HETATM   25  C37 UNL     1      71.561  47.597  72.482  1.00  0.00     0.015 C
ENDROOT
BRANCH  18  26
HETATM   26  O5  UNL     1      73.283  49.631  69.210  1.00  0.00    -0.340 OA
BRANCH  26  27
HETATM   27  C24 UNL     1      73.742  50.026  68.148  1.00  0.00     0.269 C
BRANCH  27  28
HETATM   28  C25 UNL     1      74.409  51.373  68.169  1.00  0.00    -0.078 C
HETATM   29  C26 UNL     1      74.963  52.462  68.206  1.00  0.00    -0.082 C
BRANCH  29  30
HETATM   30  C27 UNL     1      75.600  53.775  68.256  1.00  0.00     0.249 C
BRANCH  30  31
HETATM   31  N2  UNL     1      75.812  54.159  69.639  1.00  0.00    -0.254 N
HETATM   32  C28 UNL     1      75.781  55.410  70.120  1.00  0.00     0.120 A
HETATM   33  C29 UNL     1      76.033  55.353  71.492  1.00  0.00     0.046 A
HETATM   34  C30 UNL     1      76.206  54.009  71.750  1.00  0.00     0.169 A
HETATM   35  O6  UNL     1      76.065  53.355  70.629  1.00  0.00    -0.248 OA
ENDBRANCH  30  31
ENDBRANCH  29  30
ENDBRANCH  27  28
ENDBRANCH  26  27
ENDBRANCH  18  26
BRANCH  17  36
HETATM   36  C18 UNL     1      72.206  47.410  68.954  1.00  0.00     0.253 C
HETATM   37  O3  UNL     1      71.038  47.869  68.647  1.00  0.00    -0.268 OA
HETATM   38  N1  UNL     1      72.696  46.670  67.902  1.00  0.00    -0.344 N
HETATM   39  C19 UNL     1      71.929  46.540  66.671  1.00  0.00     0.152 C
HETATM   40  C22 UNL     1      73.918  45.919  67.788  1.00  0.00     0.152 C
HETATM   41  C20 UNL     1      72.686  46.985  65.462  1.00  0.00     0.187 C
HETATM   42  O4  UNL     1      74.034  46.789  65.628  1.00  0.00    -0.388 OA
HETATM   43  C21 UNL     1      74.193  45.578  66.330  1.00  0.00     0.187 C
ENDBRANCH  17  36
BRANCH  19  44
HETATM   44  O7  UNL     1      74.568  50.401  71.160  1.00  0.00    -0.383 OA
ATOM     45  H7  UNL     1      74.917  50.763  71.965  1.00  0.00     0.211 HD
ENDBRANCH  19  44
BRANCH  12  46
HETATM   46  O2  UNL     1      74.579  48.151  72.782  1.00  0.00    -0.389 OA
ATOM     47  H2  UNL     1      74.096  48.438  72.016  1.00  0.00     0.210 HD
ENDBRANCH  12  46
BRANCH  23  48
HETATM   48  O8  UNL     1      70.295  49.206  74.837  1.00  0.00    -0.395 OA
ATOM     49  H8  UNL     1      69.479  49.128  75.318  1.00  0.00     0.210 HD
ENDBRANCH  23  48
BRANCH   4  50
HETATM   50  O1  UNL     1      74.939  53.711  76.177  1.00  0.00    -0.395 OA
ATOM     51  H1  UNL     1      74.970  53.168  76.956  1.00  0.00     0.210 HD
ENDBRANCH   4  50
TORSDOF 10
ENDMDL