MODEL 1
REMARK VINA RESULT: -8.552277038      0.000      0.000
REMARK  4 active torsions:
REMARK  status: ('A' for Active; 'I' for Inactive)
REMARK       I    between atoms: C1_2  and  N1_3
REMARK       I    between atoms: C1_2  and  N3_11
REMARK    1  A    between atoms: N1_3  and  C2_5
REMARK    2  A    between atoms: N3_11  and  C5_13
REMARK    3  A    between atoms: C11_19  and  N4_20
REMARK       I    between atoms: N4_20  and  C12_22
REMARK       I    between atoms: C12_22  and  N5_24
REMARK    4  A    between atoms: N5_24  and  C13_26
ROOT
HETATM    1  C5  UNL     1       3.201 -20.904  -0.522  1.00  0.00     0.035 C
HETATM    2  C6  UNL     1       3.122 -22.137   0.361  1.00  0.00     0.035 C
HETATM    3  C7  UNL     1       4.051 -23.153  -0.200  1.00  0.00    -0.011 C
HETATM    4  C8  UNL     1       3.708 -23.454  -1.607  1.00  0.00     0.009 C
HETATM    5  C9  UNL     1       3.546 -22.314  -2.548  1.00  0.00    -0.010 C
HETATM    6  C10 UNL     1       4.822 -21.864  -3.143  1.00  0.00     0.030 C
HETATM    7  C11 UNL     1       5.962 -21.547  -2.276  1.00  0.00     0.090 C
HETATM    8  C22 UNL     1       5.662 -21.361  -0.804  1.00  0.00     0.011 C
HETATM    9  C23 UNL     1       5.493 -22.687  -0.102  1.00  0.00     0.011 C
HETATM   10  C24 UNL     1       4.587 -20.361  -0.521  1.00  0.00     0.038 C
HETATM   11  C25 UNL     1       2.760 -21.182  -1.918  1.00  0.00     0.035 C
ENDROOT
BRANCH   7  12
HETATM   12  N4  UNL     1       6.914 -22.631  -2.376  1.00  0.00    -0.338 N
HETATM   13  C12 UNL     1       7.672 -22.972  -3.525  1.00  0.00     0.317 C
HETATM   14  O2  UNL     1       7.687 -22.215  -4.503  1.00  0.00    -0.247 OA
HETATM   15  N5  UNL     1       8.399 -24.169  -3.498  1.00  0.00    -0.329 N
ATOM     16  H5  UNL     1       8.186 -24.752  -2.689  1.00  0.00     0.165 HD
ATOM     17  H4  UNL     1       7.053 -23.203  -1.543  1.00  0.00     0.164 HD
BRANCH  15  18
HETATM   18  C13 UNL     1       9.376 -24.743  -4.368  1.00  0.00     0.192 C
HETATM   19  C14 UNL     1      10.387 -25.356  -3.454  1.00  0.00     0.175 C
HETATM   20  S2  UNL     1      11.677 -26.307  -4.160  1.00  0.00     0.153 S
HETATM   21  O3  UNL     1      11.846 -27.676  -3.548  1.00  0.00    -0.227 OA
HETATM   22  O4  UNL     1      13.017 -25.640  -3.878  1.00  0.00    -0.227 OA
HETATM   23  C15 UNL     1      11.434 -26.312  -5.864  1.00  0.00     0.139 A
HETATM   24  C16 UNL     1      11.664 -27.238  -6.907  1.00  0.00     0.055 A
HETATM   25  C17 UNL     1      10.460 -27.339  -6.190  1.00  0.00     0.053 A
HETATM   26  C18 UNL     1      10.164 -28.670  -5.570  1.00  0.00     0.034 C
HETATM   27  N6  UNL     1       9.188 -26.765  -6.089  1.00  0.00    -0.340 N
HETATM   28  C19 UNL     1       8.845 -29.001  -6.325  1.00  0.00     0.022 C
HETATM   29  C20 UNL     1       8.360 -27.637  -6.892  1.00  0.00     0.127 C
HETATM   30  C21 UNL     1       8.744 -25.679  -5.352  1.00  0.00     0.244 C
HETATM   31  O5  UNL     1       7.515 -25.417  -5.572  1.00  0.00    -0.271 OA
ENDBRANCH  15  18
ENDBRANCH   7  12
BRANCH   1  32
HETATM   32  N3  UNL     1       2.291 -19.911   0.047  1.00  0.00    -0.334 N
HETATM   33  C1  UNL     1       2.311 -18.559  -0.192  1.00  0.00     0.322 C
HETATM   34  O1  UNL     1       3.058 -17.929  -0.896  1.00  0.00    -0.247 OA
HETATM   35  N1  UNL     1       1.254 -17.791   0.539  1.00  0.00    -0.289 N
ATOM     36  H1  UNL     1       0.696 -17.034   0.145  1.00  0.00     0.172 HD
ATOM     37  H3  UNL     1       1.571 -20.256   0.681  1.00  0.00     0.165 HD
BRANCH  35  38
HETATM   38  C2  UNL     1       1.157 -18.256   1.795  1.00  0.00     0.152 A
HETATM   39  N2  UNL     1       1.066 -18.663   2.907  1.00  0.00    -0.346 N
HETATM   40  C3  UNL     1       0.469 -18.521   3.995  1.00  0.00     0.097 A
ATOM     41  H2  UNL     1       1.735 -19.425   3.016  1.00  0.00     0.167 HD
HETATM   42  C4  UNL     1      -0.468 -17.472   3.877  1.00  0.00     0.070 A
HETATM   43  S1  UNL     1      -0.297 -16.951   2.324  1.00  0.00    -0.064 SA
ENDBRANCH  35  38
ENDBRANCH   1  32
TORSDOF 4
ENDMDL