MODEL 1
REMARK VINA RESULT: -8.646413806      0.000      0.000
REMARK  9 active torsions:
REMARK  status: ('A' for Active; 'I' for Inactive)
REMARK    1  A    between atoms: C2_2  and  S1_4
REMARK    2  A    between atoms: S1_4  and  N1_7
REMARK    3  A    between atoms: C4_10  and  C5_11
REMARK    4  A    between atoms: C10_16  and  N3_17
REMARK       I    between atoms: N3_17  and  C11_19
REMARK    5  A    between atoms: C11_19  and  C12_21
REMARK    6  A    between atoms: C16_25  and  N4_26
REMARK    7  A    between atoms: N4_26  and  C17_28
REMARK    8  A    between atoms: C17_28  and  O4_29
REMARK    9  A    between atoms: C17_28  and  N5_31
ROOT
HETATM    1  C12 UNL     1       6.059 -23.235  -4.746  1.00  0.00     0.034 A
HETATM    2  C13 UNL     1       6.203 -24.481  -4.228  1.00  0.00     0.018 A
HETATM    3  C14 UNL     1       6.629 -25.562  -5.004  1.00  0.00     0.018 A
HETATM    4  C15 UNL     1       6.909 -25.354  -6.328  1.00  0.00     0.037 A
HETATM    5  C16 UNL     1       7.385 -26.159  -7.332  1.00  0.00     0.135 A
HETATM    6  N7  UNL     1       7.516 -25.379  -8.429  1.00  0.00    -0.284 N
ATOM      7  H7  UNL     1       7.851 -25.691  -9.341  1.00  0.00     0.188 HD
HETATM    8  N8  UNL     1       7.143 -24.157  -8.131  1.00  0.00    -0.298 N
ATOM      9  H8  UNL     1       7.145 -23.377  -8.787  1.00  0.00     0.187 HD
HETATM   10  C23 UNL     1       6.758 -24.070  -6.852  1.00  0.00     0.063 A
HETATM   11  C24 UNL     1       6.331 -23.007  -6.059  1.00  0.00     0.049 A
ENDROOT
BRANCH   1  12
HETATM   12  C11 UNL     1       5.688 -22.097  -3.885  1.00  0.00     0.257 C
HETATM   13  N3  UNL     1       5.453 -22.181  -2.570  1.00  0.00    -0.307 N
ATOM     14  H3  UNL     1       5.507 -23.188  -2.415  1.00  0.00     0.170 HD
HETATM   15  O3  UNL     1       5.611 -20.999  -4.528  1.00  0.00    -0.267 OA
BRANCH  13  16
HETATM   16  C10 UNL     1       5.213 -21.772  -1.444  1.00  0.00     0.143 A
HETATM   17  N1  UNL     1       4.450 -22.215  -0.437  1.00  0.00    -0.164 N
HETATM   18  N2  UNL     1       4.608 -21.390   0.594  1.00  0.00    -0.286 N
HETATM   19  C4  UNL     1       5.458 -20.398   0.305  1.00  0.00     0.038 A
ATOM     20  H2  UNL     1       4.140 -21.500   1.494  1.00  0.00     0.188 HD
HETATM   21  C9  UNL     1       5.874 -20.577  -0.963  1.00  0.00     0.078 A
BRANCH  17  22
HETATM   22  S1  UNL     1       3.341 -23.575  -0.439  1.00  0.00     0.255 S
HETATM   23  O1  UNL     1       3.340 -24.316  -1.728  1.00  0.00    -0.203 OA
HETATM   24  O2  UNL     1       3.898 -24.586   0.578  1.00  0.00    -0.203 OA
BRANCH  22  25
HETATM   25  C2  UNL     1       1.756 -23.148   0.184  1.00  0.00     0.123 C
HETATM   26  C1  UNL     1       0.766 -24.269   0.176  1.00  0.00     0.027 C
HETATM   27  C3  UNL     1       1.238 -22.005  -0.707  1.00  0.00     0.027 C
ENDBRANCH  22  25
ENDBRANCH  17  22
BRANCH  19  28
HETATM   28  C5  UNL     1       5.871 -19.271   1.208  1.00  0.00    -0.007 C
HETATM   29  C6  UNL     1       5.046 -18.035   0.935  1.00  0.00     0.021 C
HETATM   30  C7  UNL     1       7.321 -18.901   0.949  1.00  0.00     0.021 C
HETATM   31  C8  UNL     1       5.724 -19.629   2.667  1.00  0.00     0.021 C
ENDBRANCH  19  28
ENDBRANCH  13  16
ENDBRANCH   1  12
BRANCH   5  32
HETATM   32  N4  UNL     1       7.642 -27.444  -7.281  1.00  0.00    -0.306 N
ATOM     33  H4  UNL     1       6.900 -28.113  -7.491  1.00  0.00     0.171 HD
BRANCH  32  34
HETATM   34  C17 UNL     1       8.909 -27.909  -6.946  1.00  0.00     0.236 C
BRANCH  34  35
HETATM   35  O4  UNL     1       9.326 -28.853  -7.757  1.00  0.00    -0.332 OA
ATOM     36  H4  UNL     1      10.259 -28.798  -7.927  1.00  0.00     0.221 HD
ENDBRANCH  34  35
BRANCH  34  37
HETATM   37  N5  UNL     1       9.747 -27.509  -5.895  1.00  0.00    -0.195 N
HETATM   38  C18 UNL     1      10.017 -28.324  -4.717  1.00  0.00     0.333 C
HETATM   39  O5  UNL     1       9.521 -29.481  -4.554  1.00  0.00    -0.246 OA
HETATM   40  N6  UNL     1      10.882 -27.597  -3.875  1.00  0.00    -0.325 N
HETATM   41  C19 UNL     1      11.078 -26.256  -4.370  1.00  0.00     0.109 C
ATOM     42  H6  UNL     1      11.311 -27.969  -3.028  1.00  0.00     0.165 HD
HETATM   43  C20 UNL     1      12.561 -25.938  -4.512  1.00  0.00     0.049 C
HETATM   44  C21 UNL     1      10.335 -25.235  -3.532  1.00  0.00     0.049 C
HETATM   45  C22 UNL     1      10.470 -26.316  -5.712  1.00  0.00     0.263 C
HETATM   46  O6  UNL     1      10.584 -25.397  -6.596  1.00  0.00    -0.270 OA
ENDBRANCH  34  37
ENDBRANCH  32  34
ENDBRANCH   5  32
TORSDOF 9
ENDMDL