MODEL 4
REMARK VINA RESULT: -8.748376813      2.085      3.375
REMARK  7 active torsions:
REMARK  status: ('A' for Active; 'I' for Inactive)
REMARK    1  A    between atoms: O1_1  and  C1_3
REMARK    2  A    between atoms: C1_3  and  C2_4
REMARK    3  A    between atoms: C1_3  and  N3_19
REMARK    4  A    between atoms: C2_4  and  N1_5
REMARK    5  A    between atoms: N3_19  and  N4_20
REMARK       I    between atoms: N4_20  and  C12_22
REMARK       I    between atoms: C12_22  and  N5_24
REMARK    6  A    between atoms: N5_24  and  C13_26
REMARK    7  A    between atoms: C14_29  and  C15_30
ROOT
HETATM    1  N4  UNL     1       3.866 -22.023  -4.698  1.00  0.00    -0.182 N
ATOM      2  H4  UNL     1       3.415 -21.279  -5.232  1.00  0.00     0.207 HD
HETATM    3  C12 UNL     1       3.627 -22.074  -3.286  1.00  0.00     0.347 C
HETATM    4  O3  UNL     1       4.388 -22.881  -2.646  1.00  0.00    -0.245 OA
HETATM    5  N5  UNL     1       2.602 -21.313  -2.672  1.00  0.00    -0.307 N
ATOM      6  H5  UNL     1       2.048 -20.672  -3.240  1.00  0.00     0.167 HD
ENDROOT
BRANCH   1   7
HETATM    7  N3  UNL     1       4.648 -22.892  -5.366  1.00  0.00    -0.299 NA
BRANCH   7   8
HETATM    8  C1  UNL     1       5.421 -23.755  -6.026  1.00  0.00     0.233 C
BRANCH   8   9
HETATM    9  O1  UNL     1       5.042 -25.032  -6.111  1.00  0.00    -0.336 OA
ATOM     10  H1  UNL     1       4.871 -25.416  -5.259  1.00  0.00     0.220 HD
ENDBRANCH   8   9
BRANCH   8  11
HETATM   11  C2  UNL     1       6.717 -23.502  -6.709  1.00  0.00     0.236 C
BRANCH  11  12
HETATM   12  N1  UNL     1       7.767 -24.281  -6.081  1.00  0.00    -0.285 N
HETATM   13  C3  UNL     1       8.179 -23.919  -4.776  1.00  0.00     0.230 C
HETATM   14  O2  UNL     1       7.998 -22.753  -4.430  1.00  0.00    -0.273 OA
HETATM   15  C4  UNL     1       8.809 -24.806  -3.736  1.00  0.00     0.144 C
HETATM   16  C5  UNL     1      10.086 -25.387  -4.197  1.00  0.00    -0.023 A
HETATM   17  C6  UNL     1      11.063 -25.321  -3.226  1.00  0.00     0.010 A
HETATM   18  C10 UNL     1      10.383 -25.954  -5.409  1.00  0.00     0.041 A
HETATM   19  C7  UNL     1      12.349 -25.813  -3.442  1.00  0.00     0.001 A
HETATM   20  C8  UNL     1      12.631 -26.376  -4.669  1.00  0.00     0.002 A
HETATM   21  C9  UNL     1      11.645 -26.442  -5.641  1.00  0.00     0.030 A
HETATM   22  N2  UNL     1       9.516 -26.107  -6.544  1.00  0.00    -0.332 N
HETATM   23  C11 UNL     1       8.361 -25.342  -6.834  1.00  0.00     0.181 C
ATOM     24  H2  UNL     1       9.757 -26.842  -7.209  1.00  0.00     0.168 HD
HETATM   25  S1  UNL     1       7.585 -25.663  -8.249  1.00  0.00    -0.040 SA
ENDBRANCH  11  12
ENDBRANCH   8  11
ENDBRANCH   7   8
ENDBRANCH   1   7
BRANCH   5  26
HETATM   26  C13 UNL     1       2.324 -21.422  -1.273  1.00  0.00     0.317 C
HETATM   27  N6  UNL     1       3.229 -20.755  -0.380  1.00  0.00    -0.355 N
HETATM   28  C14 UNL     1       3.376 -19.444  -0.221  1.00  0.00     0.052 C
ATOM     29  H6  UNL     1       3.824 -21.353   0.194  1.00  0.00     0.162 HD
HETATM   30  C21 UNL     1       2.491 -18.464  -0.806  1.00  0.00     0.013 A
HETATM   31  C22 UNL     1       2.920 -17.130  -1.015  1.00  0.00     0.015 A
HETATM   32  C26 UNL     1       1.363 -18.845  -1.551  1.00  0.00     0.075 A
HETATM   33  C23 UNL     1       2.272 -16.284  -1.885  1.00  0.00     0.001 A
HETATM   34  C24 UNL     1       1.169 -16.725  -2.590  1.00  0.00     0.002 A
HETATM   35  C25 UNL     1       0.734 -18.033  -2.398  1.00  0.00     0.024 A
HETATM   36  S2  UNL     1       0.787 -20.418  -1.076  1.00  0.00     0.216 S
HETATM   37  O4  UNL     1       0.541 -20.335   0.427  1.00  0.00    -0.219 OA
HETATM   38  O5  UNL     1      -0.343 -20.936  -1.820  1.00  0.00    -0.219 OA
BRANCH  28  39
HETATM   39  C15 UNL     1       4.402 -19.098   0.785  1.00  0.00    -0.009 A
HETATM   40  C16 UNL     1       5.654 -18.646   0.586  1.00  0.00     0.014 A
HETATM   41  C17 UNL     1       6.640 -18.440   1.522  1.00  0.00     0.001 A
HETATM   42  C18 UNL     1       6.309 -18.726   2.835  1.00  0.00     0.000 A
HETATM   43  C19 UNL     1       5.019 -19.200   3.129  1.00  0.00     0.001 A
HETATM   44  C20 UNL     1       4.101 -19.381   2.134  1.00  0.00     0.014 A
ENDBRANCH  28  39
ENDBRANCH   5  26
TORSDOF 7
ENDMDL