MODEL 4
REMARK VINA RESULT: -7.313623890      2.664      9.252
REMARK  8 active torsions:
REMARK  status: ('A' for Active; 'I' for Inactive)
REMARK       I    between atoms: N1_3  and  C3_4
REMARK    1  A    between atoms: C3_4  and  C4_6
REMARK    2  A    between atoms: C4_6  and  N2_7
REMARK    3  A    between atoms: C4_6  and  C10_17
REMARK       I    between atoms: N2_7  and  C5_9
REMARK       I    between atoms: C5_9  and  N3_11
REMARK    4  A    between atoms: N3_11  and  C6_13
REMARK    5  A    between atoms: N4_20  and  C13_21
REMARK    6  A    between atoms: C13_21  and  O3_22
REMARK    7  A    between atoms: C13_21  and  C14_24
REMARK    8  A    between atoms: C14_24  and  N5_27
ROOT
HETATM    1  C4  UNL     1       5.972 -23.318  -4.513  1.00  0.00     0.182 C
ENDROOT
BRANCH   1   2
HETATM    2  C3  UNL     1       5.919 -22.063  -3.739  1.00  0.00     0.243 C
HETATM    3  N1  UNL     1       5.204 -21.967  -2.542  1.00  0.00    -0.343 N
HETATM    4  C2  UNL     1       5.123 -20.793  -1.683  1.00  0.00     0.123 C
HETATM    5  C19 UNL     1       4.381 -22.961  -1.912  1.00  0.00     0.130 C
HETATM    6  C1  UNL     1       6.337 -20.821  -0.783  1.00  0.00     0.036 C
HETATM    7  C21 UNL     1       3.837 -20.888  -0.924  1.00  0.00     0.123 C
HETATM    8  C20 UNL     1       3.166 -22.124  -1.478  1.00  0.00     0.066 C
HETATM    9  O4  UNL     1       4.081 -21.148   0.435  1.00  0.00    -0.285 OA
HETATM   10  C28 UNL     1       2.948 -19.724  -1.168  1.00  0.00     0.004 A
HETATM   11  C22 UNL     1       3.329 -20.823   1.561  1.00  0.00     0.363 C
HETATM   12  O5  UNL     1       3.274 -21.616   2.519  1.00  0.00    -0.238 OA
HETATM   13  N6  UNL     1       2.581 -19.633   1.753  1.00  0.00    -0.328 N
HETATM   14  C23 UNL     1       1.529 -19.616   2.754  1.00  0.00     0.155 C
HETATM   15  C24 UNL     1       2.792 -18.388   1.003  1.00  0.00     0.168 C
HETATM   16  C25 UNL     1       2.502 -18.687  -0.402  1.00  0.00    -0.014 A
HETATM   17  C26 UNL     1       1.684 -17.887  -1.167  1.00  0.00     0.097 A
HETATM   18  N7  UNL     1       1.630 -18.434  -2.393  1.00  0.00    -0.374 N
HETATM   19  C27 UNL     1       2.388 -19.549  -2.423  1.00  0.00     0.098 A
ATOM     20  H7  UNL     1       1.098 -18.063  -3.180  1.00  0.00     0.164 HD
HETATM   21  O1  UNL     1       6.535 -21.060  -4.177  1.00  0.00    -0.271 OA
ENDBRANCH   1   2
BRANCH   1  22
HETATM   22  N2  UNL     1       5.278 -23.164  -5.791  1.00  0.00    -0.329 N
HETATM   23  C5  UNL     1       3.991 -23.716  -5.979  1.00  0.00     0.317 C
HETATM   24  O2  UNL     1       3.432 -24.357  -5.023  1.00  0.00    -0.247 OA
HETATM   25  N3  UNL     1       3.277 -23.599  -7.186  1.00  0.00    -0.335 N
ATOM     26  H3  UNL     1       3.698 -23.094  -7.965  1.00  0.00     0.165 HD
ATOM     27  H2  UNL     1       5.726 -22.654  -6.552  1.00  0.00     0.165 HD
BRANCH  25  28
HETATM   28  C6  UNL     1       1.960 -24.176  -7.352  1.00  0.00     0.023 C
HETATM   29  C7  UNL     1       1.460 -23.858  -8.764  1.00  0.00     0.037 C
HETATM   30  C8  UNL     1       0.959 -23.500  -6.407  1.00  0.00     0.037 C
HETATM   31  C9  UNL     1       1.984 -25.658  -7.124  1.00  0.00     0.037 C
ENDBRANCH  25  28
ENDBRANCH   1  22
BRANCH   1  32
HETATM   32  C10 UNL     1       7.410 -23.754  -4.792  1.00  0.00     0.021 C
HETATM   33  C11 UNL     1       8.053 -23.916  -3.432  1.00  0.00     0.027 C
HETATM   34  C12 UNL     1       9.560 -24.106  -3.700  1.00  0.00     0.125 C
HETATM   35  N4  UNL     1       9.682 -25.285  -4.520  1.00  0.00    -0.363 N
HETATM   36  C17 UNL     1       8.445 -25.964  -4.907  1.00  0.00     0.125 C
HETATM   37  C18 UNL     1       7.448 -25.052  -5.553  1.00  0.00     0.027 C
BRANCH  35  38
HETATM   38  C13 UNL     1      10.939 -25.757  -4.935  1.00  0.00     0.149 C
BRANCH  38  39
HETATM   39  O3  UNL     1      11.233 -25.519  -6.179  1.00  0.00    -0.348 OA
ATOM     40  H3  UNL     1      11.789 -26.169  -6.592  1.00  0.00     0.219 HD
ENDBRANCH  38  39
BRANCH  38  41
HETATM   41  C14 UNL     1      11.934 -26.476  -4.131  1.00  0.00     0.180 C
HETATM   42  C15 UNL     1      13.249 -26.648  -4.879  1.00  0.00     0.055 C
HETATM   43  C16 UNL     1      12.169 -25.633  -2.875  1.00  0.00     0.055 C
BRANCH  41  44
HETATM   44  N5  UNL     1      11.514 -27.773  -3.716  1.00  0.00    -0.064 N
ATOM     45  H53 UNL     1      10.573 -27.971  -4.056  1.00  0.00     0.275 HD
ATOM     46  H52 UNL     1      12.034 -28.494  -4.216  1.00  0.00     0.275 HD
ATOM     47  H51 UNL     1      11.571 -27.924  -2.708  1.00  0.00     0.275 HD
ENDBRANCH  41  44
ENDBRANCH  38  41
ENDBRANCH  35  38
ENDBRANCH   1  32
TORSDOF 8
ENDMDL