MODEL 1
REMARK VINA RESULT: -8.446211649      0.000      0.000
REMARK  4 active torsions:
REMARK  status: ('A' for Active; 'I' for Inactive)
REMARK    1  A    between atoms: C9_12  and  C10_13
REMARK    2  A    between atoms: C24_32  and  C25_33
REMARK    3  A    between atoms: C25_33  and  N4_34
REMARK       I    between atoms: N4_34  and  C26_36
REMARK    4  A    between atoms: C27_39  and  O6_40
ROOT
HETATM    1  C1  UNL     1      -0.257 -19.543  -0.653  1.00  0.00     0.019 C
HETATM    2  C2  UNL     1       0.769 -19.846   0.434  1.00  0.00    -0.005 C
HETATM    3  C3  UNL     1       1.194 -18.532   1.032  1.00  0.00     0.019 C
HETATM    4  C4  UNL     1       0.210 -20.790   1.467  1.00  0.00     0.191 C
HETATM    5  O1  UNL     1       1.226 -21.344   2.243  1.00  0.00    -0.303 OA
HETATM    6  C5  UNL     1       2.585 -21.182   2.018  1.00  0.00     0.363 C
HETATM    7  O2  UNL     1       3.406 -21.280   2.949  1.00  0.00    -0.238 OA
HETATM    8  N1  UNL     1       2.982 -20.899   0.668  1.00  0.00    -0.317 N
HETATM    9  C6  UNL     1       1.914 -20.568  -0.253  1.00  0.00     0.100 C
HETATM   10  C7  UNL     1       2.375 -19.779  -1.427  1.00  0.00     0.032 C
HETATM   11  C8  UNL     1       3.763 -20.108  -1.901  1.00  0.00     0.005 C
HETATM   12  C9  UNL     1       4.824 -19.295  -1.215  1.00  0.00     0.081 C
HETATM   13  C11 UNL     1       4.976 -19.638   0.235  1.00  0.00     0.040 C
HETATM   14  C12 UNL     1       4.408 -21.006   0.505  1.00  0.00     0.099 C
HETATM   15  C13 UNL     1       4.779 -22.000  -0.604  1.00  0.00    -0.019 C
HETATM   16  C14 UNL     1       4.252 -23.354  -0.112  1.00  0.00     0.018 C
HETATM   17  C15 UNL     1       6.249 -22.078  -0.666  1.00  0.00     0.012 C
HETATM   18  C16 UNL     1       6.845 -22.485  -1.959  1.00  0.00     0.007 C
HETATM   19  C17 UNL     1       5.855 -22.936  -2.986  1.00  0.00     0.001 C
HETATM   20  C18 UNL     1       4.663 -22.063  -3.117  1.00  0.00    -0.004 C
HETATM   21  C19 UNL     1       3.645 -22.793  -3.991  1.00  0.00     0.006 C
HETATM   22  C20 UNL     1       4.241 -22.993  -5.337  1.00  0.00     0.006 C
HETATM   23  C21 UNL     1       5.565 -23.700  -5.337  1.00  0.00    -0.002 C
HETATM   24  C22 UNL     1       5.335 -25.151  -5.080  1.00  0.00     0.033 C
HETATM   25  C23 UNL     1       6.254 -25.949  -6.015  1.00  0.00     0.233 C
HETATM   26  N3  UNL     1       7.533 -26.030  -5.334  1.00  0.00    -0.067 N
ATOM     27  H31 UNL     1       8.138 -26.769  -5.694  1.00  0.00     0.277 HD
ATOM     28  H32 UNL     1       7.463 -26.381  -4.379  1.00  0.00     0.277 HD
HETATM   29  C24 UNL     1       8.132 -24.689  -5.423  1.00  0.00     0.232 C
HETATM   30  C27 UNL     1       7.772 -23.887  -4.209  1.00  0.00     0.159 C
HETATM   31  C28 UNL     1       6.535 -23.071  -4.336  1.00  0.00    -0.008 C
HETATM   32  C29 UNL     1       6.916 -21.724  -4.917  1.00  0.00     0.018 C
HETATM   33  C30 UNL     1       4.060 -21.602  -1.833  1.00  0.00     0.005 C
ENDROOT
BRANCH  29  34
HETATM   34  C25 UNL     1       9.646 -24.949  -5.435  1.00  0.00     0.161 C
BRANCH  34  35
HETATM   35  N4  UNL     1      10.095 -25.523  -4.215  1.00  0.00    -0.333 N
HETATM   36  C26 UNL     1      11.461 -25.847  -4.046  1.00  0.00     0.283 C
HETATM   37  O4  UNL     1      12.282 -25.629  -4.970  1.00  0.00    -0.630 OA
HETATM   38  O5  UNL     1      11.964 -26.412  -2.874  1.00  0.00    -0.630 OA
ATOM     39  H4  UNL     1       9.431 -25.701  -3.460  1.00  0.00     0.165 HD
ENDBRANCH  34  35
ENDBRANCH  29  34
BRANCH  30  40
HETATM   40  O6  UNL     1       8.862 -23.016  -3.970  1.00  0.00    -0.393 OA
ATOM     41  H6  UNL     1       8.486 -22.188  -3.693  1.00  0.00     0.210 HD
ENDBRANCH  30  40
BRANCH  12  42
HETATM   42  C10 UNL     1       4.449 -17.860  -1.378  1.00  0.00     0.235 C
HETATM   43  N2  UNL     1       4.449 -17.000  -0.243  1.00  0.00    -0.062 NA
HETATM   44  O3  UNL     1       4.129 -17.379  -2.490  1.00  0.00    -0.276 OA
ENDBRANCH  12  42
TORSDOF 4
ENDMDL