MODEL 1
REMARK VINA RESULT: -7.787117307      0.000      0.000
REMARK  6 active torsions:
REMARK  status: ('A' for Active; 'I' for Inactive)
REMARK       I    between atoms: C2_3  and  N2_5
REMARK       I    between atoms: N3_8  and  C5_9
REMARK    1  A    between atoms: C5_9  and  C6_11
REMARK    2  A    between atoms: C9_14  and  C10_15
REMARK    3  A    between atoms: C10_15  and  C11_16
REMARK    4  A    between atoms: C12_17  and  C13_18
REMARK       I    between atoms: N6_28  and  C19_29
REMARK       I    between atoms: C19_29  and  N7_31
REMARK    5  A    between atoms: N7_31  and  C20_33
REMARK    6  A    between atoms: C23_36  and  O4_37
ROOT
HETATM    1  C1  UNL     1      -1.143 -20.647   3.208  1.00  0.00     0.234 C
HETATM    2  N1  UNL     1      -0.191 -19.837   2.650  1.00  0.00    -0.376 NA
HETATM    3  C2  UNL     1       0.750 -19.037   2.099  1.00  0.00     0.394 C
HETATM    4  O1  UNL     1       0.706 -17.787   1.953  1.00  0.00    -0.230 OA
HETATM    5  N2  UNL     1       1.991 -19.608   1.591  1.00  0.00    -0.319 N
HETATM    6  C3  UNL     1       2.178 -21.012   1.757  1.00  0.00     0.148 C
HETATM    7  C4  UNL     1       3.487 -21.501   1.263  1.00  0.00     0.145 C
HETATM    8  N3  UNL     1       3.941 -20.890   0.031  1.00  0.00    -0.349 N
HETATM    9  C5  UNL     1       4.413 -21.699  -0.988  1.00  0.00     0.225 C
HETATM   10  O2  UNL     1       4.425 -22.968  -0.762  1.00  0.00    -0.273 OA
HETATM   11  C28 UNL     1       3.872 -19.466  -0.037  1.00  0.00     0.145 C
HETATM   12  C29 UNL     1       2.972 -18.803   0.951  1.00  0.00     0.148 C
ENDROOT
BRANCH   9  13
HETATM   13  C6  UNL     1       4.925 -21.301  -2.344  1.00  0.00     0.090 C
HETATM   14  C7  UNL     1       3.872 -21.785  -3.376  1.00  0.00     0.096 C
HETATM   15  C8  UNL     1       4.397 -22.753  -4.221  1.00  0.00    -0.155 C
HETATM   16  C9  UNL     1       5.230 -23.655  -4.975  1.00  0.00     0.176 C
HETATM   17  N6  UNL     1       6.610 -23.410  -4.428  1.00  0.00    -0.318 N
HETATM   18  C19 UNL     1       7.515 -24.445  -4.364  1.00  0.00     0.319 C
HETATM   19  C26 UNL     1       6.956 -22.144  -3.802  1.00  0.00     0.130 C
HETATM   20  O3  UNL     1       7.012 -25.630  -4.405  1.00  0.00    -0.247 OA
HETATM   21  N7  UNL     1       8.906 -24.332  -4.272  1.00  0.00    -0.338 N
ATOM     22  H7  UNL     1       9.288 -23.386  -4.266  1.00  0.00     0.164 HD
HETATM   23  C27 UNL     1       6.278 -21.918  -2.471  1.00  0.00     0.035 C
BRANCH  16  24
HETATM   24  C10 UNL     1       5.250 -23.308  -6.458  1.00  0.00     0.054 C
HETATM   25  C16 UNL     1       5.847 -21.956  -6.773  1.00  0.00     0.026 C
HETATM   26  C17 UNL     1       4.719 -21.646  -7.731  1.00  0.00     0.004 C
HETATM   27  C18 UNL     1       4.031 -22.896  -7.134  1.00  0.00     0.026 C
BRANCH  24  28
HETATM   28  C11 UNL     1       6.003 -24.331  -7.257  1.00  0.00    -0.086 C
HETATM   29  C12 UNL     1       6.618 -25.180  -7.842  1.00  0.00    -0.046 C
BRANCH  29  30
HETATM   30  C13 UNL     1       7.366 -26.225  -8.496  1.00  0.00     0.102 A
HETATM   31  C14 UNL     1       7.874 -27.365  -7.844  1.00  0.00     0.059 A
HETATM   32  C15 UNL     1       8.514 -28.162  -8.759  1.00  0.00     0.110 A
HETATM   33  N4  UNL     1       8.404 -27.531  -9.927  1.00  0.00    -0.311 N
HETATM   34  N5  UNL     1       7.724 -26.383  -9.779  1.00  0.00    -0.293 N
ATOM     35  H4  UNL     1       8.783 -27.874 -10.810  1.00  0.00     0.186 HD
ATOM     36  H5  UNL     1       7.511 -25.727 -10.531  1.00  0.00     0.187 HD
ENDBRANCH  29  30
ENDBRANCH  24  28
ENDBRANCH  16  24
BRANCH  21  37
HETATM   37  C20 UNL     1       9.854 -25.411  -4.185  1.00  0.00     0.086 C
HETATM   38  C21 UNL     1      10.982 -24.978  -3.282  1.00  0.00     0.028 C
HETATM   39  C22 UNL     1      11.917 -26.129  -3.036  1.00  0.00     0.034 C
HETATM   40  C23 UNL     1      12.511 -26.556  -4.355  1.00  0.00     0.118 C
HETATM   41  C24 UNL     1      11.476 -26.806  -5.415  1.00  0.00     0.034 C
HETATM   42  C25 UNL     1      10.518 -25.623  -5.553  1.00  0.00     0.028 C
BRANCH  40  43
HETATM   43  O4  UNL     1      13.398 -25.616  -4.796  1.00  0.00    -0.396 OA
ATOM     44  H4  UNL     1      13.620 -25.779  -5.705  1.00  0.00     0.210 HD
ENDBRANCH  40  43
ENDBRANCH  21  37
ENDBRANCH   9  13
TORSDOF 5
ENDMDL