MODEL 5
REMARK VINA RESULT: -7.262140187      1.364      1.510
REMARK  9 active torsions:
REMARK  status: ('A' for Active; 'I' for Inactive)
REMARK    1  A    between atoms: N1_2  and  C2_4
REMARK    2  A    between atoms: C2_4  and  O1_5
REMARK    3  A    between atoms: C2_4  and  C3_7
REMARK    4  A    between atoms: C3_7  and  N2_8
REMARK       I    between atoms: N2_8  and  C4_10
REMARK    5  A    between atoms: C4_10  and  C5_12
REMARK    6  A    between atoms: N5_30  and  C16_31
REMARK    7  A    between atoms: C16_31  and  O5_32
REMARK    8  A    between atoms: C16_31  and  C17_34
REMARK    9  A    between atoms: C24_41  and  C25_42
ROOT
HETATM    1  C3  UNL     1       4.885 -23.587  -4.492  1.00  0.00     0.102 C
HETATM    2  C12 UNL     1       5.947 -22.553  -3.938  1.00  0.00     0.050 C
HETATM    3  C13 UNL     1       5.563 -22.167  -2.583  1.00  0.00    -0.034 C
HETATM    4  C14 UNL     1       6.753 -22.371  -1.662  1.00  0.00     0.029 C
HETATM    5  C15 UNL     1       6.517 -21.949  -0.254  1.00  0.00     0.125 C
HETATM    6  N5  UNL     1       5.908 -20.676  -0.149  1.00  0.00    -0.365 N
HETATM    7  C21 UNL     1       4.813 -20.351  -1.102  1.00  0.00     0.125 C
HETATM    8  C22 UNL     1       5.204 -20.688  -2.492  1.00  0.00     0.029 C
HETATM    9  C23 UNL     1       4.447 -23.040  -2.136  1.00  0.00     0.018 C
HETATM   10  C24 UNL     1       4.136 -23.956  -3.294  1.00  0.00     0.030 C
ENDROOT
BRANCH   1  11
HETATM   11  C2  UNL     1       4.180 -23.018  -5.609  1.00  0.00     0.140 C
BRANCH  11  12
HETATM   12  N1  UNL     1       3.441 -23.611  -6.641  1.00  0.00    -0.377 N
HETATM   13  C1  UNL     1       3.236 -22.930  -7.938  1.00  0.00     0.148 C
ATOM     14  H1  UNL     1       3.033 -24.534  -6.493  1.00  0.00     0.160 HD
ENDBRANCH  11  12
BRANCH  11  15
HETATM   15  O1  UNL     1       4.232 -21.718  -5.685  1.00  0.00    -0.348 OA
ATOM     16  H1  UNL     1       4.819 -21.323  -5.051  1.00  0.00     0.219 HD
ENDBRANCH  11  15
ENDBRANCH   1  11
BRANCH   1  17
HETATM   17  N2  UNL     1       5.820 -24.592  -4.914  1.00  0.00    -0.337 N
HETATM   18  C4  UNL     1       6.654 -24.438  -6.078  1.00  0.00     0.287 C
HETATM   19  O2  UNL     1       6.593 -23.497  -6.861  1.00  0.00    -0.264 OA
ATOM     20  H2  UNL     1       5.897 -25.450  -4.367  1.00  0.00     0.164 HD
BRANCH  18  21
HETATM   21  C5  UNL     1       7.607 -25.573  -6.237  1.00  0.00     0.184 C
HETATM   22  N3  UNL     1       7.115 -26.681  -6.953  1.00  0.00    -0.336 N
HETATM   23  C6  UNL     1       7.971 -27.813  -7.155  1.00  0.00     0.057 A
ATOM     24  H3  UNL     1       6.164 -26.678  -7.323  1.00  0.00     0.168 HD
HETATM   25  C7  UNL     1       7.470 -28.890  -7.840  1.00  0.00     0.031 A
HETATM   26  C11 UNL     1       9.285 -27.856  -6.756  1.00  0.00     0.106 A
HETATM   27  C8  UNL     1       8.277 -29.971  -8.121  1.00  0.00     0.002 A
HETATM   28  C9  UNL     1       9.611 -29.996  -7.716  1.00  0.00     0.002 A
HETATM   29  C10 UNL     1      10.136 -28.926  -7.018  1.00  0.00     0.027 A
HETATM   30  S1  UNL     1       9.891 -26.553  -5.722  1.00  0.00     0.266 S
HETATM   31  O3  UNL     1      10.615 -25.577  -6.553  1.00  0.00    -0.200 OA
HETATM   32  O4  UNL     1      10.674 -27.131  -4.594  1.00  0.00    -0.200 OA
HETATM   33  N4  UNL     1       8.429 -25.804  -5.107  1.00  0.00    -0.261 N
ATOM     34  H4  UNL     1       8.215 -25.580  -4.134  1.00  0.00     0.180 HD
ENDBRANCH  18  21
ENDBRANCH   1  17
BRANCH  10  35
HETATM   35  C25 UNL     1       2.693 -24.219  -3.277  1.00  0.00    -0.045 C
HETATM   36  C26 UNL     1       2.167 -25.325  -4.130  1.00  0.00     0.015 C
HETATM   37  C27 UNL     1       2.377 -24.672  -1.831  1.00  0.00     0.015 C
HETATM   38  C28 UNL     1       1.848 -22.965  -3.472  1.00  0.00     0.015 C
ENDBRANCH  10  35
BRANCH   6  39
HETATM   39  C16 UNL     1       6.271 -19.550   0.641  1.00  0.00     0.121 C
BRANCH  39  40
HETATM   40  O5  UNL     1       7.504 -19.119   0.512  1.00  0.00    -0.349 OA
ATOM     41  H5  UNL     1       7.796 -18.931  -0.373  1.00  0.00     0.219 HD
ENDBRANCH  39  40
BRANCH  39  42
HETATM   42  C17 UNL     1       5.483 -18.787   1.605  1.00  0.00     0.014 C
HETATM   43  C18 UNL     1       4.987 -17.512   0.797  1.00  0.00     0.023 C
HETATM   44  C19 UNL     1       6.402 -18.197   2.676  1.00  0.00     0.023 C
HETATM   45  C20 UNL     1       4.259 -19.408   2.128  1.00  0.00     0.023 C
ENDBRANCH  39  42
ENDBRANCH   6  39
TORSDOF 9
ENDMDL