MODEL 2
REMARK VINA RESULT: -8.161243467      3.023      5.377
REMARK  9 active torsions:
REMARK  status: ('A' for Active; 'I' for Inactive)
REMARK       I    between atoms: N1_2  and  C2_4
REMARK    1  A    between atoms: C2_4  and  C3_6
REMARK       I    between atoms: C3_6  and  N2_8
REMARK    2  A    between atoms: N2_8  and  C4_10
REMARK    3  A    between atoms: C10_19  and  N4_20
REMARK    4  A    between atoms: N4_20  and  C11_22
REMARK    5  A    between atoms: C11_22  and  O4_23
REMARK    6  A    between atoms: C11_22  and  C12_25
REMARK    7  A    between atoms: C15_28  and  C16_29
REMARK    8  A    between atoms: C17_30  and  C18_31
REMARK    9  A    between atoms: C23_37  and  O5_38
ROOT
HETATM    1  N4  UNL     1       4.527 -20.976  -2.451  1.00  0.00    -0.322 N
ATOM      2  H4  UNL     1       3.605 -21.268  -2.776  1.00  0.00     0.169 HD
ENDROOT
BRANCH   1   3
HETATM    3  C10 UNL     1       5.560 -21.771  -2.959  1.00  0.00     0.109 A
HETATM    4  C9  UNL     1       6.585 -22.292  -2.202  1.00  0.00     0.051 A
HETATM    5  C8  UNL     1       7.591 -23.084  -2.683  1.00  0.00     0.036 A
HETATM    6  C7  UNL     1       7.568 -23.379  -4.026  1.00  0.00     0.082 A
HETATM    7  C6  UNL     1       6.539 -22.870  -4.847  1.00  0.00     0.132 A
HETATM    8  N6  UNL     1       8.504 -24.175  -4.575  1.00  0.00    -0.189 N
HETATM    9  C5  UNL     1       6.557 -23.224  -6.166  1.00  0.00     0.288 A
HETATM   10  N5  UNL     1       5.565 -22.079  -4.300  1.00  0.00    -0.331 N
HETATM   11  N3  UNL     1       7.530 -24.023  -6.629  1.00  0.00    -0.154 N
HETATM   12  O3  UNL     1       5.714 -22.846  -6.975  1.00  0.00    -0.265 OA
HETATM   13  C4  UNL     1       8.521 -24.525  -5.886  1.00  0.00     0.688 A
ATOM     14  H3  UNL     1       7.511 -24.264  -7.620  1.00  0.00     0.187 HD
HETATM   15  C29 UNL     1       4.596 -21.520  -5.180  1.00  0.00     0.158 C
ATOM     16  H6  UNL     1       9.243 -24.537  -3.971  1.00  0.00     0.184 HD
BRANCH  13  17
HETATM   17  N2  UNL     1       9.409 -25.280  -6.377  1.00  0.00    -0.151 N
HETATM   18  C3  UNL     1      10.339 -26.021  -5.621  1.00  0.00     0.327 C
HETATM   19  O2  UNL     1      11.571 -25.682  -5.605  1.00  0.00    -0.261 OA
ATOM     20  H2  UNL     1       9.455 -25.358  -7.394  1.00  0.00     0.188 HD
BRANCH  18  21
HETATM   21  C2  UNL     1       9.873 -27.174  -4.860  1.00  0.00     0.309 C
HETATM   22  N1  UNL     1       9.970 -28.459  -5.522  1.00  0.00    -0.357 N
HETATM   23  C1  UNL     1       9.518 -29.618  -4.791  1.00  0.00     0.149 C
ATOM     24  H1  UNL     1      10.345 -28.542  -6.467  1.00  0.00     0.162 HD
HETATM   25  O1  UNL     1       9.416 -27.108  -3.714  1.00  0.00    -0.262 OA
ENDBRANCH  18  21
ENDBRANCH  13  17
ENDBRANCH   1   3
BRANCH   1  26
HETATM   26  C11 UNL     1       4.476 -19.891  -1.611  1.00  0.00     0.151 C
BRANCH  26  27
HETATM   27  O4  UNL     1       5.474 -19.043  -1.714  1.00  0.00    -0.345 OA
ATOM     28  H4  UNL     1       6.124 -19.087  -1.023  1.00  0.00     0.219 HD
ENDBRANCH  26  27
BRANCH  26  29
HETATM   29  C12 UNL     1       3.531 -19.484  -0.614  1.00  0.00     0.015 A
HETATM   30  C13 UNL     1       3.646 -19.893   0.716  1.00  0.00     0.017 A
HETATM   31  C14 UNL     1       2.774 -19.478   1.691  1.00  0.00     0.021 A
HETATM   32  C15 UNL     1       1.737 -18.632   1.399  1.00  0.00     0.018 A
HETATM   33  C27 UNL     1       1.588 -18.205   0.098  1.00  0.00     0.021 A
HETATM   34  C28 UNL     1       2.461 -18.621  -0.881  1.00  0.00     0.017 A
BRANCH  32  35
HETATM   35  C16 UNL     1       0.828 -18.187   2.442  1.00  0.00    -0.061 C
HETATM   36  C17 UNL     1       0.071 -17.796   3.283  1.00  0.00    -0.053 C
BRANCH  36  37
HETATM   37  C18 UNL     1      -0.862 -17.287   4.292  1.00  0.00     0.069 A
HETATM   38  S1  UNL     1      -2.128 -18.113   5.079  1.00  0.00    -0.091 SA
HETATM   39  C19 UNL     1      -2.714 -16.846   6.056  1.00  0.00     0.063 A
HETATM   40  C20 UNL     1      -1.889 -15.796   5.732  1.00  0.00    -0.017 A
HETATM   41  C21 UNL     1      -1.993 -14.510   6.297  1.00  0.00     0.015 A
HETATM   42  C26 UNL     1      -0.936 -16.023   4.824  1.00  0.00     0.003 A
HETATM   43  C22 UNL     1      -1.151 -13.486   5.949  1.00  0.00     0.037 A
HETATM   44  C23 UNL     1      -0.165 -13.706   5.016  1.00  0.00     0.069 A
HETATM   45  C25 UNL     1      -0.074 -14.965   4.473  1.00  0.00     0.051 A
BRANCH  44  46
HETATM   46  O5  UNL     1       0.698 -12.680   4.653  1.00  0.00    -0.356 OA
HETATM   47  C24 UNL     1       1.086 -11.639   5.502  1.00  0.00     0.210 C
ENDBRANCH  44  46
ENDBRANCH  36  37
ENDBRANCH  32  35
ENDBRANCH  26  29
ENDBRANCH   1  26
TORSDOF 9
ENDMDL