MODEL 5
REMARK VINA RESULT: -7.035007777      3.365      6.354
REMARK  8 active torsions:
REMARK  status: ('A' for Active; 'I' for Inactive)
REMARK    1  A    between atoms: C2_2  and  C4_4
REMARK    2  A    between atoms: C5_5  and  C6_6
REMARK    3  A    between atoms: C16_16  and  O1_17
REMARK    4  A    between atoms: C17_19  and  N1_20
REMARK    5  A    between atoms: N1_20  and  N2_22
REMARK       I    between atoms: N2_22  and  C19_24
REMARK       I    between atoms: C19_24  and  N3_26
REMARK    6  A    between atoms: N3_26  and  C20_28
REMARK    7  A    between atoms: C20_28  and  C21_29
REMARK    8  A    between atoms: C29_42  and  N5_43
REMARK       I    between atoms: N5_43  and  C30_45
ROOT
HETATM    1  C6  UNL     1      20.388  -8.512  15.266  1.00  0.00     0.040 A
HETATM    2  C7  UNL     1      20.374  -9.827  15.905  1.00  0.00     0.024 C
HETATM    3  C8  UNL     1      21.016 -10.967  15.127  1.00  0.00     0.007 C
HETATM    4  C9  UNL     1      20.684 -11.106  13.692  1.00  0.00    -0.001 C
HETATM    5  C10 UNL     1      20.778  -9.609  13.254  1.00  0.00    -0.003 C
HETATM    6  C11 UNL     1      20.687  -9.648  11.762  1.00  0.00     0.006 C
HETATM    7  C12 UNL     1      19.193  -9.882  11.554  1.00  0.00     0.006 C
HETATM    8  C13 UNL     1      18.794 -11.223  12.029  1.00  0.00     0.001 C
HETATM    9  C14 UNL     1      17.313 -11.471  12.189  1.00  0.00     0.023 C
HETATM   10  C15 UNL     1      16.446 -10.381  11.738  1.00  0.00     0.041 C
HETATM   11  C16 UNL     1      15.640  -9.658  12.798  1.00  0.00     0.150 C
HETATM   12  C17 UNL     1      16.069  -8.308  13.253  1.00  0.00     0.208 C
HETATM   13  C25 UNL     1      16.825  -8.371  14.578  1.00  0.00     0.221 C
HETATM   14  O3  UNL     1      16.265  -9.240  15.348  1.00  0.00    -0.287 OA
HETATM   15  C26 UNL     1      17.970  -7.635  14.999  1.00  0.00     0.203 C
HETATM   16  O4  UNL     1      17.883  -6.715  15.906  1.00  0.00    -0.289 OA
HETATM   17  C27 UNL     1      19.410  -7.749  14.536  1.00  0.00     0.091 A
HETATM   18  C28 UNL     1      19.732  -8.921  13.894  1.00  0.00     0.025 A
HETATM   19  C29 UNL     1      17.156 -12.883  11.741  1.00  0.00     0.159 C
HETATM   20  C32 UNL     1      18.381 -13.667  12.081  1.00  0.00     0.154 C
HETATM   21  O6  UNL     1      18.317 -14.873  11.805  1.00  0.00    -0.295 OA
HETATM   22  C33 UNL     1      19.680 -13.244  12.702  1.00  0.00     0.062 C
HETATM   23  C34 UNL     1      20.811 -13.371  11.756  1.00  0.00     0.018 C
HETATM   24  C35 UNL     1      19.462 -11.798  13.238  1.00  0.00    -0.026 C
HETATM   25  C36 UNL     1      18.642 -12.187  14.423  1.00  0.00     0.016 C
ENDROOT
BRANCH  12  26
HETATM   26  N1  UNL     1      14.948  -7.468  13.379  1.00  0.00    -0.313 N
HETATM   27  C18 UNL     1      15.208  -6.059  13.232  1.00  0.00     0.172 C
BRANCH  26  28
HETATM   28  N2  UNL     1      14.031  -7.669  14.360  1.00  0.00    -0.253 N
HETATM   29  C19 UNL     1      12.679  -7.297  14.451  1.00  0.00     0.334 C
HETATM   30  O2  UNL     1      12.083  -6.687  13.562  1.00  0.00    -0.246 OA
HETATM   31  N3  UNL     1      11.895  -7.617  15.625  1.00  0.00    -0.340 N
ATOM     32  H3  UNL     1      12.350  -8.114  16.391  1.00  0.00     0.164 HD
ATOM     33  H2  UNL     1      14.383  -8.177  15.170  1.00  0.00     0.191 HD
BRANCH  31  34
HETATM   34  C20 UNL     1      10.512  -7.272  15.763  1.00  0.00     0.157 C
BRANCH  34  35
HETATM   35  C21 UNL     1       9.658  -8.482  15.464  1.00  0.00     0.203 C
HETATM   36  C22 UNL     1       8.981  -8.385  14.112  1.00  0.00     0.036 C
HETATM   37  C23 UNL     1       7.646  -9.089  14.321  1.00  0.00     0.029 C
HETATM   38  C24 UNL     1       7.589  -9.474  15.766  1.00  0.00     0.233 C
HETATM   39  N4  UNL     1       8.570  -8.596  16.405  1.00  0.00    -0.069 N
ATOM     40  H42 UNL     1       8.861  -8.911  17.331  1.00  0.00     0.277 HD
ATOM     41  H41 UNL     1       8.187  -7.698  16.699  1.00  0.00     0.277 HD
ENDBRANCH  34  35
ENDBRANCH  31  34
ENDBRANCH  26  28
ENDBRANCH  12  26
BRANCH  11  42
HETATM   42  O1  UNL     1      14.303  -9.601  12.318  1.00  0.00    -0.393 OA
ATOM     43  H1  UNL     1      14.305  -8.987  11.593  1.00  0.00     0.210 HD
ENDBRANCH  11  42
BRANCH  19  44
HETATM   44  N5  UNL     1      16.950 -12.873  10.289  1.00  0.00    -0.350 N
HETATM   45  C30 UNL     1      15.709 -13.203   9.710  1.00  0.00     0.214 C
HETATM   46  C31 UNL     1      15.529 -13.185   8.236  1.00  0.00     0.117 C
HETATM   47  O5  UNL     1      14.711 -13.523  10.430  1.00  0.00    -0.274 OA
ATOM     48  H5  UNL     1      17.729 -12.621   9.680  1.00  0.00     0.163 HD
ENDBRANCH  19  44
BRANCH   1  49
HETATM   49  C5  UNL     1      21.763  -7.990  15.175  1.00  0.00    -0.090 C
HETATM   50  C4  UNL     1      22.895  -7.531  15.104  1.00  0.00    -0.072 C
BRANCH  50  51
HETATM   51  C2  UNL     1      24.228  -6.991  14.994  1.00  0.00    -0.018 C
HETATM   52  C1  UNL     1      25.172  -7.689  14.413  1.00  0.00     0.028 C
HETATM   53  C3  UNL     1      24.565  -5.642  15.529  1.00  0.00     0.057 C
ENDBRANCH  50  51
ENDBRANCH   1  49
TORSDOF 8
ENDMDL