MODEL 5
REMARK VINA RESULT: -8.085178993      0.923      1.352
REMARK  8 active torsions:
REMARK  status: ('A' for Active; 'I' for Inactive)
REMARK       I    between atoms: C2_2  and  N1_4
REMARK    1  A    between atoms: N2_7  and  C5_8
REMARK    2  A    between atoms: C5_8  and  O2_9
REMARK    3  A    between atoms: N3_11  and  C6_13
REMARK    4  A    between atoms: C6_13  and  N6_46
REMARK    5  A    between atoms: C7_14  and  C8_15
REMARK    6  A    between atoms: C8_15  and  N4_16
REMARK    7  A    between atoms: C8_15  and  C16_27
REMARK       I    between atoms: N4_16  and  C9_18
REMARK       I    between atoms: C9_18  and  N5_20
REMARK    8  A    between atoms: C16_27  and  O4_28
ROOT
HETATM    1  N6  UNL     1      12.371  -8.441  16.382  1.00  0.00    -0.279 N
ATOM      2  H6  UNL     1      12.009  -7.495  16.262  1.00  0.00     0.179 HD
HETATM    3  C32 UNL     1      12.965  -8.845  17.611  1.00  0.00     0.183 C
HETATM    4  N7  UNL     1      13.453  -9.163  18.624  1.00  0.00    -0.172 NA
ENDROOT
BRANCH   1   5
HETATM    5  C6  UNL     1      12.296  -9.386  15.331  1.00  0.00     0.115 C
HETATM    6  C7  UNL     1      11.174  -9.982  14.987  1.00  0.00     0.050 C
BRANCH   5   7
HETATM    7  N3  UNL     1      13.457  -9.684  14.587  1.00  0.00    -0.308 N
HETATM    8  C5  UNL     1      14.362  -8.891  14.186  1.00  0.00     0.220 C
ATOM      9  H3  UNL     1      13.586 -10.665  14.340  1.00  0.00     0.171 HD
BRANCH   8  10
HETATM   10  N2  UNL     1      14.493  -7.504  14.352  1.00  0.00    -0.344 N
HETATM   11  C4  UNL     1      13.780  -6.574  13.535  1.00  0.00     0.146 C
HETATM   12  C3  UNL     1      14.680  -5.511  12.965  1.00  0.00     0.145 C
HETATM   13  N1  UNL     1      16.028  -5.675  13.424  1.00  0.00    -0.349 N
HETATM   14  C2  UNL     1      17.112  -5.641  12.538  1.00  0.00     0.215 C
HETATM   15  C34 UNL     1      16.268  -5.889  14.847  1.00  0.00     0.145 C
HETATM   16  C1  UNL     1      18.528  -5.786  12.951  1.00  0.00     0.117 C
HETATM   17  O1  UNL     1      16.862  -5.474  11.298  1.00  0.00    -0.274 OA
HETATM   18  C33 UNL     1      15.390  -6.996  15.381  1.00  0.00     0.146 C
ENDBRANCH   8  10
BRANCH   8  19
HETATM   19  O2  UNL     1      15.458  -9.463  13.432  1.00  0.00    -0.332 OA
ATOM     20  H2  UNL     1      16.269  -8.980  13.544  1.00  0.00     0.220 HD
ENDBRANCH   8  19
ENDBRANCH   5   7
BRANCH   6  21
HETATM   21  C8  UNL     1       9.857  -9.727  15.728  1.00  0.00     0.147 C
BRANCH  21  22
HETATM   22  N4  UNL     1       8.858  -9.302  14.797  1.00  0.00    -0.332 N
HETATM   23  C9  UNL     1       8.928  -8.064  14.137  1.00  0.00     0.318 C
HETATM   24  O3  UNL     1       9.946  -7.329  14.381  1.00  0.00    -0.247 OA
HETATM   25  N5  UNL     1       7.969  -7.583  13.239  1.00  0.00    -0.334 N
HETATM   26  C10 UNL     1       6.717  -8.243  12.894  1.00  0.00     0.128 C
HETATM   27  C15 UNL     1       8.221  -6.310  12.556  1.00  0.00     0.128 C
HETATM   28  C11 UNL     1       5.625  -7.306  13.429  1.00  0.00     0.024 C
HETATM   29  C12 UNL     1       5.813  -5.959  12.802  1.00  0.00    -0.015 C
HETATM   30  C13 UNL     1       4.546  -5.551  12.104  1.00  0.00     0.010 C
HETATM   31  C14 UNL     1       6.949  -5.937  11.810  1.00  0.00     0.024 C
ATOM     32  H4  UNL     1       8.069  -9.919  14.605  1.00  0.00     0.165 HD
ENDBRANCH  21  22
BRANCH  21  33
HETATM   33  C16 UNL     1       9.556 -10.975  16.446  1.00  0.00     0.084 C
HETATM   34  C17 UNL     1       8.187 -10.892  17.170  1.00  0.00     0.072 C
HETATM   35  C18 UNL     1       8.242 -12.277  17.869  1.00  0.00     0.130 C
HETATM   36  O5  UNL     1       7.170 -12.195  18.741  1.00  0.00    -0.374 OA
HETATM   37  C30 UNL     1       9.599 -12.529  18.179  1.00  0.00     0.022 C
HETATM   38  C19 UNL     1       7.456 -12.865  19.837  1.00  0.00     0.062 C
HETATM   39  C20 UNL     1       7.593 -14.290  19.488  1.00  0.00     0.043 C
HETATM   40  C22 UNL     1       6.613 -13.417  20.911  1.00  0.00     0.043 C
HETATM   41  C27 UNL     1       8.440 -12.048  20.559  1.00  0.00     0.044 C
HETATM   42  C21 UNL     1       7.669 -14.539  20.949  1.00  0.00    -0.001 C
HETATM   43  C23 UNL     1       9.033 -14.141  21.382  1.00  0.00    -0.040 C
HETATM   44  C24 UNL     1       8.936 -13.896  22.894  1.00  0.00     0.015 C
HETATM   45  C25 UNL     1       9.923 -15.360  21.223  1.00  0.00     0.015 C
HETATM   46  C26 UNL     1       9.624 -12.956  20.722  1.00  0.00     0.001 C
HETATM   47  C28 UNL     1      10.228 -13.074  19.380  1.00  0.00    -0.007 C
HETATM   48  C29 UNL     1      11.630 -12.449  19.501  1.00  0.00     0.011 C
HETATM   49  C31 UNL     1      10.378 -11.280  17.672  1.00  0.00     0.048 C
BRANCH  33  50
HETATM   50  O4  UNL     1       9.402 -12.062  15.588  1.00  0.00    -0.387 OA
ATOM     51  H4  UNL     1      10.221 -12.517  15.426  1.00  0.00     0.210 HD
ENDBRANCH  33  50
ENDBRANCH  21  33
ENDBRANCH   6  21
ENDBRANCH   1   5
TORSDOF 8
ENDMDL