MODEL 1
REMARK VINA RESULT: -8.326027475      0.000      0.000
REMARK  10 active torsions:
REMARK  status: ('A' for Active; 'I' for Inactive)
REMARK    1  A    between atoms: C2_2  and  C5_5
REMARK    2  A    between atoms: C8_8  and  C9_9
REMARK    3  A    between atoms: C10_10  and  C11_11
REMARK    4  A    between atoms: C13_13  and  C14_14
REMARK    5  A    between atoms: C15_15  and  C16_16
REMARK    6  A    between atoms: N3_24  and  C20_25
REMARK    7  A    between atoms: C20_25  and  C21_26
REMARK    8  A    between atoms: C21_26  and  O2_27
REMARK    9  A    between atoms: C23_30  and  C24_31
REMARK       I    between atoms: C24_31  and  N4_33
REMARK   10  A    between atoms: N5_36  and  C27_37
REMARK       I    between atoms: N6_41  and  C31_42
ROOT
HETATM    1  C5  UNL     1      16.929  -7.505  14.152  1.00  0.00    -0.050 A
HETATM    2  C6  UNL     1      16.062  -6.485  14.526  1.00  0.00     0.009 A
HETATM    3  C7  UNL     1      14.743  -6.809  14.688  1.00  0.00     0.022 A
HETATM    4  C8  UNL     1      14.226  -8.098  14.496  1.00  0.00     0.033 A
HETATM    5  C23 UNL     1      15.108  -9.077  14.126  1.00  0.00     0.051 A
HETATM    6  C36 UNL     1      16.466  -8.786  13.952  1.00  0.00     0.026 A
ENDROOT
BRANCH   4   7
HETATM    7  C9  UNL     1      12.828  -8.344  14.735  1.00  0.00    -0.060 C
HETATM    8  C10 UNL     1      11.624  -8.495  14.934  1.00  0.00    -0.059 C
BRANCH   8   9
HETATM    9  C11 UNL     1      10.192  -8.570  15.153  1.00  0.00     0.048 A
HETATM   10  C12 UNL     1       9.382  -7.793  14.299  1.00  0.00     0.043 A
HETATM   11  C13 UNL     1       8.021  -7.774  14.433  1.00  0.00     0.021 A
HETATM   12  C17 UNL     1       7.491  -8.543  15.433  1.00  0.00     0.052 A
HETATM   13  C18 UNL     1       8.275  -9.306  16.274  1.00  0.00     0.063 A
HETATM   14  N2  UNL     1       8.006 -10.117  17.311  1.00  0.00    -0.350 N
HETATM   15  C22 UNL     1       9.671  -9.334  16.143  1.00  0.00     0.081 A
HETATM   16  C19 UNL     1       9.132 -10.609  17.785  1.00  0.00     0.184 A
ATOM     17  H2  UNL     1       7.074 -10.319  17.675  1.00  0.00     0.166 HD
HETATM   18  N3  UNL     1      10.205 -10.132  17.064  1.00  0.00    -0.338 N
BRANCH  11  19
HETATM   19  C14 UNL     1       7.195  -6.972  13.539  1.00  0.00    -0.057 C
HETATM   20  C15 UNL     1       6.528  -6.292  12.806  1.00  0.00    -0.003 C
BRANCH  20  21
HETATM   21  C16 UNL     1       5.754  -5.464  11.942  1.00  0.00     0.309 C
HETATM   22  N1  UNL     1       4.378  -5.184  12.064  1.00  0.00    -0.049 NA
HETATM   23  O1  UNL     1       6.334  -4.902  10.945  1.00  0.00    -0.262 OA
ENDBRANCH  20  21
ENDBRANCH  11  19
BRANCH  18  24
HETATM   24  C20 UNL     1      11.559 -10.552  17.329  1.00  0.00     0.156 C
BRANCH  24  25
HETATM   25  C21 UNL     1      12.200  -9.828  18.476  1.00  0.00     0.184 C
BRANCH  25  26
HETATM   26  O2  UNL     1      12.157  -8.468  18.325  1.00  0.00    -0.399 OA
ATOM     27  H2  UNL     1      12.702  -8.166  17.609  1.00  0.00     0.209 HD
ENDBRANCH  25  26
ENDBRANCH  24  25
ENDBRANCH  18  24
ENDBRANCH   8   9
ENDBRANCH   4   7
BRANCH   5  28
HETATM   28  C24 UNL     1      14.640 -10.436  13.893  1.00  0.00     0.255 C
HETATM   29  O3  UNL     1      14.366 -11.172  14.872  1.00  0.00    -0.267 OA
HETATM   30  N4  UNL     1      14.484 -10.961  12.569  1.00  0.00    -0.345 N
HETATM   31  C25 UNL     1      14.805 -10.153  11.410  1.00  0.00     0.156 C
HETATM   32  C35 UNL     1      13.979 -12.296  12.368  1.00  0.00     0.156 C
HETATM   33  C26 UNL     1      15.481 -11.000  10.380  1.00  0.00     0.293 C
HETATM   34  N5  UNL     1      14.816 -12.261  10.106  1.00  0.00     0.101 N
HETATM   35  C34 UNL     1      14.730 -13.067  11.315  1.00  0.00     0.293 C
BRANCH  34  36
HETATM   36  C27 UNL     1      15.510 -12.974   9.040  1.00  0.00     0.159 C
HETATM   37  C28 UNL     1      15.197 -12.285   7.734  1.00  0.00     0.049 C
HETATM   38  C29 UNL     1      14.920 -14.366   8.952  1.00  0.00     0.061 C
HETATM   39  C30 UNL     1      15.474 -15.132   7.766  1.00  0.00     0.128 C
HETATM   40  N6  UNL     1      16.866 -14.888   7.543  1.00  0.00    -0.356 N
HETATM   41  C31 UNL     1      17.587 -15.808   6.721  1.00  0.00     0.183 C
HETATM   42  C32 UNL     1      17.603 -13.777   8.091  1.00  0.00     0.128 C
HETATM   43  N7  UNL     1      17.254 -17.018   6.504  1.00  0.00    -0.374 N
HETATM   44  N8  UNL     1      18.782 -15.334   6.088  1.00  0.00    -0.064 NA
ATOM     45  H72 UNL     1      16.404 -17.356   6.955  1.00  0.00     0.158 HD
ATOM     46  H71 UNL     1      17.769 -17.675   5.918  1.00  0.00     0.158 HD
HETATM   47  C33 UNL     1      16.978 -13.156   9.303  1.00  0.00     0.061 C
ENDBRANCH  34  36
ENDBRANCH   5  28
BRANCH   1  48
HETATM   48  C2  UNL     1      18.354  -7.106  14.010  1.00  0.00    -0.024 C
HETATM   49  C1  UNL     1      18.490  -5.830  13.209  1.00  0.00     0.019 C
HETATM   50  C3  UNL     1      19.109  -8.190  13.295  1.00  0.00     0.019 C
HETATM   51  C4  UNL     1      19.001  -6.915  15.375  1.00  0.00     0.019 C
ENDBRANCH   1  48
TORSDOF 10
ENDMDL