MODEL 4
REMARK VINA RESULT: -7.253849758      4.305     11.855
REMARK  3 active torsions:
REMARK  status: ('A' for Active; 'I' for Inactive)
REMARK    1  A    between atoms: C1_2  and  C2_4
REMARK    2  A    between atoms: C10_16  and  N3_17
REMARK       I    between atoms: N3_17  and  C11_19
REMARK       I    between atoms: C11_19  and  N4_21
REMARK       I    between atoms: N5_34  and  C21_35
REMARK       I    between atoms: C21_35  and  N6_37
REMARK    3  A    between atoms: N6_37  and  C22_38
ROOT
HETATM    1  C2  UNL     1      10.926  -9.953  16.391  1.00  0.00     0.180 C
HETATM    2  C3  UNL     1      10.270 -10.952  15.535  1.00  0.00     0.054 C
HETATM    3  C4  UNL     1      10.825 -12.347  15.512  1.00  0.00     0.125 C
HETATM    4  N2  UNL     1      11.486 -12.795  16.697  1.00  0.00    -0.359 N
ATOM      5  H2  UNL     1      11.062 -12.484  17.570  1.00  0.00     0.162 HD
HETATM    6  C5  UNL     1      12.619 -13.589  16.845  1.00  0.00     0.241 C
HETATM    7  O2  UNL     1      12.499 -14.711  17.456  1.00  0.00    -0.271 OA
HETATM    8  C6  UNL     1      14.023 -13.295  16.365  1.00  0.00     0.278 C
HETATM    9  O3  UNL     1      14.690 -12.609  17.345  1.00  0.00    -0.342 OA
HETATM   10  C7  UNL     1      15.698 -11.735  17.518  1.00  0.00     0.075 A
HETATM   11  C8  UNL     1      16.635 -12.034  18.531  1.00  0.00     0.039 A
HETATM   12  C9  UNL     1      17.719 -11.251  18.846  1.00  0.00     0.032 A
HETATM   13  C10 UNL     1      17.944 -10.087  18.154  1.00  0.00     0.037 A
HETATM   14  C16 UNL     1      17.004  -9.796  17.140  1.00  0.00     0.039 A
HETATM   15  C17 UNL     1      15.928 -10.576  16.831  1.00  0.00    -0.022 A
HETATM   16  C18 UNL     1      15.087 -10.026  15.707  1.00  0.00     0.043 C
HETATM   17  C19 UNL     1      13.674  -9.943  16.115  1.00  0.00     0.025 C
HETATM   18  C20 UNL     1      13.009  -8.629  16.203  1.00  0.00     0.130 C
HETATM   19  N5  UNL     1      11.596  -8.846  15.781  1.00  0.00    -0.309 N
HETATM   20  C21 UNL     1      11.118  -7.906  14.854  1.00  0.00     0.392 C
HETATM   21  O7  UNL     1      12.011  -7.092  14.468  1.00  0.00    -0.230 OA
HETATM   22  N6  UNL     1       9.792  -7.792  14.339  1.00  0.00    -0.385 NA
ENDROOT
BRANCH   1  23
HETATM   23  C1  UNL     1       9.919  -9.471  17.420  1.00  0.00     0.254 C
HETATM   24  N1  UNL     1       8.548  -9.740  17.217  1.00  0.00    -0.060 NA
HETATM   25  O1  UNL     1      10.291  -8.844  18.436  1.00  0.00    -0.275 OA
ENDBRANCH   1  23
BRANCH  22  26
HETATM   26  C22 UNL     1       8.565  -7.687  13.860  1.00  0.00     0.099 C
HETATM   27  C23 UNL     1       8.503  -6.486  12.882  1.00  0.00     0.050 C
HETATM   28  C24 UNL     1       7.249  -6.364  12.125  1.00  0.00    -0.010 C
HETATM   29  C25 UNL     1       6.102  -6.125  13.083  1.00  0.00     0.009 C
HETATM   30  C29 UNL     1       6.974  -7.598  11.323  1.00  0.00     0.009 C
HETATM   31  C26 UNL     1       6.145  -7.287  14.050  1.00  0.00    -0.010 C
HETATM   32  C27 UNL     1       5.795  -8.534  13.274  1.00  0.00     0.009 C
HETATM   33  C31 UNL     1       7.425  -7.372  14.819  1.00  0.00     0.050 C
HETATM   34  C28 UNL     1       6.912  -8.766  12.286  1.00  0.00    -0.010 C
HETATM   35  C30 UNL     1       8.169  -8.918  13.058  1.00  0.00     0.050 C
ENDBRANCH  22  26
BRANCH  13  36
HETATM   36  N3  UNL     1      18.971  -9.161  18.387  1.00  0.00    -0.309 N
HETATM   37  C11 UNL     1      19.236  -8.509  19.577  1.00  0.00     0.322 C
HETATM   38  O4  UNL     1      18.604  -8.652  20.666  1.00  0.00    -0.247 OA
HETATM   39  N4  UNL     1      20.351  -7.551  19.583  1.00  0.00    -0.332 N
HETATM   40  C12 UNL     1      21.041  -7.387  18.320  1.00  0.00     0.142 C
HETATM   41  C15 UNL     1      20.645  -6.848  20.800  1.00  0.00     0.142 C
HETATM   42  C13 UNL     1      22.007  -6.232  18.375  1.00  0.00     0.160 C
HETATM   43  S1  UNL     1      23.080  -6.406  19.806  1.00  0.00     0.147 S
HETATM   44  O5  UNL     1      23.704  -5.073  20.085  1.00  0.00    -0.228 OA
HETATM   45  O6  UNL     1      24.128  -7.428  19.409  1.00  0.00    -0.228 OA
HETATM   46  C14 UNL     1      22.091  -6.971  21.171  1.00  0.00     0.160 C
ATOM     47  H3  UNL     1      19.583  -8.947  17.600  1.00  0.00     0.170 HD
ENDBRANCH  13  36
TORSDOF 3
ENDMDL