MODEL 3
REMARK VINA RESULT: -8.416360909      4.564      6.025
REMARK  8 active torsions:
REMARK  status: ('A' for Active; 'I' for Inactive)
REMARK       I    between atoms: C1_2  and  N1_3
REMARK    1  A    between atoms: C1_2  and  C11_18
REMARK    2  A    between atoms: N1_3  and  C2_5
REMARK    3  A    between atoms: C7_10  and  O2_11
REMARK    4  A    between atoms: C10_15  and  O3_16
REMARK       I    between atoms: N2_22  and  C15_23
REMARK    5  A    between atoms: C15_23  and  C16_25
REMARK       I    between atoms: N3_29  and  C20_30
REMARK       I    between atoms: C20_30  and  N4_32
REMARK    6  A    between atoms: N5_35  and  C23_36
REMARK    7  A    between atoms: C26_39  and  C27_40
REMARK    8  A    between atoms: C27_40  and  O6_41
ROOT
HETATM    1  C16 UNL     1      14.629  -9.231  16.091  1.00  0.00     0.181 C
HETATM    2  C17 UNL     1      15.366  -8.191  15.322  1.00  0.00     0.037 C
HETATM    3  C18 UNL     1      16.717  -8.927  15.148  1.00  0.00     0.022 C
HETATM    4  C19 UNL     1      16.731 -10.001  16.274  1.00  0.00     0.129 C
HETATM    5  N3  UNL     1      15.608  -9.539  17.114  1.00  0.00    -0.321 N
HETATM    6  C20 UNL     1      15.601  -9.303  18.459  1.00  0.00     0.321 C
HETATM    7  O5  UNL     1      14.680  -8.488  18.881  1.00  0.00    -0.247 OA
HETATM    8  N4  UNL     1      16.446  -9.812  19.471  1.00  0.00    -0.331 N
HETATM    9  C21 UNL     1      17.366 -10.915  19.337  1.00  0.00     0.147 C
HETATM   10  C22 UNL     1      18.791 -10.627  19.663  1.00  0.00     0.143 C
HETATM   11  N5  UNL     1      18.891  -9.516  20.566  1.00  0.00    -0.378 N
HETATM   12  C34 UNL     1      17.822  -9.150  21.436  1.00  0.00     0.143 C
HETATM   13  C35 UNL     1      16.485  -9.163  20.795  1.00  0.00     0.147 C
ENDROOT
BRANCH   1  14
HETATM   14  C15 UNL     1      13.266  -9.028  16.470  1.00  0.00     0.243 C
HETATM   15  N2  UNL     1      12.306 -10.037  16.085  1.00  0.00    -0.337 N
HETATM   16  C11 UNL     1      10.870 -10.054  16.282  1.00  0.00     0.179 C
HETATM   17  C14 UNL     1      12.649 -11.253  15.393  1.00  0.00     0.127 C
HETATM   18  C12 UNL     1      10.490 -11.512  16.297  1.00  0.00     0.037 C
HETATM   19  C13 UNL     1      11.767 -12.281  16.053  1.00  0.00     0.022 C
HETATM   20  O4  UNL     1      12.867  -8.035  17.098  1.00  0.00    -0.271 OA
BRANCH  16  21
HETATM   21  C1  UNL     1      10.289  -9.334  15.126  1.00  0.00     0.241 C
HETATM   22  O1  UNL     1      11.043  -8.556  14.481  1.00  0.00    -0.271 OA
HETATM   23  N1  UNL     1       8.937  -9.458  14.691  1.00  0.00    -0.351 N
ATOM     24  H1  UNL     1       8.301 -10.085  15.184  1.00  0.00     0.163 HD
BRANCH  23  25
HETATM   25  C2  UNL     1       8.467  -8.709  13.570  1.00  0.00     0.123 C
HETATM   26  C3  UNL     1       7.243  -9.258  12.882  1.00  0.00     0.014 C
HETATM   27  C4  UNL     1       6.160  -8.962  13.920  1.00  0.00     0.014 C
HETATM   28  C8  UNL     1       7.002  -8.423  11.640  1.00  0.00     0.044 C
HETATM   29  C5  UNL     1       6.458  -7.484  14.190  1.00  0.00     0.025 C
HETATM   30  C6  UNL     1       5.808  -6.738  13.014  1.00  0.00     0.045 C
HETATM   31  C10 UNL     1       7.940  -7.324  13.986  1.00  0.00     0.085 C
HETATM   32  C7  UNL     1       6.879  -6.965  11.948  1.00  0.00     0.061 C
HETATM   33  C9  UNL     1       8.103  -6.472  12.733  1.00  0.00     0.078 C
BRANCH  32  34
HETATM   34  O2  UNL     1       6.658  -6.233  10.811  1.00  0.00    -0.390 OA
ATOM     35  H2  UNL     1       7.206  -5.459  10.761  1.00  0.00     0.210 HD
ENDBRANCH  32  34
BRANCH  31  36
HETATM   36  O3  UNL     1       8.596  -6.812  15.065  1.00  0.00    -0.387 OA
ATOM     37  H3  UNL     1       8.122  -6.101  15.480  1.00  0.00     0.210 HD
ENDBRANCH  31  36
ENDBRANCH  23  25
ENDBRANCH  16  21
ENDBRANCH   1  14
BRANCH  11  38
HETATM   38  C23 UNL     1      20.168  -8.813  20.592  1.00  0.00     0.030 A
HETATM   39  C24 UNL     1      21.385  -9.428  20.643  1.00  0.00     0.030 A
HETATM   40  C25 UNL     1      22.579  -8.697  20.635  1.00  0.00     0.012 A
HETATM   41  C26 UNL     1      22.555  -7.325  20.577  1.00  0.00    -0.024 A
HETATM   42  C32 UNL     1      21.324  -6.707  20.530  1.00  0.00     0.012 A
HETATM   43  C33 UNL     1      20.148  -7.430  20.536  1.00  0.00     0.030 A
BRANCH  41  44
HETATM   44  C27 UNL     1      23.788  -6.469  20.553  1.00  0.00     0.085 C
HETATM   45  C28 UNL     1      24.928  -7.098  19.824  1.00  0.00     0.043 C
HETATM   46  C29 UNL     1      24.949  -6.453  18.461  1.00  0.00     0.004 C
HETATM   47  C30 UNL     1      24.204  -5.159  18.533  1.00  0.00     0.004 C
HETATM   48  C31 UNL     1      23.464  -5.187  19.818  1.00  0.00     0.043 C
BRANCH  44  49
HETATM   49  O6  UNL     1      24.100  -6.153  21.875  1.00  0.00    -0.385 OA
ATOM     50  H6  UNL     1      23.848  -5.248  22.016  1.00  0.00     0.211 HD
ENDBRANCH  44  49
ENDBRANCH  41  44
ENDBRANCH  11  38
TORSDOF 8
ENDMDL