MODEL 1
REMARK VINA RESULT: -7.592585041      0.000      0.000
REMARK  4 active torsions:
REMARK  status: ('A' for Active; 'I' for Inactive)
REMARK       I    between atoms: N1_4  and  C4_6
REMARK    1  A    between atoms: C4_6  and  C5_8
REMARK    2  A    between atoms: C14_23  and  C15_24
REMARK       I    between atoms: C15_24  and  N4_26
REMARK    3  A    between atoms: C19_30  and  C20_31
REMARK       I    between atoms: C20_31  and  N5_33
REMARK    4  A    between atoms: N5_33  and  C21_35
ROOT
HETATM    1  C5  UNL     1      10.638  -8.718  14.712  1.00  0.00     0.087 C
HETATM    2  C6  UNL     1      11.563  -7.683  15.319  1.00  0.00     0.015 C
HETATM    3  C7  UNL     1      12.139  -6.774  14.281  1.00  0.00     0.001 C
HETATM    4  C8  UNL     1      13.581  -7.023  13.949  1.00  0.00     0.002 C
HETATM    5  C9  UNL     1      14.489  -6.957  15.135  1.00  0.00     0.027 C
HETATM    6  C10 UNL     1      15.947  -7.012  14.697  1.00  0.00     0.233 C
HETATM    7  N2  UNL     1      16.103  -7.810  13.495  1.00  0.00    -0.063 N
ATOM      8  H21 UNL     1      15.682  -7.373  12.675  1.00  0.00     0.278 HD
ATOM      9  H22 UNL     1      15.532  -8.656  13.507  1.00  0.00     0.278 HD
HETATM   10  C11 UNL     1      17.523  -8.090  13.318  1.00  0.00     0.273 C
HETATM   11  C12 UNL     1      18.071  -6.847  12.594  1.00  0.00     0.050 C
HETATM   12  C13 UNL     1      17.730  -9.270  12.449  1.00  0.00     0.248 C
HETATM   13  O2  UNL     1      17.636  -9.005  11.188  1.00  0.00    -0.271 OA
HETATM   14  N3  UNL     1      17.999 -10.587  12.792  1.00  0.00    -0.346 N
ATOM     15  H3  UNL     1      17.303 -11.262  12.476  1.00  0.00     0.163 HD
HETATM   16  C14 UNL     1      19.103 -11.155  13.524  1.00  0.00     0.177 C
HETATM   17  C27 UNL     1      18.900 -11.002  15.021  1.00  0.00     0.044 C
HETATM   18  C28 UNL     1      17.487 -11.361  15.415  1.00  0.00     0.105 C
HETATM   19  C29 UNL     1      16.926 -10.472  16.447  1.00  0.00     0.217 C
HETATM   20  O5  UNL     1      17.689  -9.724  17.096  1.00  0.00    -0.274 OA
HETATM   21  N6  UNL     1      15.535 -10.441  16.731  1.00  0.00    -0.360 N
ATOM     22  H6  UNL     1      15.196  -9.914  17.535  1.00  0.00     0.162 HD
HETATM   23  C30 UNL     1      14.579 -11.157  15.879  1.00  0.00     0.132 C
HETATM   24  C31 UNL     1      13.192 -11.105  16.452  1.00  0.00     0.093 C
HETATM   25  S1  UNL     1      11.973 -11.072  15.086  1.00  0.00    -0.167 SA
HETATM   26  C32 UNL     1      10.607  -9.980  15.561  1.00  0.00     0.088 C
ENDROOT
BRANCH  16  27
HETATM   27  C15 UNL     1      20.431 -10.756  13.053  1.00  0.00     0.243 C
HETATM   28  O3  UNL     1      20.626 -10.814  11.805  1.00  0.00    -0.271 OA
HETATM   29  N4  UNL     1      21.512 -10.320  13.867  1.00  0.00    -0.337 N
HETATM   30  C16 UNL     1      22.823  -9.957  13.376  1.00  0.00     0.127 C
HETATM   31  C19 UNL     1      21.512 -10.204  15.310  1.00  0.00     0.179 C
HETATM   32  C17 UNL     1      23.719  -9.927  14.578  1.00  0.00     0.022 C
HETATM   33  C18 UNL     1      22.953 -10.622  15.656  1.00  0.00     0.037 C
BRANCH  31  34
HETATM   34  C20 UNL     1      21.241  -8.873  15.853  1.00  0.00     0.241 C
HETATM   35  O4  UNL     1      20.672  -8.067  15.021  1.00  0.00    -0.271 OA
HETATM   36  N5  UNL     1      21.500  -8.365  17.109  1.00  0.00    -0.355 N
ATOM     37  H5  UNL     1      21.932  -8.978  17.801  1.00  0.00     0.162 HD
BRANCH  36  38
HETATM   38  C21 UNL     1      21.182  -6.978  17.499  1.00  0.00     0.084 C
HETATM   39  C22 UNL     1      19.943  -6.957  18.370  1.00  0.00     0.025 C
HETATM   40  C23 UNL     1      20.211  -7.299  19.795  1.00  0.00     0.002 C
HETATM   41  C24 UNL     1      21.415  -6.584  20.362  1.00  0.00     0.000 C
HETATM   42  C25 UNL     1      22.638  -6.669  19.511  1.00  0.00     0.002 C
HETATM   43  C26 UNL     1      22.332  -6.257  18.087  1.00  0.00     0.025 C
ENDBRANCH  36  38
ENDBRANCH  31  34
ENDBRANCH  16  27
BRANCH   1  44
HETATM   44  C4  UNL     1       9.223  -8.234  14.629  1.00  0.00     0.226 C
HETATM   45  N1  UNL     1       8.385  -8.831  13.634  1.00  0.00    -0.335 N
HETATM   46  C2  UNL     1       7.736  -8.051  12.795  1.00  0.00    -0.018 C
ATOM     47  H1  UNL     1       8.292  -9.846  13.577  1.00  0.00     0.168 HD
HETATM   48  C1  UNL     1       7.829  -6.582  12.832  1.00  0.00     0.062 C
HETATM   49  C3  UNL     1       6.877  -8.688  11.767  1.00  0.00     0.062 C
HETATM   50  O1  UNL     1       8.769  -7.342  15.390  1.00  0.00    -0.273 OA
ENDBRANCH   1  44
TORSDOF 4
ENDMDL