MODEL 5
REMARK VINA RESULT: -7.484463426      4.132      8.451
REMARK  5 active torsions:
REMARK  status: ('A' for Active; 'I' for Inactive)
REMARK       I    between atoms: C2_4  and  N2_5
REMARK       I    between atoms: C2_4  and  N3_10
REMARK       I    between atoms: N2_5  and  C3_7
REMARK    1  A    between atoms: N6_33  and  C21_34
REMARK    2  A    between atoms: C21_34  and  C22_35
REMARK    3  A    between atoms: C22_35  and  C23_37
REMARK    4  A    between atoms: C23_37  and  N7_38
REMARK       I    between atoms: N8_41  and  C26_42
REMARK       I    between atoms: C26_42  and  N9_44
REMARK    5  A    between atoms: N9_44  and  C27_46
ROOT
HETATM    1  C1  UNL     1      15.029  -4.759  13.001  1.00  0.00     0.165 C
HETATM    2  N1  UNL     1      15.873  -4.758  14.121  1.00  0.00    -0.230 N
ATOM      3  H1  UNL     1      15.978  -3.847  14.565  1.00  0.00     0.177 HD
HETATM    4  C2  UNL     1      16.541  -5.703  14.688  1.00  0.00     0.678 C
HETATM    5  N2  UNL     1      17.296  -5.331  15.812  1.00  0.00    -0.160 N
ATOM      6  H2  UNL     1      17.264  -4.353  16.103  1.00  0.00     0.187 HD
HETATM    7  C3  UNL     1      18.086  -6.203  16.558  1.00  0.00     0.231 C
HETATM    8  C4  UNL     1      18.856  -5.694  17.747  1.00  0.00     0.118 C
HETATM    9  O1  UNL     1      18.197  -7.407  16.292  1.00  0.00    -0.273 OA
HETATM   10  N3  UNL     1      16.490  -7.045  14.178  1.00  0.00    -0.216 N
HETATM   11  C5  UNL     1      17.326  -7.346  13.054  1.00  0.00     0.141 C
HETATM   12  C6  UNL     1      17.848  -8.744  12.984  1.00  0.00     0.020 C
HETATM   13  C7  UNL     1      17.513  -9.445  11.684  1.00  0.00     0.002 C
HETATM   14  C8  UNL     1      18.694 -10.236  11.140  1.00  0.00     0.000 C
HETATM   15  C9  UNL     1      18.289 -11.653  10.880  1.00  0.00     0.000 C
HETATM   16  C10 UNL     1      18.447 -12.038   9.404  1.00  0.00     0.000 C
HETATM   17  C11 UNL     1      18.526 -13.530   9.352  1.00  0.00     0.000 C
HETATM   18  C12 UNL     1      18.077 -14.121   8.048  1.00  0.00     0.002 C
HETATM   19  C13 UNL     1      16.688 -13.748   7.658  1.00  0.00     0.027 C
HETATM   20  C14 UNL     1      15.778 -14.953   7.497  1.00  0.00     0.232 C
HETATM   21  N4  UNL     1      15.480 -15.562   8.778  1.00  0.00    -0.075 N
ATOM     22  H41 UNL     1      16.313 -15.617   9.364  1.00  0.00     0.277 HD
ATOM     23  H42 UNL     1      15.288 -16.559   8.678  1.00  0.00     0.277 HD
HETATM   24  C15 UNL     1      14.399 -14.883   9.462  1.00  0.00     0.233 C
HETATM   25  C16 UNL     1      14.935 -14.424  10.810  1.00  0.00     0.055 C
HETATM   26  C17 UNL     1      13.824 -14.033  11.744  1.00  0.00     0.233 C
HETATM   27  N5  UNL     1      14.153 -12.764  12.350  1.00  0.00    -0.075 N
ATOM     28  H51 UNL     1      13.323 -12.184  12.476  1.00  0.00     0.277 HD
ATOM     29  H52 UNL     1      14.667 -12.164  11.705  1.00  0.00     0.277 HD
HETATM   30  C18 UNL     1      14.872 -12.944  13.599  1.00  0.00     0.234 C
HETATM   31  C19 UNL     1      14.925 -11.605  14.323  1.00  0.00     0.057 C
HETATM   32  C20 UNL     1      13.765 -10.732  13.849  1.00  0.00     0.274 C
HETATM   33  N6  UNL     1      13.756  -9.510  14.584  1.00  0.00     0.097 N
HETATM   34  C32 UNL     1      14.436  -8.407  13.921  1.00  0.00     0.293 C
HETATM   35  C33 UNL     1      15.616  -8.005  14.782  1.00  0.00     0.171 C
ENDROOT
BRANCH  33  36
HETATM   36  C21 UNL     1      12.397  -9.043  14.867  1.00  0.00     0.352 C
BRANCH  36  37
HETATM   37  C22 UNL     1      11.664  -9.951  15.774  1.00  0.00     0.183 C
HETATM   38  O2  UNL     1      12.207 -10.371  16.765  1.00  0.00    -0.294 OA
BRANCH  37  39
HETATM   39  C23 UNL     1      10.273 -10.343  15.469  1.00  0.00     0.352 C
BRANCH  39  40
HETATM   40  N7  UNL     1       9.363  -9.585  16.306  1.00  0.00     0.098 N
HETATM   41  C24 UNL     1       8.319 -10.438  16.798  1.00  0.00     0.293 C
HETATM   42  C25 UNL     1       7.519 -10.999  15.677  1.00  0.00     0.158 C
HETATM   43  N8  UNL     1       6.949  -9.902  14.937  1.00  0.00    -0.331 N
HETATM   44  C26 UNL     1       5.900 -10.178  14.017  1.00  0.00     0.318 C
HETATM   45  C30 UNL     1       7.421  -8.574  15.135  1.00  0.00     0.158 C
HETATM   46  O3  UNL     1       5.387  -9.245  13.339  1.00  0.00    -0.247 OA
HETATM   47  N9  UNL     1       5.427 -11.495  13.859  1.00  0.00    -0.339 N
ATOM     48  H9  UNL     1       5.845 -12.246  14.408  1.00  0.00     0.164 HD
HETATM   49  C31 UNL     1       8.831  -8.439  15.588  1.00  0.00     0.293 C
BRANCH  47  50
HETATM   50  C27 UNL     1       4.365 -11.799  12.940  1.00  0.00     0.078 C
HETATM   51  C28 UNL     1       4.940 -12.209  11.623  1.00  0.00     0.032 C
HETATM   52  C29 UNL     1       3.503 -12.939  13.458  1.00  0.00     0.032 C
ENDBRANCH  47  50
ENDBRANCH  39  40
ENDBRANCH  37  39
ENDBRANCH  36  37
ENDBRANCH  33  36
TORSDOF 5
ENDMDL