MODEL 1
REMARK VINA RESULT: -7.767874696      0.000      0.000
REMARK  10 active torsions:
REMARK  status: ('A' for Active; 'I' for Inactive)
REMARK    1  A    between atoms: C2_2  and  O1_5
REMARK    2  A    between atoms: O1_5  and  C5_6
REMARK       I    between atoms: C5_6  and  N1_8
REMARK    3  A    between atoms: C9_12  and  C10_13
REMARK    4  A    between atoms: C10_13  and  O3_14
REMARK    5  A    between atoms: C10_13  and  N2_16
REMARK    6  A    between atoms: C14_20  and  C15_21
REMARK       I    between atoms: C15_21  and  N3_23
REMARK    7  A    between atoms: N3_23  and  C16_25
REMARK    8  A    between atoms: C21_33  and  N5_34
REMARK    9  A    between atoms: C23_39  and  C24_40
REMARK   10  A    between atoms: C24_40  and  N7_44
ROOT
HETATM    1  C16 UNL     1      15.023 -11.518  12.593  1.00  0.00     0.121 C
HETATM    2  C17 UNL     1      13.992 -12.248  11.736  1.00  0.00     0.032 C
HETATM    3  C18 UNL     1      14.459 -13.656  11.579  1.00  0.00     0.022 C
HETATM    4  C19 UNL     1      14.507 -14.232  10.227  1.00  0.00     0.122 C
HETATM    5  N4  UNL     1      15.210 -13.596   9.183  1.00  0.00    -0.359 N
ATOM      6  H4  UNL     1      15.414 -14.208   8.393  1.00  0.00     0.162 HD
HETATM    7  C20 UNL     1      15.685 -12.285   9.016  1.00  0.00     0.252 C
HETATM    8  O5  UNL     1      15.271 -11.575   8.018  1.00  0.00    -0.271 OA
HETATM    9  C21 UNL     1      16.667 -11.552   9.890  1.00  0.00     0.298 C
HETATM   10  C22 UNL     1      16.031 -10.387  10.525  1.00  0.00     0.028 C
HETATM   11  C23 UNL     1      15.674 -10.372  11.943  1.00  0.00     0.007 C
ENDROOT
BRANCH   1  12
HETATM   12  N3  UNL     1      14.304 -11.034  13.765  1.00  0.00    -0.351 N
HETATM   13  C15 UNL     1      14.330 -11.563  15.047  1.00  0.00     0.241 C
HETATM   14  O4  UNL     1      15.055 -12.606  15.229  1.00  0.00    -0.271 OA
ATOM     15  H3  UNL     1      13.715 -10.213  13.627  1.00  0.00     0.163 HD
BRANCH  13  16
HETATM   16  C14 UNL     1      13.619 -11.076  16.245  1.00  0.00     0.178 C
HETATM   17  N2  UNL     1      13.403  -9.612  16.217  1.00  0.00    -0.350 N
HETATM   18  C11 UNL     1      14.626  -9.056  16.716  1.00  0.00     0.126 C
HETATM   19  C12 UNL     1      15.332 -10.132  17.532  1.00  0.00     0.022 C
HETATM   20  C13 UNL     1      14.365 -11.299  17.534  1.00  0.00     0.037 C
BRANCH  17  21
HETATM   21  C10 UNL     1      12.226  -9.000  15.781  1.00  0.00     0.138 C
BRANCH  21  22
HETATM   22  C9  UNL     1      10.972  -8.689  16.434  1.00  0.00     0.164 C
HETATM   23  N1  UNL     1       9.837  -9.519  16.263  1.00  0.00    -0.316 N
HETATM   24  C5  UNL     1       8.938  -9.644  15.175  1.00  0.00     0.364 C
HETATM   25  C6  UNL     1       9.653 -10.310  17.503  1.00  0.00     0.129 C
HETATM   26  O2  UNL     1       7.992 -10.454  15.242  1.00  0.00    -0.238 OA
HETATM   27  C7  UNL     1       9.866  -9.152  18.501  1.00  0.00     0.022 C
HETATM   28  C8  UNL     1      11.126  -8.542  17.943  1.00  0.00     0.035 C
BRANCH  24  29
HETATM   29  O1  UNL     1       9.067  -8.906  14.035  1.00  0.00    -0.294 OA
BRANCH  29  30
HETATM   30  C2  UNL     1       8.117  -7.968  13.585  1.00  0.00     0.061 C
HETATM   31  C1  UNL     1       8.854  -6.702  13.219  1.00  0.00     0.046 C
HETATM   32  C3  UNL     1       7.367  -8.432  12.362  1.00  0.00     0.046 C
HETATM   33  C4  UNL     1       7.093  -7.628  14.639  1.00  0.00     0.046 C
ENDBRANCH  29  30
ENDBRANCH  24  29
ENDBRANCH  21  22
BRANCH  21  34
HETATM   34  O3  UNL     1      12.281  -8.633  14.512  1.00  0.00    -0.348 OA
ATOM     35  H3  UNL     1      12.889  -7.923  14.340  1.00  0.00     0.219 HD
ENDBRANCH  21  34
ENDBRANCH  17  21
ENDBRANCH  13  16
ENDBRANCH   1  12
BRANCH  11  36
HETATM   36  C24 UNL     1      16.775  -9.826  12.813  1.00  0.00     0.106 C
HETATM   37  N6  UNL     1      17.316 -10.563  13.728  1.00  0.00    -0.385 N
ATOM     38  H62 UNL     1      16.976 -11.518  13.838  1.00  0.00     0.157 HD
ATOM     39  H61 UNL     1      18.062 -10.193  14.317  1.00  0.00     0.157 HD
BRANCH  36  40
HETATM   40  N7  UNL     1      17.236  -8.532  12.664  1.00  0.00    -0.349 N
HETATM   41  C25 UNL     1      16.782  -7.410  12.975  1.00  0.00    -0.004 C
HETATM   42  C26 UNL     1      17.645  -6.222  12.613  1.00  0.00     0.032 C
HETATM   43  C33 UNL     1      15.519  -7.056  13.654  1.00  0.00     0.032 C
HETATM   44  C27 UNL     1      17.997  -5.509  13.888  1.00  0.00     0.015 C
HETATM   45  C31 UNL     1      16.789  -5.290  11.772  1.00  0.00     0.015 C
HETATM   46  C28 UNL     1      16.755  -5.185  14.674  1.00  0.00    -0.013 C
HETATM   47  C29 UNL     1      15.962  -4.178  13.875  1.00  0.00     0.009 C
HETATM   48  C34 UNL     1      15.904  -6.377  14.972  1.00  0.00     0.015 C
HETATM   49  C30 UNL     1      15.585  -4.823  12.569  1.00  0.00    -0.013 C
HETATM   50  C32 UNL     1      14.723  -6.017  12.855  1.00  0.00     0.015 C
ATOM     51  H7  UNL     1      18.143  -8.481  12.200  1.00  0.00     0.167 HD
ENDBRANCH  36  40
ENDBRANCH  11  36
BRANCH   9  52
HETATM   52  N5  UNL     1      17.486 -12.398  10.685  1.00  0.00    -0.063 N
ATOM     53  H53 UNL     1      17.431 -13.361  10.354  1.00  0.00     0.275 HD
ATOM     54  H52 UNL     1      18.473 -12.208  10.507  1.00  0.00     0.275 HD
ATOM     55  H51 UNL     1      17.289 -12.353  11.685  1.00  0.00     0.275 HD
ENDBRANCH   9  52
TORSDOF 10
ENDMDL