MODEL 3
REMARK VINA RESULT: -7.514696702      1.764      3.137
REMARK  8 active torsions:
REMARK  status: ('A' for Active; 'I' for Inactive)
REMARK    1  A    between atoms: C2_2  and  C3_3
REMARK    2  A    between atoms: C9_13  and  C10_14
REMARK    3  A    between atoms: C10_14  and  O2_15
REMARK    4  A    between atoms: C10_14  and  N3_17
REMARK    5  A    between atoms: C17_24  and  C18_25
REMARK       I    between atoms: C18_25  and  N4_27
REMARK    6  A    between atoms: N4_27  and  C19_29
REMARK    7  A    between atoms: C32_43  and  O5_44
REMARK    8  A    between atoms: C36_49  and  O6_50
ROOT
HETATM    1  C3  UNL     1      16.865  -7.357  13.115  1.00  0.00     0.008 C
HETATM    2  C4  UNL     1      17.457  -7.069  14.456  1.00  0.00     0.022 C
HETATM    3  C5  UNL     1      16.252  -6.089  12.559  1.00  0.00     0.118 C
HETATM    4  C6  UNL     1      14.941  -6.111  13.257  1.00  0.00     0.227 C
HETATM    5  O1  UNL     1      14.173  -5.091  13.212  1.00  0.00    -0.273 OA
HETATM    6  N1  UNL     1      14.747  -7.394  13.924  1.00  0.00    -0.286 N
HETATM    7  C7  UNL     1      15.611  -8.192  13.194  1.00  0.00     0.041 C
HETATM    8  C8  UNL     1      15.890  -9.631  13.359  1.00  0.00     0.110 C
HETATM    9  N2  UNL     1      16.358 -10.121  14.537  1.00  0.00    -0.385 N
ATOM     10  H2  UNL     1      16.982  -9.490  15.041  1.00  0.00     0.159 HD
HETATM   11  C9  UNL     1      16.131 -11.338  15.172  1.00  0.00     0.156 C
HETATM   12  C23 UNL     1      14.992 -11.519  16.060  1.00  0.00     0.044 C
HETATM   13  C24 UNL     1      14.097 -10.427  16.493  1.00  0.00    -0.022 A
HETATM   14  C25 UNL     1      14.775  -9.123  16.846  1.00  0.00     0.020 C
HETATM   15  C26 UNL     1      13.783  -8.496  15.993  1.00  0.00     0.048 C
HETATM   16  C27 UNL     1      13.438  -9.826  15.424  1.00  0.00     0.016 A
HETATM   17  C28 UNL     1      12.671 -10.630  16.526  1.00  0.00     0.070 A
HETATM   18  C29 UNL     1      11.520  -9.731  16.598  1.00  0.00     0.136 C
HETATM   19  O4  UNL     1      11.143  -9.729  17.790  1.00  0.00    -0.297 OA
HETATM   20  C30 UNL     1      10.638  -8.830  15.798  1.00  0.00     0.062 C
HETATM   21  C31 UNL     1      10.034  -9.388  14.582  1.00  0.00     0.044 C
HETATM   22  C32 UNL     1       9.399  -8.134  13.963  1.00  0.00     0.119 C
HETATM   23  C33 UNL     1      10.104  -6.954  14.604  1.00  0.00     0.037 C
HETATM   24  C34 UNL     1      11.314  -7.574  15.339  1.00  0.00     0.004 C
HETATM   25  C35 UNL     1      12.408  -7.623  14.363  1.00  0.00     0.067 C
HETATM   26  C36 UNL     1      13.833  -7.510  15.002  1.00  0.00     0.144 C
ENDROOT
BRANCH  11  27
HETATM   27  C10 UNL     1      16.224 -12.450  14.199  1.00  0.00     0.138 C
BRANCH  27  28
HETATM   28  O2  UNL     1      17.407 -12.722  13.715  1.00  0.00    -0.348 OA
ATOM     29  H2  UNL     1      17.823 -13.523  14.011  1.00  0.00     0.219 HD
ENDBRANCH  27  28
BRANCH  27  30
HETATM   30  N3  UNL     1      15.238 -13.298  13.683  1.00  0.00    -0.345 N
HETATM   31  C11 UNL     1      15.136 -14.678  13.906  1.00  0.00     0.087 C
HETATM   32  C12 UNL     1      15.075 -15.556  12.665  1.00  0.00     0.026 C
HETATM   33  C15 UNL     1      13.722 -14.958  14.463  1.00  0.00     0.030 C
HETATM   34  C13 UNL     1      13.665 -15.571  12.187  1.00  0.00     0.007 C
HETATM   35  C14 UNL     1      12.899 -14.784  13.209  1.00  0.00    -0.010 C
HETATM   36  C16 UNL     1      12.879 -13.311  12.907  1.00  0.00     0.040 C
HETATM   37  C17 UNL     1      14.206 -12.667  12.825  1.00  0.00     0.179 C
BRANCH  37  38
HETATM   38  C18 UNL     1      14.739 -12.421  11.477  1.00  0.00     0.241 C
HETATM   39  O3  UNL     1      14.002 -11.951  10.588  1.00  0.00    -0.271 OA
HETATM   40  N4  UNL     1      16.084 -12.713  11.176  1.00  0.00    -0.351 N
ATOM     41  H4  UNL     1      16.687 -13.094  11.905  1.00  0.00     0.163 HD
BRANCH  40  42
HETATM   42  C19 UNL     1      16.637 -12.484   9.838  1.00  0.00     0.022 C
HETATM   43  C20 UNL     1      16.829 -11.012   9.555  1.00  0.00     0.037 C
HETATM   44  C21 UNL     1      18.049 -13.089   9.777  1.00  0.00     0.037 C
HETATM   45  C22 UNL     1      15.838 -13.102   8.746  1.00  0.00     0.037 C
ENDBRANCH  40  42
ENDBRANCH  37  38
ENDBRANCH  27  30
ENDBRANCH  11  27
BRANCH   1  46
HETATM   46  C2  UNL     1      17.919  -7.762  12.165  1.00  0.00     0.011 C
HETATM   47  C1  UNL     1      19.214  -8.247  12.768  1.00  0.00     0.006 C
ENDBRANCH   1  46
BRANCH  26  48
HETATM   48  O6  UNL     1      13.657  -6.255  15.693  1.00  0.00    -0.370 OA
ATOM     49  H6  UNL     1      14.231  -5.581  15.350  1.00  0.00     0.212 HD
ENDBRANCH  26  48
BRANCH  22  50
HETATM   50  O5  UNL     1       8.042  -8.169  14.336  1.00  0.00    -0.396 OA
ATOM     51  H5  UNL     1       7.653  -7.383  13.970  1.00  0.00     0.210 HD
ENDBRANCH  22  50
TORSDOF 8
ENDMDL