MODEL 3
REMARK VINA RESULT: -7.723768766      1.223      1.590
REMARK  9 active torsions:
REMARK  status: ('A' for Active; 'I' for Inactive)
REMARK    1  A    between atoms: C7_7  and  C28_43
REMARK    2  A    between atoms: C10_10  and  C11_11
REMARK    3  A    between atoms: C13_13  and  C14_14
REMARK       I    between atoms: C14_14  and  N1_16
REMARK    4  A    between atoms: N2_19  and  S1_20
REMARK    5  A    between atoms: C18_24  and  C19_25
REMARK    6  A    between atoms: C19_25  and  N4_29
REMARK    7  A    between atoms: N4_29  and  C20_31
REMARK    8  A    between atoms: C25_36  and  O4_37
REMARK    9  A    between atoms: C26_39  and  O5_40
ROOT
HETATM    1  C14 UNL     1      14.262  -9.587  14.436  1.00  0.00     0.224 C
HETATM    2  O1  UNL     1      14.450 -10.495  13.599  1.00  0.00    -0.273 OA
HETATM    3  N1  UNL     1      13.118  -9.668  15.249  1.00  0.00    -0.348 N
HETATM    4  C15 UNL     1      12.180 -10.757  15.200  1.00  0.00     0.146 C
HETATM    5  C16 UNL     1      11.248 -10.820  16.357  1.00  0.00     0.156 C
HETATM    6  N2  UNL     1      10.727  -9.601  16.851  1.00  0.00    -0.296 N
HETATM    7  C18 UNL     1      11.455  -8.411  16.571  1.00  0.00     0.180 C
HETATM    8  C27 UNL     1      12.869  -8.576  16.157  1.00  0.00     0.159 C
ENDROOT
BRANCH   1   9
HETATM    9  C13 UNL     1      15.210  -8.494  14.546  1.00  0.00     0.087 C
HETATM   10  C12 UNL     1      16.608  -8.747  14.969  1.00  0.00     0.020 C
HETATM   11  C11 UNL     1      17.523  -7.810  14.133  1.00  0.00     0.000 C
HETATM   12  C30 UNL     1      16.495  -6.786  13.857  1.00  0.00    -0.035 C
HETATM   13  C28 UNL     1      15.530  -7.785  13.223  1.00  0.00    -0.021 C
HETATM   14  C31 UNL     1      16.676  -5.533  13.185  1.00  0.00     0.016 C
HETATM   15  C32 UNL     1      15.993  -6.286  15.222  1.00  0.00     0.016 C
HETATM   16  C29 UNL     1      14.301  -7.001  12.836  1.00  0.00     0.017 C
BRANCH  11  17
HETATM   17  C10 UNL     1      18.361  -8.432  13.145  1.00  0.00     0.007 C
HETATM   18  C5  UNL     1      18.930  -9.826  13.333  1.00  0.00     0.032 C
HETATM   19  C4  UNL     1      19.880 -10.169  12.163  1.00  0.00     0.045 C
HETATM   20  C6  UNL     1      19.660  -9.871  14.580  1.00  0.00     0.023 C
HETATM   21  C33 UNL     1      18.038 -10.920  12.889  1.00  0.00     0.164 C
HETATM   22  C3  UNL     1      19.004 -10.087  11.006  1.00  0.00    -0.015 C
HETATM   23  C2  UNL     1      17.832 -10.567  11.458  1.00  0.00    -0.019 C
HETATM   24  C1  UNL     1      16.573 -10.712  10.683  1.00  0.00     0.052 C
HETATM   25  C7  UNL     1      19.771  -8.459  15.206  1.00  0.00    -0.004 C
HETATM   26  C8  UNL     1      20.422  -7.707  14.117  1.00  0.00     0.006 C
HETATM   27  C9  UNL     1      19.635  -7.623  12.835  1.00  0.00     0.007 C
HETATM   28  O6  UNL     1      17.525 -11.911  13.413  1.00  0.00    -0.292 OA
ENDBRANCH  11  17
ENDBRANCH   1   9
BRANCH   7  29
HETATM   29  C19 UNL     1      10.752  -7.569  15.568  1.00  0.00     0.096 C
HETATM   30  N3  UNL     1      11.471  -6.953  14.689  1.00  0.00    -0.387 N
ATOM     31  H32 UNL     1      12.481  -7.078  14.743  1.00  0.00     0.157 HD
ATOM     32  H31 UNL     1      10.988  -6.376  14.000  1.00  0.00     0.157 HD
BRANCH  29  33
HETATM   33  N4  UNL     1       9.353  -7.396  15.493  1.00  0.00    -0.371 N
ATOM     34  H4  UNL     1       8.943  -6.771  16.187  1.00  0.00     0.161 HD
BRANCH  33  35
HETATM   35  C20 UNL     1       8.440  -7.983  14.570  1.00  0.00     0.114 C
HETATM   36  C21 UNL     1       7.265  -8.648  15.219  1.00  0.00     0.028 C
HETATM   37  C22 UNL     1       6.896  -9.898  14.436  1.00  0.00     0.002 C
HETATM   38  C23 UNL     1       6.019  -9.591  13.254  1.00  0.00     0.003 C
HETATM   39  C24 UNL     1       6.786  -8.721  12.278  1.00  0.00     0.034 C
HETATM   40  C25 UNL     1       6.822  -7.302  12.747  1.00  0.00     0.148 C
HETATM   41  C26 UNL     1       7.992  -6.942  13.588  1.00  0.00     0.169 C
BRANCH  40  42
HETATM   42  O4  UNL     1       6.794  -6.480  11.618  1.00  0.00    -0.393 OA
ATOM     43  H4  UNL     1       7.568  -5.930  11.642  1.00  0.00     0.210 HD
ENDBRANCH  40  42
BRANCH  41  44
HETATM   44  O5  UNL     1       9.128  -6.583  12.828  1.00  0.00    -0.391 OA
ATOM     45  H5  UNL     1       9.764  -6.227  13.438  1.00  0.00     0.210 HD
ENDBRANCH  41  44
ENDBRANCH  33  35
ENDBRANCH  29  33
ENDBRANCH   7  29
BRANCH   6  46
HETATM   46  S1  UNL     1      10.164  -9.670  18.460  1.00  0.00     0.225 S
HETATM   47  C17 UNL     1      10.630 -11.143  19.295  1.00  0.00     0.186 C
HETATM   48  O2  UNL     1      10.620  -8.456  19.249  1.00  0.00    -0.206 OA
HETATM   49  O3  UNL     1       8.646  -9.591  18.450  1.00  0.00    -0.206 OA
ENDBRANCH   6  46
TORSDOF 9
ENDMDL