MODEL 3
REMARK VINA RESULT: -9.692936189      1.304      1.630
REMARK  6 active torsions:
REMARK  status: ('A' for Active; 'I' for Inactive)
REMARK       I    between atoms: N2_5  and  C2_6
REMARK    1  A    between atoms: C2_6  and  C3_8
REMARK       I    between atoms: C3_8  and  N3_10
REMARK    2  A    between atoms: N3_10  and  C4_12
REMARK    3  A    between atoms: C4_12  and  C5_13
REMARK    4  A    between atoms: C5_13  and  O3_14
REMARK    5  A    between atoms: C5_13  and  N4_16
REMARK    6  A    between atoms: C19_31  and  O4_32
ROOT
HETATM    1  N1  UNL     1       5.334  19.082   2.452  1.00  0.00    -0.234 N
ATOM      2  H11 UNL     1       4.575  19.667   2.803  1.00  0.00     0.174 HD
ATOM      3  H12 UNL     1       6.150  19.685   2.358  1.00  0.00     0.174 HD
HETATM    4  C1  UNL     1       5.253  17.844   2.147  1.00  0.00     0.681 C
HETATM    5  N2  UNL     1       6.324  17.018   1.653  1.00  0.00    -0.138 N
HETATM    6  C2  UNL     1       7.300  17.198   0.681  1.00  0.00     0.330 C
HETATM    7  O1  UNL     1       8.170  16.260   0.579  1.00  0.00    -0.261 OA
HETATM    8  C18 UNL     1       6.090  15.775   2.455  1.00  0.00     0.214 C
HETATM    9  C19 UNL     1       4.612  15.665   2.365  1.00  0.00     0.178 C
HETATM   10  N6  UNL     1       4.103  16.995   2.281  1.00  0.00    -0.182 N
HETATM   11  C20 UNL     1       2.682  17.223   2.344  1.00  0.00     0.145 C
HETATM   12  C21 UNL     1       1.934  15.904   2.427  1.00  0.00     0.022 C
HETATM   13  C22 UNL     1       2.468  15.089   3.554  1.00  0.00     0.021 C
HETATM   14  C23 UNL     1       3.946  14.811   3.398  1.00  0.00     0.040 C
HETATM   15  C24 UNL     1       4.096  13.372   2.920  1.00  0.00     0.024 C
HETATM   16  C25 UNL     1       4.249  12.603   4.187  1.00  0.00     0.040 C
HETATM   17  C26 UNL     1       4.725  13.587   5.196  1.00  0.00    -0.051 A
HETATM   18  C27 UNL     1       5.279  13.336   6.450  1.00  0.00     0.007 A
HETATM   19  C28 UNL     1       5.649  14.393   7.221  1.00  0.00     0.001 A
HETATM   20  C29 UNL     1       5.482  15.684   6.778  1.00  0.00     0.001 A
HETATM   21  C30 UNL     1       4.932  15.904   5.534  1.00  0.00     0.009 A
HETATM   22  C31 UNL     1       4.545  14.862   4.724  1.00  0.00    -0.038 A
ENDROOT
BRANCH   6  23
HETATM   23  C3  UNL     1       7.446  18.320  -0.234  1.00  0.00     0.311 C
HETATM   24  O2  UNL     1       6.866  18.301  -1.340  1.00  0.00    -0.262 OA
HETATM   25  N3  UNL     1       8.238  19.427   0.122  1.00  0.00    -0.336 N
ATOM     26  H3  UNL     1       8.686  19.382   1.038  1.00  0.00     0.164 HD
BRANCH  25  27
HETATM   27  C4  UNL     1       8.496  20.631  -0.659  1.00  0.00     0.098 A
HETATM   28  C15 UNL     1       9.972  20.982  -0.710  1.00  0.00     0.040 A
HETATM   29  C16 UNL     1      10.038  20.766  -2.196  1.00  0.00     0.006 A
HETATM   30  C17 UNL     1       8.582  20.296  -2.116  1.00  0.00     0.040 A
BRANCH  27  31
HETATM   31  C5  UNL     1       7.564  21.703  -0.280  1.00  0.00     0.142 C
BRANCH  31  32
HETATM   32  O3  UNL     1       6.382  21.219   0.046  1.00  0.00    -0.348 OA
ATOM     33  H3  UNL     1       5.699  21.868  -0.070  1.00  0.00     0.219 HD
ENDBRANCH  31  32
BRANCH  31  34
HETATM   34  N4  UNL     1       7.649  23.084  -0.191  1.00  0.00    -0.362 N
HETATM   35  C6  UNL     1       6.370  23.702  -0.663  1.00  0.00     0.125 C
HETATM   36  C7  UNL     1       6.426  24.033  -2.118  1.00  0.00     0.022 C
HETATM   37  C8  UNL     1       6.249  25.538  -2.347  1.00  0.00     0.037 C
HETATM   38  C9  UNL     1       7.208  26.256  -1.440  1.00  0.00     0.223 C
HETATM   39  C10 UNL     1       7.680  27.565  -2.035  1.00  0.00     0.037 C
HETATM   40  N5  UNL     1       8.364  25.448  -1.221  1.00  0.00     0.094 N
HETATM   41  C11 UNL     1       8.905  27.127  -2.807  1.00  0.00     0.032 C
HETATM   42  C12 UNL     1       9.435  25.948  -2.023  1.00  0.00     0.273 C
HETATM   43  C13 UNL     1       8.687  25.241   0.155  1.00  0.00     0.292 C
HETATM   44  C14 UNL     1       8.846  23.690   0.287  1.00  0.00     0.155 C
ENDBRANCH  31  34
ENDBRANCH  27  31
ENDBRANCH  25  27
ENDBRANCH   6  23
BRANCH   9  45
HETATM   45  O4  UNL     1       4.335  15.059   1.114  1.00  0.00    -0.367 OA
ATOM     46  H4  UNL     1       4.414  15.745   0.462  1.00  0.00     0.212 HD
ENDBRANCH   9  45
TORSDOF 6
ENDMDL