MODEL 3
REMARK VINA RESULT: -7.092932896      3.079      4.119
REMARK  3 active torsions:
REMARK  status: ('A' for Active; 'I' for Inactive)
REMARK    1  A    between atoms: N1_1  and  C1_5
REMARK    2  A    between atoms: C4_10  and  C5_11
REMARK       I    between atoms: C5_11  and  N2_13
REMARK    3  A    between atoms: C11_21  and  O2_22
ROOT
HETATM    1  C1  UNL     1      12.219  26.597  -0.694  1.00  0.00     0.262 C
HETATM    2  C2  UNL     1      12.992  25.862   0.358  1.00  0.00     0.127 C
HETATM    3  S1  UNL     1      14.443  25.052  -0.356  1.00  0.00    -0.095 SA
HETATM    4  S2  UNL     1      14.052  22.965  -0.569  1.00  0.00    -0.095 SA
HETATM    5  C3  UNL     1      12.488  22.699  -1.460  1.00  0.00     0.120 C
HETATM    6  C4  UNL     1      12.616  21.561  -2.370  1.00  0.00     0.185 C
HETATM    7  N3  UNL     1      11.590  20.559  -2.331  1.00  0.00    -0.358 N
ATOM      8  H3  UNL     1      11.884  19.692  -2.782  1.00  0.00     0.162 HD
HETATM    9  C11 UNL     1      10.299  20.478  -1.833  1.00  0.00     0.141 C
HETATM   10  C12 UNL     1       9.737  20.363  -0.479  1.00  0.00     0.097 C
HETATM   11  C13 UNL     1       8.696  19.203  -0.444  1.00  0.00     0.040 C
HETATM   12  C14 UNL     1       9.460  17.993  -0.019  1.00  0.00     0.003 C
HETATM   13  C15 UNL     1      10.712  18.463   0.669  1.00  0.00     0.003 C
HETATM   14  C16 UNL     1      10.722  19.949   0.589  1.00  0.00     0.040 C
HETATM   15  N4  UNL     1       9.006  21.480   0.022  1.00  0.00    -0.343 N
ATOM     16  H4  UNL     1       8.606  21.309   0.945  1.00  0.00     0.163 HD
HETATM   17  C17 UNL     1       8.716  22.741  -0.462  1.00  0.00     0.244 C
HETATM   18  O3  UNL     1       9.066  23.705   0.331  1.00  0.00    -0.272 OA
HETATM   19  C18 UNL     1       8.083  23.169  -1.707  1.00  0.00     0.339 C
HETATM   20  N5  UNL     1       7.508  24.531  -1.584  1.00  0.00    -0.059 N
HETATM   21  C19 UNL     1       6.653  24.567  -0.467  1.00  0.00     0.238 C
HETATM   22  C20 UNL     1       5.206  24.709  -0.952  1.00  0.00     0.029 C
HETATM   23  C21 UNL     1       5.424  25.403  -2.288  1.00  0.00     0.029 C
HETATM   24  C22 UNL     1       6.646  24.654  -2.777  1.00  0.00     0.238 C
HETATM   25  C23 UNL     1       8.511  25.526  -1.720  1.00  0.00     0.238 C
HETATM   26  C24 UNL     1       8.464  26.700  -0.817  1.00  0.00     0.035 C
HETATM   27  C25 UNL     1       9.780  27.471  -1.035  1.00  0.00     0.082 C
HETATM   28  C26 UNL     1      10.856  26.929  -0.166  1.00  0.00     0.158 C
HETATM   29  O4  UNL     1      10.606  26.754   1.012  1.00  0.00    -0.296 OA
ENDROOT
BRANCH   6  30
HETATM   30  C5  UNL     1      13.929  20.897  -2.136  1.00  0.00     0.243 C
HETATM   31  O1  UNL     1      14.015  20.033  -1.194  1.00  0.00    -0.271 OA
HETATM   32  N2  UNL     1      15.041  21.215  -2.935  1.00  0.00    -0.350 N
HETATM   33  C6  UNL     1      15.091  22.134  -4.038  1.00  0.00     0.126 C
HETATM   34  C10 UNL     1      16.320  20.543  -2.639  1.00  0.00     0.126 C
HETATM   35  C7  UNL     1      15.357  21.283  -5.286  1.00  0.00     0.020 C
HETATM   36  C8  UNL     1      15.661  19.856  -4.928  1.00  0.00     0.003 C
HETATM   37  C9  UNL     1      16.755  19.832  -3.894  1.00  0.00     0.020 C
ENDBRANCH   6  30
BRANCH   9  38
HETATM   38  O2  UNL     1       9.339  20.502  -2.721  1.00  0.00    -0.348 OA
ATOM     39  H2  UNL     1       8.652  19.856  -2.609  1.00  0.00     0.219 HD
ENDBRANCH   9  38
BRANCH   1  40
HETATM   40  N1  UNL     1      12.927  27.834  -1.058  1.00  0.00    -0.068 N
ATOM     41  H13 UNL     1      13.397  28.256  -0.257  1.00  0.00     0.275 HD
ATOM     42  H12 UNL     1      13.749  27.651  -1.632  1.00  0.00     0.275 HD
ATOM     43  H11 UNL     1      12.280  28.481  -1.508  1.00  0.00     0.275 HD
ENDBRANCH   1  40
TORSDOF 3
ENDMDL