MODEL 2
REMARK VINA RESULT: -7.924524523      3.101      3.637
REMARK  5 active torsions:
REMARK  status: ('A' for Active; 'I' for Inactive)
REMARK       I    between atoms: C2_2  and  N1_4
REMARK    1  A    between atoms: C11_16  and  C12_17
REMARK    2  A    between atoms: C12_17  and  O3_18
REMARK    3  A    between atoms: C12_17  and  N3_20
REMARK       I    between atoms: N4_23  and  C15_24
REMARK    4  A    between atoms: C15_24  and  C16_26
REMARK    5  A    between atoms: C16_26  and  O5_29
ROOT
HETATM    1  C1  UNL     1       8.284   8.102   3.506  1.00  0.00     0.117 C
HETATM    2  C2  UNL     1       7.290   9.071   4.016  1.00  0.00     0.215 C
HETATM    3  O1  UNL     1       6.105   8.623   4.144  1.00  0.00    -0.274 OA
HETATM    4  N1  UNL     1       7.524  10.410   4.367  1.00  0.00    -0.352 N
HETATM    5  C3  UNL     1       8.808  11.016   4.218  1.00  0.00     0.126 C
HETATM    6  C4  UNL     1       9.406  11.041   2.864  1.00  0.00     0.021 C
HETATM    7  C5  UNL     1       8.500  11.214   1.700  1.00  0.00     0.021 C
HETATM    8  C6  UNL     1       8.320  12.614   1.205  1.00  0.00     0.122 C
HETATM    9  N2  UNL     1       8.917  13.642   1.986  1.00  0.00    -0.361 N
ATOM     10  H2  UNL     1       9.259  13.442   2.926  1.00  0.00     0.162 HD
HETATM   11  C7  UNL     1       9.032  14.955   1.442  1.00  0.00     0.221 C
HETATM   12  O2  UNL     1       9.954  15.744   1.806  1.00  0.00    -0.273 OA
HETATM   13  C8  UNL     1       8.070  15.449   0.426  1.00  0.00     0.137 C
HETATM   14  C9  UNL     1       8.424  16.882   0.029  1.00  0.00    -0.065 C
HETATM   15  C10 UNL     1       9.466  16.971  -0.994  1.00  0.00     0.044 C
HETATM   16  C11 UNL     1       7.858  17.882   0.635  1.00  0.00    -0.005 C
HETATM   17  C21 UNL     1       6.837  17.527   1.749  1.00  0.00     0.043 C
HETATM   18  C22 UNL     1       5.453  17.543   1.227  1.00  0.00     0.006 C
HETATM   19  C23 UNL     1       4.513  16.634   1.987  1.00  0.00     0.020 C
HETATM   20  C24 UNL     1       4.218  17.120   3.388  1.00  0.00     0.122 C
HETATM   21  N5  UNL     1       4.900  16.370   4.403  1.00  0.00    -0.361 N
ATOM     22  H5  UNL     1       5.246  16.896   5.206  1.00  0.00     0.162 HD
HETATM   23  C25 UNL     1       5.142  14.981   4.405  1.00  0.00     0.217 C
HETATM   24  O6  UNL     1       6.324  14.570   4.670  1.00  0.00    -0.274 OA
HETATM   25  C26 UNL     1       4.140  13.927   4.125  1.00  0.00     0.103 C
HETATM   26  C27 UNL     1       4.476  12.612   4.810  1.00  0.00     0.011 C
HETATM   27  C28 UNL     1       5.537  11.858   3.998  1.00  0.00     0.020 C
HETATM   28  C29 UNL     1       6.453  11.183   4.950  1.00  0.00     0.125 C
ENDROOT
BRANCH  16  29
HETATM   29  C12 UNL     1       8.032  19.267   0.421  1.00  0.00     0.144 C
BRANCH  29  30
HETATM   30  O3  UNL     1       9.144  19.636   1.160  1.00  0.00    -0.346 OA
ATOM     31  H3  UNL     1       9.457  20.449   0.781  1.00  0.00     0.219 HD
ENDBRANCH  29  30
BRANCH  29  32
HETATM   32  N3  UNL     1       7.553  20.386  -0.215  1.00  0.00    -0.355 N
HETATM   33  C13 UNL     1       8.564  21.117  -1.100  1.00  0.00     0.145 C
HETATM   34  C14 UNL     1       8.768  22.411  -0.340  1.00  0.00     0.151 C
HETATM   35  N4  UNL     1       7.573  23.199  -0.659  1.00  0.00    -0.326 N
HETATM   36  C15 UNL     1       7.755  24.539  -0.950  1.00  0.00     0.257 C
HETATM   37  C19 UNL     1       6.339  22.533  -0.644  1.00  0.00     0.086 C
HETATM   38  O4  UNL     1       8.944  25.027  -0.894  1.00  0.00    -0.270 OA
HETATM   39  C20 UNL     1       6.326  21.083  -0.189  1.00  0.00     0.169 C
BRANCH  36  40
HETATM   40  C16 UNL     1       6.699  25.472  -1.325  1.00  0.00     0.131 C
HETATM   41  C17 UNL     1       6.089  25.133  -2.683  1.00  0.00     0.056 C
HETATM   42  C18 UNL     1       7.340  26.850  -1.486  1.00  0.00     0.056 C
BRANCH  40  43
HETATM   43  O5  UNL     1       5.663  25.579  -0.426  1.00  0.00    -0.381 OA
ATOM     44  H5  UNL     1       5.803  26.196   0.282  1.00  0.00     0.211 HD
ENDBRANCH  40  43
ENDBRANCH  36  40
ENDBRANCH  29  32
ENDBRANCH  16  29
TORSDOF 5
ENDMDL