MODEL 5
REMARK VINA RESULT: -7.042393635      3.946      5.399
REMARK  5 active torsions:
REMARK  status: ('A' for Active; 'I' for Inactive)
REMARK    1  A    between atoms: C2_2  and  C5_5
REMARK    2  A    between atoms: C16_19  and  O1_20
REMARK    3  A    between atoms: C16_19  and  N4_22
REMARK    4  A    between atoms: N4_22  and  C17_24
REMARK    5  A    between atoms: C22_29  and  O2_30
ROOT
HETATM    1  C5  UNL     1       6.971  23.552  -1.794  1.00  0.00    -0.007 C
HETATM    2  C6  UNL     1       7.033  22.767  -0.533  1.00  0.00     0.007 C
HETATM    3  C7  UNL     1       8.430  22.435  -0.095  1.00  0.00     0.027 C
HETATM    4  C8  UNL     1       9.168  21.565  -1.127  1.00  0.00     0.086 C
HETATM    5  C9  UNL     1       8.870  22.177  -2.477  1.00  0.00     0.027 C
HETATM    6  C10 UNL     1       8.365  23.612  -2.369  1.00  0.00     0.007 C
HETATM    7  C11 UNL     1      10.611  21.486  -0.811  1.00  0.00     0.153 C
HETATM    8  C12 UNL     1      11.520  21.735  -1.921  1.00  0.00     0.069 C
HETATM    9  N1  UNL     1      12.249  21.908  -2.810  1.00  0.00    -0.197 NA
HETATM   10  C13 UNL     1      11.036  20.370   0.110  1.00  0.00     0.214 C
HETATM   11  C14 UNL     1      12.440  20.725   0.426  1.00  0.00     0.086 C
HETATM   12  N2  UNL     1      13.555  20.988   0.691  1.00  0.00    -0.195 NA
HETATM   13  N3  UNL     1      10.911  19.058  -0.329  1.00  0.00    -0.326 N
HETATM   14  C15 UNL     1      11.290  17.956   0.423  1.00  0.00     0.096 C
HETATM   15  C16 UNL     1      11.565  17.894   1.820  1.00  0.00     0.162 C
HETATM   16  C22 UNL     1      12.250  17.101  -0.444  1.00  0.00     0.104 C
HETATM   17  C23 UNL     1      12.889  17.872  -1.552  1.00  0.00     0.045 C
HETATM   18  C24 UNL     1      13.042  17.018  -2.805  1.00  0.00     0.009 C
HETATM   19  C25 UNL     1      11.819  17.239  -3.631  1.00  0.00     0.052 C
HETATM   20  C26 UNL     1      10.506  17.124  -2.862  1.00  0.00    -0.015 C
HETATM   21  C27 UNL     1      10.476  16.011  -1.911  1.00  0.00     0.055 C
HETATM   22  C28 UNL     1      11.555  15.844  -0.927  1.00  0.00     0.050 C
HETATM   23  N5  UNL     1       9.944  18.392  -2.496  1.00  0.00    -0.363 N
ATOM     24  H5  UNL     1       9.666  19.049  -3.225  1.00  0.00     0.162 HD
HETATM   25  C29 UNL     1       9.773  18.742  -1.149  1.00  0.00     0.312 C
HETATM   26  S1  UNL     1       8.460  19.961  -0.991  1.00  0.00     0.194 S
HETATM   27  O3  UNL     1       7.658  19.770   0.247  1.00  0.00    -0.223 OA
HETATM   28  O4  UNL     1       7.539  19.753  -2.177  1.00  0.00    -0.223 OA
ENDROOT
BRANCH   1  29
HETATM   29  C2  UNL     1       6.349  24.913  -1.655  1.00  0.00    -0.048 C
HETATM   30  C1  UNL     1       5.811  25.469  -2.938  1.00  0.00     0.015 C
HETATM   31  C3  UNL     1       5.182  24.823  -0.676  1.00  0.00     0.015 C
HETATM   32  C4  UNL     1       7.326  25.913  -1.083  1.00  0.00     0.015 C
ENDBRANCH   1  29
BRANCH  15  33
HETATM   33  O1  UNL     1      12.019  16.696   2.184  1.00  0.00    -0.345 OA
ATOM     34  H1  UNL     1      11.313  16.077   2.326  1.00  0.00     0.219 HD
ENDBRANCH  15  33
BRANCH  15  35
HETATM   35  N4  UNL     1      11.508  18.692   2.946  1.00  0.00    -0.365 N
ATOM     36  H4  UNL     1      12.361  19.185   3.214  1.00  0.00     0.162 HD
BRANCH  35  37
HETATM   37  C17 UNL     1      10.336  18.887   3.782  1.00  0.00     0.083 C
HETATM   38  C18 UNL     1       9.449  17.681   3.841  1.00  0.00     0.025 C
HETATM   39  C19 UNL     1       8.436  18.145   4.893  1.00  0.00     0.002 C
HETATM   40  C20 UNL     1       9.229  19.055   5.822  1.00  0.00     0.002 C
HETATM   41  C21 UNL     1      10.609  19.187   5.206  1.00  0.00     0.025 C
ENDBRANCH  35  37
ENDBRANCH  15  35
BRANCH  16  42
HETATM   42  O2  UNL     1      13.332  16.635   0.310  1.00  0.00    -0.383 OA
ATOM     43  H2  UNL     1      14.006  17.298   0.389  1.00  0.00     0.211 HD
ENDBRANCH  16  42
TORSDOF 5
ENDMDL