MODEL 2
REMARK VINA RESULT: -7.411850381      0.980      1.256
REMARK  2 active torsions:
REMARK  status: ('A' for Active; 'I' for Inactive)
REMARK       I    between atoms: C2_2  and  N1_4
REMARK    1  A    between atoms: C3_5  and  C4_6
REMARK    2  A    between atoms: C4_6  and  C5_8
REMARK       I    between atoms: N3_31  and  C23_33
REMARK       I    between atoms: C23_33  and  N4_35
ROOT
HETATM    1  C1  UNL     1      11.959  16.010  -0.336  1.00  0.00     0.117 C
HETATM    2  C2  UNL     1      10.833  16.701   0.282  1.00  0.00     0.217 C
HETATM    3  O1  UNL     1      10.232  16.040   1.215  1.00  0.00    -0.274 OA
HETATM    4  N1  UNL     1      10.335  18.004  -0.034  1.00  0.00    -0.322 N
HETATM    5  C3  UNL     1      11.007  18.801  -1.044  1.00  0.00     0.170 C
HETATM    6  C6  UNL     1      12.444  19.060  -0.807  1.00  0.00     0.034 C
HETATM    7  C7  UNL     1      12.936  20.456  -0.808  1.00  0.00     0.012 C
HETATM    8  C8  UNL     1      11.991  21.566  -1.046  1.00  0.00     0.103 C
HETATM    9  C9  UNL     1      12.756  22.780  -1.441  1.00  0.00     0.217 C
HETATM   10  O5  UNL     1      13.986  22.681  -1.663  1.00  0.00    -0.274 OA
HETATM   11  N2  UNL     1      12.159  24.064  -1.582  1.00  0.00    -0.361 N
ATOM     12  H2  UNL     1      12.550  24.734  -2.244  1.00  0.00     0.162 HD
HETATM   13  C10 UNL     1      10.999  24.428  -0.791  1.00  0.00     0.122 C
HETATM   14  C11 UNL     1       9.708  24.271  -1.565  1.00  0.00     0.020 C
HETATM   15  C12 UNL     1       8.592  24.798  -0.670  1.00  0.00     0.002 C
HETATM   16  C13 UNL     1       7.275  24.145  -0.952  1.00  0.00     0.000 C
HETATM   17  C14 UNL     1       6.989  22.969  -0.049  1.00  0.00     0.000 C
HETATM   18  C15 UNL     1       6.158  21.952  -0.823  1.00  0.00     0.000 C
HETATM   19  C16 UNL     1       6.506  20.542  -0.413  1.00  0.00     0.000 C
HETATM   20  C17 UNL     1       7.957  20.180  -0.729  1.00  0.00     0.003 C
HETATM   21  C18 UNL     1       8.762  19.860   0.474  1.00  0.00     0.041 C
HETATM   22  C19 UNL     1       9.141  18.422   0.706  1.00  0.00     0.117 C
HETATM   23  C20 UNL     1       7.968  17.571   0.436  1.00  0.00     0.049 C
HETATM   24  C21 UNL     1       6.959  17.288   1.448  1.00  0.00     0.080 C
HETATM   25  C22 UNL     1       7.290  17.460   2.857  1.00  0.00     0.087 C
HETATM   26  N3  UNL     1       6.492  16.982   3.741  1.00  0.00    -0.298 N
ATOM     27  H3  UNL     1       5.644  16.489   3.462  1.00  0.00     0.172 HD
HETATM   28  C23 UNL     1       6.814  17.151   5.114  1.00  0.00     0.323 C
HETATM   29  O6  UNL     1       6.243  18.020   5.814  1.00  0.00    -0.247 OA
HETATM   30  N4  UNL     1       7.795  16.326   5.703  1.00  0.00    -0.334 N
HETATM   31  C24 UNL     1       8.569  15.267   5.092  1.00  0.00     0.127 C
HETATM   32  C25 UNL     1       8.779  14.269   6.217  1.00  0.00     0.022 C
HETATM   33  C26 UNL     1       8.181  14.904   7.463  1.00  0.00     0.022 C
HETATM   34  C27 UNL     1       8.235  16.382   7.081  1.00  0.00     0.127 C
HETATM   35  N5  UNL     1       8.486  18.154   3.173  1.00  0.00    -0.314 N
ATOM     36  H5  UNL     1       8.638  18.500   4.121  1.00  0.00     0.170 HD
HETATM   37  C28 UNL     1       9.466  18.369   2.184  1.00  0.00     0.251 C
HETATM   38  O7  UNL     1      10.665  18.519   2.598  1.00  0.00    -0.270 OA
ENDROOT
BRANCH   5  39
HETATM   39  C4  UNL     1      10.790  18.242  -2.394  1.00  0.00     0.247 C
HETATM   40  O2  UNL     1      11.560  18.674  -3.330  1.00  0.00    -0.283 OA
BRANCH  39  41
HETATM   41  C5  UNL     1       9.822  17.268  -2.814  1.00  0.00     0.249 C
HETATM   42  O3  UNL     1       8.569  17.358  -2.732  1.00  0.00    -0.642 OA
HETATM   43  O4  UNL     1      10.229  16.038  -3.395  1.00  0.00    -0.642 OA
ENDBRANCH  39  41
ENDBRANCH   5  39
TORSDOF 2
ENDMDL