MODEL 3
REMARK VINA RESULT: -9.112852317      2.925     11.136
REMARK  5 active torsions:
REMARK  status: ('A' for Active; 'I' for Inactive)
REMARK    1  A    between atoms: N1_1  and  C1_5
REMARK    2  A    between atoms: C1_5  and  N2_6
REMARK    3  A    between atoms: C1_5  and  C24_34
REMARK    4  A    between atoms: N2_6  and  C2_8
REMARK    5  A    between atoms: C12_21  and  C13_22
ROOT
HETATM    1  C2  UNL     1       8.255  18.671  -0.077  1.00  0.00     0.147 A
HETATM    2  N3  UNL     1       8.357  17.351   0.079  1.00  0.00    -0.339 N
ATOM      3  H3  UNL     1       9.123  16.833  -0.352  1.00  0.00     0.168 HD
HETATM    4  C3  UNL     1       7.450  16.729   0.800  1.00  0.00     0.030 A
HETATM    5  C4  UNL     1       6.448  17.490   1.349  1.00  0.00     0.038 A
HETATM    6  S1  UNL     1       6.844  19.053   0.813  1.00  0.00    -0.052 SA
HETATM    7  C5  UNL     1       5.532  16.651   2.102  1.00  0.00    -0.019 C
HETATM    8  C6  UNL     1       4.350  16.455   2.578  1.00  0.00    -0.017 A
HETATM    9  C7  UNL     1       3.237  17.278   2.476  1.00  0.00     0.013 A
HETATM   10  C8  UNL     1       2.034  16.825   2.962  1.00  0.00     0.001 A
HETATM   11  C9  UNL     1       1.956  15.577   3.534  1.00  0.00     0.001 A
HETATM   12  C10 UNL     1       3.059  14.755   3.637  1.00  0.00     0.012 A
HETATM   13  C11 UNL     1       4.286  15.174   3.161  1.00  0.00    -0.021 A
HETATM   14  C12 UNL     1       5.512  14.615   3.118  1.00  0.00    -0.042 C
HETATM   15  C22 UNL     1       6.471  15.525   2.559  1.00  0.00     0.058 C
HETATM   16  C23 UNL     1       7.131  15.309   1.257  1.00  0.00     0.072 C
ENDROOT
BRANCH   1  17
HETATM   17  N2  UNL     1       9.055  19.467  -0.756  1.00  0.00    -0.341 N
ATOM     18  H2  UNL     1      10.048  19.268  -0.879  1.00  0.00     0.163 HD
BRANCH  17  19
HETATM   19  C1  UNL     1       8.426  20.646  -1.315  1.00  0.00     0.320 C
BRANCH  19  20
HETATM   20  N1  UNL     1       8.818  20.861  -2.672  1.00  0.00    -0.055 N
ATOM     21  H13 UNL     1       9.823  20.739  -2.792  1.00  0.00     0.276 HD
ATOM     22  H12 UNL     1       8.492  20.107  -3.277  1.00  0.00     0.276 HD
ATOM     23  H11 UNL     1       8.510  21.771  -3.015  1.00  0.00     0.276 HD
ENDBRANCH  19  20
BRANCH  19  24
HETATM   24  C24 UNL     1       8.828  21.876  -0.505  1.00  0.00     0.240 C
HETATM   25  O1  UNL     1       7.668  22.598  -0.182  1.00  0.00    -0.333 OA
HETATM   26  C25 UNL     1       7.185  23.629  -0.944  1.00  0.00     0.096 A
HETATM   27  C26 UNL     1       5.864  24.082  -0.813  1.00  0.00     0.039 A
HETATM   28  C30 UNL     1       7.997  24.242  -1.860  1.00  0.00     0.066 A
HETATM   29  C27 UNL     1       5.416  25.113  -1.590  1.00  0.00     0.003 A
HETATM   30  C28 UNL     1       6.221  25.740  -2.516  1.00  0.00     0.002 A
HETATM   31  C29 UNL     1       7.518  25.274  -2.624  1.00  0.00     0.032 A
HETATM   32  N4  UNL     1       9.336  23.793  -2.002  1.00  0.00    -0.346 N
HETATM   33  C31 UNL     1       9.831  22.704  -1.192  1.00  0.00     0.111 C
ATOM     34  H4  UNL     1       9.952  24.241  -2.681  1.00  0.00     0.167 HD
HETATM   35  S3  UNL     1      11.438  22.491  -1.112  1.00  0.00    -0.062 SA
ENDBRANCH  19  24
ENDBRANCH  17  19
ENDBRANCH   1  17
BRANCH  14  36
HETATM   36  C13 UNL     1       5.734  13.229   3.671  1.00  0.00     0.105 A
HETATM   37  C14 UNL     1       5.605  12.264   2.576  1.00  0.00     0.005 A
HETATM   38  C15 UNL     1       6.441  11.395   2.110  1.00  0.00    -0.028 A
HETATM   39  C16 UNL     1       6.016  10.594   1.028  1.00  0.00     0.012 A
HETATM   40  C20 UNL     1       7.702  11.183   2.573  1.00  0.00    -0.020 A
HETATM   41  C17 UNL     1       6.807   9.636   0.443  1.00  0.00     0.001 A
HETATM   42  C18 UNL     1       8.068   9.434   0.916  1.00  0.00     0.001 A
HETATM   43  C19 UNL     1       8.502  10.201   1.967  1.00  0.00     0.012 A
HETATM   44  C21 UNL     1       8.261  11.834   3.569  1.00  0.00     0.058 A
HETATM   45  S2  UNL     1       7.365  13.095   4.418  1.00  0.00    -0.127 SA
ENDBRANCH  14  36
TORSDOF 5
ENDMDL