MODEL 4
REMARK VINA RESULT: -8.262886779      1.317      1.779
REMARK  4 active torsions:
REMARK  status: ('A' for Active; 'I' for Inactive)
REMARK    1  A    between atoms: C23_28  and  C24_29
REMARK    2  A    between atoms: C24_29  and  O1_30
REMARK    3  A    between atoms: C24_29  and  N4_32
REMARK    4  A    between atoms: C27_35  and  N5_36
ROOT
HETATM    1  C1  UNL     1      10.809  20.121  -2.408  1.00  0.00     0.015 C
HETATM    2  C2  UNL     1      11.093  18.695  -2.130  1.00  0.00    -0.037 A
HETATM    3  C3  UNL     1      11.938  18.081  -3.273  1.00  0.00     0.015 C
HETATM    4  C4  UNL     1      11.607  18.376  -0.782  1.00  0.00     0.002 A
HETATM    5  C5  UNL     1      11.145  19.080   0.441  1.00  0.00     0.015 C
HETATM    6  C6  UNL     1      10.023  18.162   0.889  1.00  0.00     0.040 C
HETATM    7  C7  UNL     1      10.811  17.026   1.541  1.00  0.00     0.126 C
HETATM    8  N1  UNL     1      10.565  16.906   2.965  1.00  0.00    -0.398 N
ATOM      9  H1  UNL     1      10.798  17.689   3.576  1.00  0.00     0.158 HD
HETATM   10  C8  UNL     1      10.032  15.777   3.510  1.00  0.00     0.085 C
HETATM   11  C9  UNL     1       8.663  15.236   3.179  1.00  0.00    -0.064 C
HETATM   12  C10 UNL     1       8.736  14.295   2.018  1.00  0.00     0.037 C
HETATM   13  C11 UNL     1       8.147  14.724   0.746  1.00  0.00     0.029 C
HETATM   14  C12 UNL     1       7.877  16.186   0.643  1.00  0.00     0.078 C
HETATM   15  C13 UNL     1       6.388  16.279   1.003  1.00  0.00     0.035 C
HETATM   16  C14 UNL     1       6.308  15.948   2.467  1.00  0.00    -0.024 C
HETATM   17  C15 UNL     1       7.531  16.154   3.293  1.00  0.00     0.046 C
HETATM   18  C16 UNL     1       5.220  16.940   2.945  1.00  0.00     0.023 C
HETATM   19  C17 UNL     1       4.860  16.540   4.333  1.00  0.00     0.014 C
HETATM   20  C18 UNL     1       4.767  15.053   4.131  1.00  0.00     0.021 C
HETATM   21  C19 UNL     1       3.308  14.868   3.661  1.00  0.00     0.277 C
HETATM   22  N2  UNL     1       3.520  15.252   2.251  1.00  0.00     0.089 N
HETATM   23  C20 UNL     1       3.996  16.579   2.088  1.00  0.00     0.277 C
HETATM   24  C21 UNL     1       4.532  14.237   1.973  1.00  0.00     0.278 C
HETATM   25  C22 UNL     1       5.612  14.711   2.881  1.00  0.00     0.029 C
HETATM   26  N3  UNL     1       8.389  16.785  -0.484  1.00  0.00    -0.401 N
ATOM     27  H3  UNL     1       8.153  16.438  -1.414  1.00  0.00     0.154 HD
HETATM   28  C23 UNL     1       9.291  17.946  -0.312  1.00  0.00     0.101 C
HETATM   29  C34 UNL     1      10.339  17.746  -1.388  1.00  0.00     0.035 A
ENDROOT
BRANCH  28  30
HETATM   30  C24 UNL     1       8.401  19.008  -0.780  1.00  0.00     0.143 C
BRANCH  30  31
HETATM   31  O1  UNL     1       7.883  18.672  -1.968  1.00  0.00    -0.347 OA
ATOM     32  H1  UNL     1       7.872  19.432  -2.539  1.00  0.00     0.219 HD
ENDBRANCH  30  31
BRANCH  30  33
HETATM   33  N4  UNL     1       7.929  20.229  -0.389  1.00  0.00    -0.363 N
HETATM   34  C25 UNL     1       6.650  20.753  -0.021  1.00  0.00     0.126 C
HETATM   35  C26 UNL     1       6.231  21.923  -0.909  1.00  0.00     0.045 C
HETATM   36  C27 UNL     1       7.319  22.925  -1.095  1.00  0.00     0.082 C
HETATM   37  C32 UNL     1       8.359  22.647  -0.030  1.00  0.00     0.045 C
HETATM   38  C33 UNL     1       8.955  21.321  -0.290  1.00  0.00     0.126 C
BRANCH  36  39
HETATM   39  N5  UNL     1       6.920  24.288  -1.152  1.00  0.00    -0.405 N
HETATM   40  C28 UNL     1       7.891  25.267  -0.849  1.00  0.00     0.144 C
HETATM   41  C29 UNL     1       8.457  25.990  -2.042  1.00  0.00     0.251 C
HETATM   42  N6  UNL     1       7.612  26.002  -3.197  1.00  0.00    -0.072 N
HETATM   43  C30 UNL     1       6.220  25.897  -2.886  1.00  0.00     0.251 C
ATOM     44  H62 UNL     1       7.794  26.827  -3.769  1.00  0.00     0.277 HD
ATOM     45  H61 UNL     1       7.891  25.275  -3.856  1.00  0.00     0.277 HD
HETATM   46  C31 UNL     1       5.992  24.589  -2.190  1.00  0.00     0.144 C
ENDBRANCH  36  39
ENDBRANCH  30  33
ENDBRANCH  28  30
TORSDOF 4
ENDMDL