MODEL 5
REMARK VINA RESULT: -7.835738834      2.753      9.691
REMARK  5 active torsions:
REMARK  status: ('A' for Active; 'I' for Inactive)
REMARK    1  A    between atoms: N1_1  and  N2_4
REMARK    2  A    between atoms: N2_4  and  O1_5
REMARK       I    between atoms: N3_7  and  C1_9
REMARK       I    between atoms: C1_9  and  N4_11
REMARK    3  A    between atoms: C3_14  and  C4_15
REMARK    4  A    between atoms: C3_14  and  C10_21
REMARK       I    between atoms: N5_29  and  C17_31
REMARK    5  A    between atoms: C17_31  and  C18_33
ROOT
HETATM    1  N2  UNL     1       3.115  16.953   2.287  1.00  0.00    -0.098 N
HETATM    2  N3  UNL     1       4.161  16.304   2.542  1.00  0.00    -0.209 N
ATOM      3  H3  UNL     1       5.016  16.595   2.067  1.00  0.00     0.196 HD
HETATM    4  C1  UNL     1       4.258  15.226   3.415  1.00  0.00     0.353 C
HETATM    5  O2  UNL     1       3.177  14.561   3.605  1.00  0.00    -0.244 OA
HETATM    6  N4  UNL     1       5.426  14.780   4.122  1.00  0.00    -0.209 N
HETATM    7  C2  UNL     1       5.462  13.701   5.052  1.00  0.00     0.263 C
HETATM    8  O3  UNL     1       4.664  12.700   4.924  1.00  0.00    -0.270 OA
HETATM    9  C3  UNL     1       6.428  13.808   6.120  1.00  0.00     0.151 C
HETATM   10  S1  UNL     1       7.242  15.429   5.754  1.00  0.00    -0.063 SA
HETATM   11  C16 UNL     1       6.709  15.401   3.979  1.00  0.00     0.162 C
HETATM   12  N5  UNL     1       7.401  15.810   3.036  1.00  0.00    -0.305 N
ATOM     13  H5  UNL     1       8.276  16.199   3.385  1.00  0.00     0.171 HD
HETATM   14  C17 UNL     1       7.355  15.901   1.667  1.00  0.00     0.247 C
HETATM   15  O4  UNL     1       6.878  14.963   0.926  1.00  0.00    -0.271 OA
ENDROOT
BRANCH   9  16
HETATM   16  C4  UNL     1       7.561  12.845   6.088  1.00  0.00    -0.025 A
HETATM   17  C5  UNL     1       8.682  13.172   6.838  1.00  0.00     0.009 A
HETATM   18  C6  UNL     1       9.792  12.362   6.890  1.00  0.00     0.001 A
HETATM   19  C7  UNL     1       9.809  11.190   6.183  1.00  0.00     0.000 A
HETATM   20  C8  UNL     1       8.703  10.854   5.435  1.00  0.00     0.001 A
HETATM   21  C9  UNL     1       7.587  11.679   5.390  1.00  0.00     0.009 A
ENDBRANCH   9  16
BRANCH   9  22
HETATM   22  C10 UNL     1       5.869  13.816   7.478  1.00  0.00    -0.025 A
HETATM   23  C11 UNL     1       5.642  15.036   8.086  1.00  0.00     0.009 A
HETATM   24  C12 UNL     1       5.120  15.127   9.362  1.00  0.00     0.001 A
HETATM   25  C13 UNL     1       4.804  13.995  10.084  1.00  0.00     0.000 A
HETATM   26  C14 UNL     1       5.026  12.774   9.485  1.00  0.00     0.001 A
HETATM   27  C15 UNL     1       5.552  12.691   8.199  1.00  0.00     0.009 A
ENDBRANCH   9  22
BRANCH  14  28
HETATM   28  C18 UNL     1       7.855  17.090   0.893  1.00  0.00     0.189 C
HETATM   29  C19 UNL     1       6.660  17.816   0.360  1.00  0.00     0.075 C
HETATM   30  C20 UNL     1       7.003  19.139  -0.210  1.00  0.00    -0.032 A
HETATM   31  C21 UNL     1       6.262  20.262   0.076  1.00  0.00     0.009 A
HETATM   32  C25 UNL     1       8.085  19.239  -1.043  1.00  0.00     0.085 A
HETATM   33  C22 UNL     1       6.619  21.494  -0.483  1.00  0.00     0.001 A
HETATM   34  C23 UNL     1       7.720  21.566  -1.324  1.00  0.00     0.002 A
HETATM   35  C24 UNL     1       8.462  20.458  -1.615  1.00  0.00     0.026 A
HETATM   36  S2  UNL     1       8.996  17.787  -1.375  1.00  0.00     0.260 S
HETATM   37  O5  UNL     1      10.465  18.137  -1.397  1.00  0.00    -0.200 OA
HETATM   38  O6  UNL     1       8.607  17.211  -2.706  1.00  0.00    -0.200 OA
HETATM   39  N6  UNL     1       8.757  16.640  -0.111  1.00  0.00    -0.301 N
ATOM     40  H6  UNL     1       9.215  15.730  -0.085  1.00  0.00     0.173 HD
ENDBRANCH  14  28
BRANCH   1  41
HETATM   41  N1  UNL     1       1.931  16.599   2.904  1.00  0.00    -0.303 N
ATOM     42  H12 UNL     1       1.095  17.162   2.745  1.00  0.00     0.181 HD
ATOM     43  H11 UNL     1       1.904  15.781   3.512  1.00  0.00     0.181 HD
ENDBRANCH   1  41
BRANCH   1  44
HETATM   44  O1  UNL     1       3.132  17.997   1.410  1.00  0.00    -0.254 OA
ATOM     45  H1  UNL     1       3.804  18.665   1.487  1.00  0.00     0.248 HD
ENDBRANCH   1  44
TORSDOF 5
ENDMDL