MODEL 4
REMARK VINA RESULT: -5.268943966      4.300      6.431
REMARK  3 active torsions:
REMARK  status: ('A' for Active; 'I' for Inactive)
REMARK    1  A    between atoms: C2_2  and  S1_3
REMARK    2  A    between atoms: S1_3  and  C3_5
REMARK    3  A    between atoms: C6_8  and  C7_9
ROOT
HETATM    1  C3  UNL     1      -2.200  13.661  23.881  1.00  0.00     0.112 C
HETATM    2  C4  UNL     1      -2.853  14.988  24.199  1.00  0.00     0.022 C
HETATM    3  C5  UNL     1      -4.000  15.183  23.264  1.00  0.00     0.037 C
HETATM    4  C6  UNL     1      -4.601  13.948  22.723  1.00  0.00     0.226 C
HETATM    5  N1  UNL     1      -4.460  12.773  23.507  1.00  0.00     0.090 N
HETATM    6  C13 UNL     1      -4.715  11.626  22.650  1.00  0.00     0.310 C
HETATM    7  C14 UNL     1      -3.224  12.597  24.174  1.00  0.00     0.290 C
ENDROOT
BRANCH   4   8
HETATM    8  C7  UNL     1      -6.081  14.121  22.425  1.00  0.00     0.019 C
HETATM    9  C8  UNL     1      -6.845  14.617  23.628  1.00  0.00     0.007 C
HETATM   10  C9  UNL     1      -8.326  14.440  23.266  1.00  0.00     0.000 C
HETATM   11  C10 UNL     1      -8.618  15.431  22.168  1.00  0.00     0.000 C
HETATM   12  C11 UNL     1      -7.706  15.345  21.006  1.00  0.00     0.000 C
HETATM   13  C12 UNL     1      -6.275  15.118  21.313  1.00  0.00     0.007 C
ENDBRANCH   4   8
BRANCH   1  14
HETATM   14  S1  UNL     1      -0.775  13.416  24.912  1.00  0.00     0.044 S
HETATM   15  O1  UNL     1       0.476  14.366  24.328  1.00  0.00    -0.253 OA
BRANCH  14  16
HETATM   16  C2  UNL     1      -1.104  13.873  26.573  1.00  0.00     0.069 C
HETATM   17  C1  UNL     1      -0.255  14.652  27.212  1.00  0.00     0.021 C
ENDBRANCH  14  16
ENDBRANCH   1  14
TORSDOF 3
ENDMDL