MODEL 4
REMARK VINA RESULT: -6.042933233      5.282      7.169
REMARK  2 active torsions:
REMARK  status: ('A' for Active; 'I' for Inactive)
REMARK       I    between atoms: C1_2  and  N1_3
REMARK    1  A    between atoms: C1_2  and  C12_15
REMARK    2  A    between atoms: N1_3  and  C2_5
ROOT
HETATM    1  C2  UNL     1      -1.366  12.234  28.117  1.00  0.00     0.092 C
HETATM    2  C3  UNL     1      -2.849  12.033  28.082  1.00  0.00     0.009 C
HETATM    3  C4  UNL     1      -3.269  11.650  29.500  1.00  0.00     0.011 C
HETATM    4  C5  UNL     1      -2.623  10.344  29.859  1.00  0.00    -0.013 C
HETATM    5  C6  UNL     1      -3.046   9.287  28.852  1.00  0.00     0.009 C
HETATM    6  C7  UNL     1      -2.530   9.642  27.475  1.00  0.00    -0.013 C
HETATM    7  C8  UNL     1      -3.205  10.965  27.109  1.00  0.00     0.011 C
HETATM    8  C9  UNL     1      -1.054   9.866  27.433  1.00  0.00     0.011 C
HETATM    9  C10 UNL     1      -0.684  10.934  28.424  1.00  0.00     0.009 C
HETATM   10  C11 UNL     1      -1.130  10.437  29.806  1.00  0.00     0.011 C
ENDROOT
BRANCH   1  11
HETATM   11  N1  UNL     1      -0.920  12.756  26.862  1.00  0.00    -0.354 N
HETATM   12  C1  UNL     1      -0.324  14.034  26.762  1.00  0.00     0.247 C
HETATM   13  O1  UNL     1      -0.185  14.718  27.797  1.00  0.00    -0.271 OA
ATOM     14  H1  UNL     1      -1.035  12.192  26.019  1.00  0.00     0.163 HD
BRANCH  12  15
HETATM   15  C12 UNL     1       0.116  14.531  25.472  1.00  0.00     0.213 C
HETATM   16  C13 UNL     1      -0.491  13.805  24.289  1.00  0.00     0.043 C
HETATM   17  C14 UNL     1       0.414  14.313  23.157  1.00  0.00     0.029 C
HETATM   18  C15 UNL     1       1.559  14.943  23.935  1.00  0.00     0.168 C
HETATM   19  O2  UNL     1       1.463  14.420  25.226  1.00  0.00    -0.376 OA
ENDBRANCH  12  15
ENDBRANCH   1  11
TORSDOF 2
ENDMDL