MODEL 3
REMARK VINA RESULT: -5.765293650      0.868      1.489
REMARK  3 active torsions:
REMARK  status: ('A' for Active; 'I' for Inactive)
REMARK    1  A    between atoms: C3_3  and  N1_4
REMARK    2  A    between atoms: N1_4  and  C4_6
REMARK    3  A    between atoms: C10_12  and  N2_13
ROOT
HETATM    1  C1  UNL     1       2.013  10.412  31.151  1.00  0.00     0.018 C
HETATM    2  C2  UNL     1       1.406   9.662  30.424  1.00  0.00    -0.073 C
HETATM    3  C3  UNL     1       0.636   8.751  29.536  1.00  0.00     0.148 C
ENDROOT
BRANCH   3   4
HETATM    4  N1  UNL     1      -0.722   8.976  29.796  1.00  0.00    -0.383 N
ATOM      5  H1  UNL     1      -1.178   8.442  30.535  1.00  0.00     0.160 HD
BRANCH   4   6
HETATM    6  C4  UNL     1      -1.467   9.908  29.076  1.00  0.00     0.036 C
HETATM    7  C5  UNL     1      -2.834   9.243  28.812  1.00  0.00     0.036 C
HETATM    8  C6  UNL     1      -3.700  10.480  28.707  1.00  0.00    -0.009 C
HETATM    9  C7  UNL     1      -3.312  11.188  29.977  1.00  0.00     0.012 C
HETATM   10  C16 UNL     1      -3.236  11.180  27.460  1.00  0.00     0.036 C
HETATM   11  C8  UNL     1      -1.786  11.187  29.810  1.00  0.00     0.016 C
HETATM   12  C9  UNL     1      -1.529  12.331  28.827  1.00  0.00     0.038 C
HETATM   13  C10 UNL     1      -1.791  11.614  27.497  1.00  0.00     0.035 C
HETATM   14  C17 UNL     1      -0.954  10.361  27.750  1.00  0.00     0.062 C
BRANCH  13  15
HETATM   15  N2  UNL     1      -1.447  12.336  26.352  1.00  0.00    -0.384 N
HETATM   16  C11 UNL     1      -2.326  12.329  25.259  1.00  0.00     0.059 C
HETATM   17  C12 UNL     1      -1.911  13.059  24.050  1.00  0.00     0.044 C
HETATM   18  C13 UNL     1      -0.961  14.188  24.204  1.00  0.00     0.007 C
HETATM   19  C14 UNL     1       0.108  13.819  25.174  1.00  0.00     0.020 C
HETATM   20  C15 UNL     1      -0.611  13.480  26.493  1.00  0.00     0.123 C
ENDBRANCH  13  15
ENDBRANCH   4   6
ENDBRANCH   3   4
TORSDOF 3
ENDMDL