MODEL 3
REMARK VINA RESULT: -5.687338294      0.813      1.434
REMARK  2 active torsions:
REMARK  status: ('A' for Active; 'I' for Inactive)
REMARK    1  A    between atoms: C1_2  and  N1_3
REMARK    2  A    between atoms: C9_11  and  C10_12
ROOT
HETATM    1  N1  UNL     1      -1.817  12.847  25.216  1.00  0.00    -0.376 N
HETATM    2  C2  UNL     1      -2.594  11.757  25.843  1.00  0.00     0.128 C
HETATM    3  C3  UNL     1      -2.711  12.114  27.310  1.00  0.00     0.008 C
HETATM    4  C4  UNL     1      -3.255  11.022  28.162  1.00  0.00     0.007 C
HETATM    5  C5  UNL     1      -2.514  11.126  29.491  1.00  0.00     0.001 C
HETATM    6  C6  UNL     1      -1.481  12.246  29.294  1.00  0.00     0.005 C
HETATM    7  C7  UNL     1      -1.269  12.198  27.834  1.00  0.00    -0.007 C
HETATM    8  C8  UNL     1      -0.645  13.393  27.212  1.00  0.00     0.030 C
HETATM    9  C9  UNL     1      -0.514  13.022  25.726  1.00  0.00     0.089 C
ENDROOT
BRANCH   9  10
HETATM   10  C10 UNL     1       0.405  13.961  25.100  1.00  0.00     0.011 C
HETATM   11  C11 UNL     1       0.754  15.194  25.882  1.00  0.00     0.026 C
HETATM   12  C12 UNL     1       2.074  15.702  25.290  1.00  0.00     0.114 C
HETATM   13  N2  UNL     1       2.033  15.875  23.894  1.00  0.00    -0.421 N
HETATM   14  C13 UNL     1       1.381  14.925  23.106  1.00  0.00     0.114 C
ATOM     15  H2  UNL     1       2.475  16.686  23.462  1.00  0.00     0.153 HD
HETATM   16  C14 UNL     1       0.061  14.409  23.701  1.00  0.00     0.026 C
ENDBRANCH   9  10
BRANCH   1  17
HETATM   17  C1  UNL     1      -2.466  13.562  24.204  1.00  0.00     0.168 C
HETATM   18  S1  UNL     1      -3.862  13.009  23.586  1.00  0.00    -0.074 SA
ENDBRANCH   1  17
TORSDOF 2
ENDMDL