MODEL 3
REMARK VINA RESULT: -6.357704056      0.208      1.728
REMARK  2 active torsions:
REMARK  status: ('A' for Active; 'I' for Inactive)
REMARK       I    between atoms: C1_2  and  N1_3
REMARK    1  A    between atoms: C1_2  and  C6_10
REMARK    2  A    between atoms: N1_3  and  C2_5
ROOT
HETATM    1  C6  UNL     1      -5.002  14.473  22.999  1.00  0.00     0.042 C
HETATM    2  C7  UNL     1      -6.172  13.719  23.631  1.00  0.00     0.024 C
HETATM    3  C8  UNL     1      -7.476  14.323  23.225  1.00  0.00    -0.013 C
HETATM    4  C9  UNL     1      -7.560  14.293  21.714  1.00  0.00     0.009 C
HETATM    5  C10 UNL     1      -6.494  15.181  21.151  1.00  0.00    -0.013 C
HETATM    6  C11 UNL     1      -6.521  16.575  21.711  1.00  0.00     0.009 C
HETATM    7  C12 UNL     1      -6.333  16.510  23.219  1.00  0.00    -0.013 C
HETATM    8  C13 UNL     1      -7.519  15.739  23.767  1.00  0.00     0.009 C
HETATM    9  C14 UNL     1      -5.022  15.861  23.587  1.00  0.00     0.024 C
HETATM   10  C15 UNL     1      -5.134  14.584  21.521  1.00  0.00     0.024 C
ENDROOT
BRANCH   1  11
HETATM   11  C1  UNL     1      -3.784  13.720  23.345  1.00  0.00     0.226 C
HETATM   12  O1  UNL     1      -3.798  12.469  23.240  1.00  0.00    -0.273 OA
HETATM   13  N1  UNL     1      -2.587  14.330  23.796  1.00  0.00    -0.354 N
ATOM     14  H1  UNL     1      -2.572  15.346  23.884  1.00  0.00     0.163 HD
BRANCH  13  15
HETATM   15  C2  UNL     1      -1.391  13.607  24.137  1.00  0.00     0.110 C
HETATM   16  C3  UNL     1      -1.307  13.218  25.593  1.00  0.00     0.053 C
HETATM   17  C4  UNL     1       0.031  13.721  26.066  1.00  0.00     0.169 C
HETATM   18  O2  UNL     1       0.760  13.964  24.926  1.00  0.00    -0.389 OA
HETATM   19  C5  UNL     1      -0.120  14.404  23.961  1.00  0.00     0.192 C
ENDBRANCH  13  15
ENDBRANCH   1  11
TORSDOF 2
ENDMDL