MODEL 4
REMARK VINA RESULT: -5.542463099      5.751      8.148
REMARK  4 active torsions:
REMARK  status: ('A' for Active; 'I' for Inactive)
REMARK    1  A    between atoms: C1_2  and  C2_3
REMARK    2  A    between atoms: C7_8  and  C12_13
REMARK    3  A    between atoms: C12_13  and  N1_14
REMARK    4  A    between atoms: N1_14  and  C13_17
ROOT
HETATM    1  C2  UNL     1      -1.901   9.344  28.393  1.00  0.00     0.059 C
HETATM    2  C3  UNL     1      -3.375   9.535  28.472  1.00  0.00     0.005 C
HETATM    3  C4  UNL     1      -4.153   8.881  27.365  1.00  0.00     0.032 C
HETATM    4  C5  UNL     1      -3.585   9.384  26.084  1.00  0.00    -0.030 C
HETATM    5  C6  UNL     1      -3.042  10.587  26.029  1.00  0.00    -0.023 C
HETATM    6  C7  UNL     1      -2.924  11.544  27.154  1.00  0.00     0.049 C
HETATM    7  C8  UNL     1      -3.662  11.037  28.380  1.00  0.00     0.001 C
HETATM    8  C9  UNL     1      -3.099  11.619  29.662  1.00  0.00     0.011 C
HETATM    9  C10 UNL     1      -1.593  11.561  29.549  1.00  0.00    -0.005 C
HETATM   10  C11 UNL     1      -1.227  12.671  28.584  1.00  0.00     0.045 C
HETATM   11  C12 UNL     1      -1.452  11.622  27.461  1.00  0.00     0.138 C
HETATM   12  C17 UNL     1      -1.103  10.605  28.476  1.00  0.00     0.037 C
ENDROOT
BRANCH  11  13
HETATM   13  N1  UNL     1      -0.574  11.921  26.390  1.00  0.00    -0.061 N
ATOM     14  H12 UNL     1       0.394  11.985  26.707  1.00  0.00     0.278 HD
ATOM     15  H11 UNL     1      -0.478  11.131  25.752  1.00  0.00     0.278 HD
BRANCH  13  16
HETATM   16  C13 UNL     1      -0.975  13.094  25.706  1.00  0.00     0.187 C
HETATM   17  C14 UNL     1       0.199  14.055  25.383  1.00  0.00     0.033 C
HETATM   18  C15 UNL     1      -0.622  14.483  24.189  1.00  0.00     0.004 C
HETATM   19  C16 UNL     1      -1.225  13.061  24.229  1.00  0.00     0.033 C
ENDBRANCH  13  16
ENDBRANCH  11  13
BRANCH   1  20
HETATM   20  C1  UNL     1      -1.459   8.441  29.512  1.00  0.00     0.236 C
HETATM   21  O1  UNL     1      -2.231   8.150  30.417  1.00  0.00    -0.306 OA
ENDBRANCH   1  20
TORSDOF 4
ENDMDL