MODEL 5
REMARK VINA RESULT: -5.325006134      3.724      6.089
REMARK  2 active torsions:
REMARK  status: ('A' for Active; 'I' for Inactive)
REMARK    1  A    between atoms: C6_9  and  O1_10
REMARK    2  A    between atoms: O1_10  and  C7_11
ROOT
HETATM    1  C7  UNL     1      -7.198  15.445  20.397  1.00  0.00     0.126 C
HETATM    2  C8  UNL     1      -8.620  15.430  20.898  1.00  0.00     0.037 C
HETATM    3  C9  UNL     1      -8.711  15.727  22.382  1.00  0.00    -0.008 C
HETATM    4  C10 UNL     1      -8.185  17.100  22.672  1.00  0.00     0.010 C
HETATM    5  C11 UNL     1      -6.861  16.833  23.323  1.00  0.00    -0.013 C
HETATM    6  C12 UNL     1      -7.196  15.640  24.219  1.00  0.00     0.009 C
HETATM    7  C13 UNL     1      -7.929  14.747  23.207  1.00  0.00    -0.010 C
HETATM    8  C14 UNL     1      -6.814  14.092  22.381  1.00  0.00     0.012 C
HETATM    9  C15 UNL     1      -6.218  15.187  21.536  1.00  0.00     0.015 C
HETATM   10  C16 UNL     1      -5.859  16.414  22.289  1.00  0.00     0.012 C
ENDROOT
BRANCH   1  11
HETATM   11  O1  UNL     1      -6.959  14.457  19.452  1.00  0.00    -0.378 OA
BRANCH  11  12
HETATM   12  C6  UNL     1      -8.091  13.861  18.960  1.00  0.00     0.154 C
HETATM   13  C3  UNL     1      -8.107  14.008  17.437  1.00  0.00     0.215 C
HETATM   14  C2  UNL     1      -9.245  13.250  16.841  1.00  0.00     0.037 C
HETATM   15  N1  UNL     1      -6.969  13.130  17.108  1.00  0.00    -0.064 N
HETATM   16  C1  UNL     1      -8.794  11.782  16.836  1.00  0.00     0.035 C
HETATM   17  C4  UNL     1      -7.530  11.894  17.682  1.00  0.00     0.189 C
HETATM   18  C5  UNL     1      -7.872  12.342  19.066  1.00  0.00     0.067 C
ATOM     19  H12 UNL     1      -6.673  13.098  16.133  1.00  0.00     0.278 HD
ATOM     20  H11 UNL     1      -6.048  13.419  17.439  1.00  0.00     0.278 HD
ENDBRANCH  11  12
ENDBRANCH   1  11
TORSDOF 2
ENDMDL