MODEL 1
REMARK VINA RESULT: -5.763165568      0.000      0.000
REMARK  3 active torsions:
REMARK  status: ('A' for Active; 'I' for Inactive)
REMARK    1  A    between atoms: C2_2  and  N1_3
REMARK    2  A    between atoms: C2_2  and  N2_15
REMARK    3  A    between atoms: N1_3  and  C3_5
ROOT
HETATM    1  C3  UNL     1      -1.421  11.687  27.074  1.00  0.00     0.028 C
HETATM    2  C4  UNL     1      -1.102  12.565  28.258  1.00  0.00     0.035 C
HETATM    3  C5  UNL     1      -1.724  11.976  29.497  1.00  0.00    -0.012 C
HETATM    4  C6  UNL     1      -1.115  10.626  29.762  1.00  0.00     0.009 C
HETATM    5  C7  UNL     1      -1.413   9.709  28.608  1.00  0.00    -0.012 C
HETATM    6  C8  UNL     1      -2.895   9.547  28.364  1.00  0.00     0.009 C
HETATM    7  C9  UNL     1      -3.473  10.917  28.158  1.00  0.00    -0.012 C
HETATM    8  C10 UNL     1      -3.208  11.808  29.338  1.00  0.00     0.009 C
HETATM    9  C11 UNL     1      -2.896  11.482  26.872  1.00  0.00     0.035 C
HETATM   10  C12 UNL     1      -0.820  10.319  27.369  1.00  0.00     0.035 C
ENDROOT
BRANCH   1  11
HETATM   11  N1  UNL     1      -0.734  12.181  25.920  1.00  0.00    -0.385 N
ATOM     12  H1  UNL     1      -0.250  11.563  25.269  1.00  0.00     0.156 HD
BRANCH  11  13
HETATM   13  C2  UNL     1      -0.769  13.595  25.740  1.00  0.00     0.316 C
HETATM   14  C1  UNL     1      -1.835  13.902  24.719  1.00  0.00     0.066 C
BRANCH  13  15
HETATM   15  N2  UNL     1       0.529  14.071  25.401  1.00  0.00     0.135 N
HETATM   16  C13 UNL     1       0.684  14.528  24.054  1.00  0.00     0.304 C
HETATM   17  C14 UNL     1       1.878  15.465  24.213  1.00  0.00     0.200 C
HETATM   18  O1  UNL     1       1.814  15.951  25.504  1.00  0.00    -0.361 OA
HETATM   19  C15 UNL     1       1.065  15.075  26.265  1.00  0.00     0.443 C
ENDBRANCH  13  15
ENDBRANCH  11  13
ENDBRANCH   1  11
TORSDOF 3
ENDMDL