MODEL 4
REMARK VINA RESULT: -5.195138923     10.228     12.843
REMARK  3 active torsions:
REMARK  status: ('A' for Active; 'I' for Inactive)
REMARK    1  A    between atoms: C8_8  and  N1_9
REMARK    2  A    between atoms: N1_9  and  S1_11
REMARK    3  A    between atoms: S1_11  and  C9_14
ROOT
HETATM    1  C1  UNL     1      -3.930  15.691  23.359  1.00  0.00     0.015 C
HETATM    2  C2  UNL     1      -4.991  14.700  22.930  1.00  0.00    -0.042 C
HETATM    3  C3  UNL     1      -6.320  14.955  23.604  1.00  0.00     0.010 C
HETATM    4  C4  UNL     1      -7.107  13.662  23.542  1.00  0.00     0.007 C
HETATM    5  C5  UNL     1      -6.715  12.965  22.256  1.00  0.00     0.009 C
HETATM    6  C6  UNL     1      -5.373  12.306  22.467  1.00  0.00     0.007 C
HETATM    7  C7  UNL     1      -4.502  13.280  23.245  1.00  0.00     0.010 C
HETATM    8  C8  UNL     1      -6.575  14.059  21.182  1.00  0.00     0.097 C
HETATM    9  C13 UNL     1      -5.223  14.735  21.438  1.00  0.00     0.035 C
ENDROOT
BRANCH   8  10
HETATM   10  N1  UNL     1      -6.622  13.424  19.928  1.00  0.00    -0.314 N
ATOM     11  H1  UNL     1      -6.112  12.558  19.755  1.00  0.00     0.172 HD
BRANCH  10  12
HETATM   12  S1  UNL     1      -7.545  14.140  18.729  1.00  0.00     0.234 S
HETATM   13  O1  UNL     1      -6.853  15.350  18.115  1.00  0.00    -0.205 OA
HETATM   14  O2  UNL     1      -8.841  14.688  19.299  1.00  0.00    -0.205 OA
BRANCH  12  15
HETATM   15  C9  UNL     1      -8.023  13.000  17.467  1.00  0.00     0.072 C
HETATM   16  C10 UNL     1      -7.377  13.449  16.160  1.00  0.00     0.033 C
HETATM   17  C11 UNL     1      -9.548  13.096  17.236  1.00  0.00     0.033 C
HETATM   18  C12 UNL     1      -7.748  11.566  17.787  1.00  0.00     0.033 C
ENDBRANCH  12  15
ENDBRANCH  10  12
ENDBRANCH   8  10
TORSDOF 3
ENDMDL