MODEL 2
REMARK VINA RESULT: -6.054135687      0.180      1.662
REMARK  2 active torsions:
REMARK  status: ('A' for Active; 'I' for Inactive)
REMARK    1  A    between atoms: C2_3  and  C3_4
REMARK       I    between atoms: C3_4  and  N2_6
REMARK    2  A    between atoms: N2_6  and  C4_8
ROOT
HETATM    1  N1  UNL     1       0.502  14.530  23.219  1.00  0.00    -0.196 NA
HETATM    2  C1  UNL     1      -0.329  14.167  23.927  1.00  0.00     0.079 C
HETATM    3  C2  UNL     1      -1.399  13.718  24.810  1.00  0.00     0.129 C
HETATM    4  C14 UNL     1      -1.321  14.521  26.115  1.00  0.00     0.034 C
HETATM    5  C15 UNL     1      -0.332  13.449  26.591  1.00  0.00     0.004 C
HETATM    6  C16 UNL     1      -1.038  12.501  25.632  1.00  0.00     0.034 C
ENDROOT
BRANCH   3   7
HETATM    7  C3  UNL     1      -2.741  13.689  24.206  1.00  0.00     0.241 C
HETATM    8  O1  UNL     1      -3.369  12.605  24.271  1.00  0.00    -0.272 OA
HETATM    9  N2  UNL     1      -3.260  14.861  23.588  1.00  0.00    -0.350 N
ATOM     10  H2  UNL     1      -2.672  15.695  23.586  1.00  0.00     0.163 HD
BRANCH   9  11
HETATM   11  C4  UNL     1      -4.546  14.956  22.970  1.00  0.00     0.034 C
HETATM   12  C5  UNL     1      -5.685  14.959  23.959  1.00  0.00     0.035 C
HETATM   13  C6  UNL     1      -6.972  15.107  23.174  1.00  0.00    -0.012 C
HETATM   14  C7  UNL     1      -7.174  13.949  22.232  1.00  0.00     0.009 C
HETATM   15  C11 UNL     1      -7.009  16.374  22.370  1.00  0.00     0.009 C
HETATM   16  C8  UNL     1      -6.009  13.890  21.259  1.00  0.00    -0.012 C
HETATM   17  C9  UNL     1      -6.003  15.153  20.423  1.00  0.00     0.009 C
HETATM   18  C13 UNL     1      -4.741  13.764  22.035  1.00  0.00     0.035 C
HETATM   19  C10 UNL     1      -5.911  16.319  21.351  1.00  0.00    -0.012 C
HETATM   20  C12 UNL     1      -4.594  16.205  22.127  1.00  0.00     0.035 C
ENDBRANCH   9  11
ENDBRANCH   3   7
TORSDOF 2
ENDMDL