MODEL 4
REMARK VINA RESULT: -8.249823280      3.677      9.196
REMARK  9 active torsions:
REMARK  status: ('A' for Active; 'I' for Inactive)
REMARK    1  A    between atoms: C2_2  and  C3_3
REMARK    2  A    between atoms: C3_3  and  O1_4
REMARK    3  A    between atoms: N1_9  and  C7_10
REMARK    4  A    between atoms: C10_13  and  C11_14
REMARK    5  A    between atoms: C11_14  and  O2_15
REMARK    6  A    between atoms: C11_14  and  C27_36
REMARK    7  A    between atoms: O2_15  and  C12_16
REMARK    8  A    between atoms: C15_21  and  C16_22
REMARK    9  A    between atoms: C22_30  and  C23_31
ROOT
HETATM    1  C23 UNL     1      16.548   1.879 -18.040  1.00  0.00     0.072 C
HETATM    2  C24 UNL     1      15.610   1.810 -16.820  1.00  0.00     0.036 C
HETATM    3  C25 UNL     1      15.762   0.954 -19.064  1.00  0.00     0.036 C
HETATM    4  C26 UNL     1      17.755   1.200 -17.745  1.00  0.00     0.073 C
HETATM    5  N3  UNL     1      18.701   0.584 -17.511  1.00  0.00    -0.196 NA
ENDROOT
BRANCH   1   6
HETATM    6  C22 UNL     1      16.571   3.167 -18.689  1.00  0.00     0.011 A
HETATM    7  C12 UNL     1      17.031   3.215 -20.045  1.00  0.00     0.093 A
HETATM    8  C13 UNL     1      17.088   4.389 -20.755  1.00  0.00     0.124 A
HETATM    9  N2  UNL     1      16.707   5.542 -20.187  1.00  0.00    -0.372 N
HETATM   10  C14 UNL     1      16.278   5.520 -18.940  1.00  0.00     0.100 A
ATOM     11  H2  UNL     1      16.749   6.418 -20.708  1.00  0.00     0.164 HD
HETATM   12  C15 UNL     1      16.191   4.343 -18.148  1.00  0.00     0.000 A
BRANCH   7  13
HETATM   13  O2  UNL     1      17.425   2.089 -20.682  1.00  0.00    -0.341 OA
BRANCH  13  14
HETATM   14  C11 UNL     1      18.234   1.979 -21.846  1.00  0.00     0.165 C
BRANCH  14  15
HETATM   15  C10 UNL     1      18.105   0.607 -22.383  1.00  0.00     0.042 C
HETATM   16  C9  UNL     1      19.195   0.017 -23.179  1.00  0.00     0.017 C
HETATM   17  C8  UNL     1      20.399  -0.399 -22.365  1.00  0.00     0.085 C
HETATM   18  C7  UNL     1      20.114  -1.154 -21.123  1.00  0.00     0.119 C
HETATM   19  O4  UNL     1      18.989  -0.653 -20.502  1.00  0.00    -0.338 OA
HETATM   20  C31 UNL     1      17.884  -0.418 -21.249  1.00  0.00     0.184 C
BRANCH  18  21
HETATM   21  N1  UNL     1      20.269  -2.545 -21.148  1.00  0.00    -0.344 N
HETATM   22  C6  UNL     1      19.298  -3.425 -20.715  1.00  0.00     0.066 C
HETATM   23  C5  UNL     1      19.560  -4.888 -21.002  1.00  0.00     0.046 C
HETATM   24  C4  UNL     1      20.666  -5.040 -21.998  1.00  0.00     0.018 C
HETATM   25  C2  UNL     1      21.887  -4.395 -21.323  1.00  0.00    -0.006 C
HETATM   26  C1  UNL     1      22.046  -5.087 -19.986  1.00  0.00     0.019 C
HETATM   27  C32 UNL     1      21.631  -2.933 -21.134  1.00  0.00     0.141 C
BRANCH  25  28
HETATM   28  C3  UNL     1      23.080  -4.697 -22.161  1.00  0.00     0.175 C
BRANCH  28  29
HETATM   29  O1  UNL     1      23.615  -3.557 -22.755  1.00  0.00    -0.400 OA
ATOM     30  H1  UNL     1      23.660  -3.629 -23.702  1.00  0.00     0.209 HD
ENDBRANCH  28  29
ENDBRANCH  25  28
ENDBRANCH  18  21
ENDBRANCH  14  15
BRANCH  14  31
HETATM   31  C27 UNL     1      17.602   3.012 -22.789  1.00  0.00     0.177 C
HETATM   32  C28 UNL     1      16.527   2.440 -23.669  1.00  0.00     0.266 C
HETATM   33  N4  UNL     1      16.715   2.785 -25.089  1.00  0.00    -0.071 N
HETATM   34  C29 UNL     1      16.857   4.251 -25.087  1.00  0.00     0.258 C
ATOM     35  H42 UNL     1      17.483   2.291 -25.542  1.00  0.00     0.277 HD
ATOM     36  H41 UNL     1      15.981   2.437 -25.706  1.00  0.00     0.277 HD
HETATM   37  C30 UNL     1      18.128   4.548 -24.343  1.00  0.00     0.196 C
HETATM   38  O3  UNL     1      18.623   3.363 -23.754  1.00  0.00    -0.380 OA
ENDBRANCH  14  31
ENDBRANCH  13  14
ENDBRANCH   7  13
BRANCH  12  39
HETATM   39  C16 UNL     1      15.570   4.566 -16.862  1.00  0.00    -0.021 A
HETATM   40  C17 UNL     1      14.216   4.684 -16.717  1.00  0.00     0.036 A
HETATM   41  C18 UNL     1      13.656   4.959 -15.458  1.00  0.00     0.036 A
HETATM   42 CL1  UNL     1      11.932   5.120 -15.215  1.00  0.00    -0.084 Cl
HETATM   43  C19 UNL     1      14.489   5.107 -14.380  1.00  0.00     0.047 A
HETATM   44  C20 UNL     1      15.850   4.991 -14.516  1.00  0.00     0.036 A
HETATM   45 CL2  UNL     1      16.947   5.174 -13.163  1.00  0.00    -0.084 Cl
HETATM   46  C21 UNL     1      16.365   4.720 -15.765  1.00  0.00     0.036 A
ENDBRANCH  12  39
ENDBRANCH   1   6
TORSDOF 9
ENDMDL