MODEL 4
REMARK VINA RESULT: -8.716761764      3.211      5.808
REMARK  10 active torsions:
REMARK  status: ('A' for Active; 'I' for Inactive)
REMARK    1  A    between atoms: C6_6  and  N1_7
REMARK    2  A    between atoms: N1_7  and  C18_20
REMARK    3  A    between atoms: C7_8  and  C8_9
REMARK    4  A    between atoms: C18_20  and  O1_21
REMARK    5  A    between atoms: C18_20  and  C19_23
REMARK    6  A    between atoms: C19_23  and  N2_24
REMARK    7  A    between atoms: N3_27  and  C22_28
REMARK    8  A    between atoms: C24_30  and  O2_31
REMARK    9  A    between atoms: N4_33  and  C25_34
REMARK   10  A    between atoms: C31_41  and  O3_42
ROOT
HETATM    1  N2  UNL     1      16.077   4.226 -21.424  1.00  0.00    -0.382 N
HETATM    2  C20 UNL     1      17.350   4.032 -20.872  1.00  0.00     0.078 C
HETATM    3  C21 UNL     1      18.425   3.499 -21.789  1.00  0.00     0.168 C
HETATM    4  N3  UNL     1      17.901   2.543 -22.743  1.00  0.00    -0.367 N
HETATM    5  C32 UNL     1      16.702   2.956 -23.434  1.00  0.00     0.099 C
HETATM    6  C33 UNL     1      16.151   1.903 -24.359  1.00  0.00     0.034 C
HETATM    7  C34 UNL     1      15.623   3.348 -22.448  1.00  0.00     0.147 C
ENDROOT
BRANCH   1   8
HETATM    8  C19 UNL     1      15.491   5.507 -21.403  1.00  0.00     0.206 C
BRANCH   8   9
HETATM    9  C18 UNL     1      16.021   6.406 -20.267  1.00  0.00     0.136 C
BRANCH   9  10
HETATM   10  N1  UNL     1      15.095   6.541 -19.218  1.00  0.00    -0.338 N
HETATM   11  C7  UNL     1      14.343   5.563 -18.632  1.00  0.00     0.076 C
BRANCH  10  12
HETATM   12  C6  UNL     1      14.380   7.803 -19.452  1.00  0.00     0.094 C
HETATM   13  C2  UNL     1      14.649   8.831 -18.411  1.00  0.00     0.005 C
HETATM   14  C1  UNL     1      15.168  10.123 -19.065  1.00  0.00     0.012 C
HETATM   15  C3  UNL     1      13.359   9.161 -17.737  1.00  0.00     0.006 C
HETATM   16  C4  UNL     1      12.282   8.293 -18.314  1.00  0.00     0.002 C
HETATM   17  C5  UNL     1      12.877   7.559 -19.484  1.00  0.00     0.026 C
ENDBRANCH  10  12
BRANCH  11  18
HETATM   18  C8  UNL     1      14.877   4.443 -17.822  1.00  0.00    -0.006 C
HETATM   19  C9  UNL     1      13.920   4.401 -16.602  1.00  0.00     0.019 C
HETATM   20  C10 UNL     1      14.360   3.480 -15.533  1.00  0.00    -0.011 C
HETATM   21  C11 UNL     1      14.347   2.076 -16.109  1.00  0.00     0.009 C
HETATM   22  C15 UNL     1      15.717   3.874 -15.037  1.00  0.00     0.030 C
HETATM   23  C12 UNL     1      15.305   2.078 -17.246  1.00  0.00    -0.011 C
HETATM   24  C13 UNL     1      16.685   2.399 -16.746  1.00  0.00     0.030 C
HETATM   25  C17 UNL     1      14.923   3.077 -18.360  1.00  0.00     0.019 C
HETATM   26  C14 UNL     1      16.656   3.811 -16.208  1.00  0.00     0.039 C
HETATM   27 CL1  UNL     1      18.298   4.174 -15.615  1.00  0.00    -0.119 Cl
HETATM   28  C16 UNL     1      16.242   4.793 -17.239  1.00  0.00     0.040 C
ENDBRANCH  11  18
ENDBRANCH   9  10
BRANCH   9  29
HETATM   29  O1  UNL     1      16.798   7.433 -20.674  1.00  0.00    -0.348 OA
ATOM     30  H1  UNL     1      16.445   8.173 -21.154  1.00  0.00     0.219 HD
ENDBRANCH   9  29
ENDBRANCH   8   9
ENDBRANCH   1   8
BRANCH   4  31
HETATM   31  C22 UNL     1      18.481   1.283 -23.035  1.00  0.00     0.087 A
HETATM   32  C23 UNL     1      18.801   0.836 -24.301  1.00  0.00     0.090 A
HETATM   33  C24 UNL     1      19.338  -0.417 -24.144  1.00  0.00     0.151 A
HETATM   34  N4  UNL     1      19.350  -0.733 -22.834  1.00  0.00    -0.271 N
HETATM   35  C31 UNL     1      18.838   0.276 -22.157  1.00  0.00     0.176 A
BRANCH  33  36
HETATM   36  O2  UNL     1      19.798  -1.219 -25.209  1.00  0.00    -0.346 OA
ATOM     37  H2  UNL     1      19.724  -2.166 -25.234  1.00  0.00     0.219 HD
ENDBRANCH  33  36
BRANCH  34  38
HETATM   38  C25 UNL     1      19.853  -1.961 -22.330  1.00  0.00     0.043 A
HETATM   39  C26 UNL     1      21.240  -2.039 -22.130  1.00  0.00     0.033 A
HETATM   40  C27 UNL     1      21.809  -3.186 -21.646  1.00  0.00     0.044 A
HETATM   41  C28 UNL     1      21.017  -4.280 -21.351  1.00  0.00     0.116 A
HETATM   42  F1  UNL     1      21.626  -5.399 -20.875  1.00  0.00    -0.206 F
HETATM   43  C29 UNL     1      19.651  -4.186 -21.554  1.00  0.00     0.044 A
HETATM   44  C30 UNL     1      19.057  -3.038 -22.042  1.00  0.00     0.033 A
ENDBRANCH  34  38
BRANCH  35  45
HETATM   45  O3  UNL     1      18.672   0.340 -20.772  1.00  0.00    -0.344 OA
ATOM     46  H3  UNL     1      18.031  -0.163 -20.284  1.00  0.00     0.219 HD
ENDBRANCH  35  45
ENDBRANCH   4  31
TORSDOF 10
ENDMDL