MODEL 4
REMARK VINA RESULT: -8.699697147      4.612      9.586
REMARK  12 active torsions:
REMARK  status: ('A' for Active; 'I' for Inactive)
REMARK    1  A    between atoms: O1_2  and  C2_3
REMARK    2  A    between atoms: C5_6  and  S1_7
REMARK    3  A    between atoms: S1_7  and  C6_10
REMARK    4  A    between atoms: C6_10  and  C7_11
REMARK    5  A    between atoms: C7_11  and  O4_12
REMARK    6  A    between atoms: C7_11  and  C8_14
REMARK    7  A    between atoms: C8_14  and  C9_15
REMARK    8  A    between atoms: C13_20  and  O6_21
REMARK    9  A    between atoms: C13_20  and  C14_23
REMARK   10  A    between atoms: C15_24  and  C16_25
REMARK   11  A    between atoms: C22_31  and  O7_32
REMARK   12  A    between atoms: C26_39  and  C27_40
ROOT
HETATM    1  C9  UNL     1      19.581  -0.616 -23.337  1.00  0.00     0.170 C
HETATM    2  O5  UNL     1      20.128  -1.008 -24.568  1.00  0.00    -0.382 OA
HETATM    3  C10 UNL     1      19.363  -0.979 -25.661  1.00  0.00     0.168 C
HETATM    4  C11 UNL     1      18.276   0.018 -25.786  1.00  0.00     0.030 C
HETATM    5  C12 UNL     1      17.749   0.464 -24.491  1.00  0.00     0.056 C
HETATM    6  C13 UNL     1      18.941   0.712 -23.496  1.00  0.00     0.147 C
ENDROOT
BRANCH   6   7
HETATM    7  O6  UNL     1      19.823   1.623 -24.123  1.00  0.00    -0.375 OA
ATOM      8  H6  UNL     1      20.575   1.169 -24.484  1.00  0.00     0.212 HD
ENDBRANCH   6   7
BRANCH   6   9
HETATM    9  C14 UNL     1      18.421   1.381 -22.348  1.00  0.00    -0.060 C
HETATM   10  C15 UNL     1      17.896   1.994 -21.421  1.00  0.00    -0.063 C
BRANCH  10  11
HETATM   11  C16 UNL     1      17.195   2.771 -20.457  1.00  0.00     0.025 A
HETATM   12  C17 UNL     1      16.803   4.039 -20.926  1.00  0.00     0.022 A
HETATM   13  C18 UNL     1      15.958   4.794 -20.154  1.00  0.00     0.014 A
HETATM   14  C19 UNL     1      15.527   4.272 -18.966  1.00  0.00    -0.015 A
HETATM   15  C20 UNL     1      14.580   5.030 -18.271  1.00  0.00    -0.016 A
HETATM   16  C25 UNL     1      15.914   2.994 -18.487  1.00  0.00     0.006 A
HETATM   17  C21 UNL     1      14.190   6.378 -18.830  1.00  0.00     0.052 C
HETATM   18  C22 UNL     1      13.980   4.599 -17.131  1.00  0.00     0.096 A
HETATM   19  C23 UNL     1      14.341   3.340 -16.665  1.00  0.00     0.090 A
HETATM   20 CL1  UNL     1      13.641   2.696 -15.217  1.00  0.00    -0.080 Cl
HETATM   21  C24 UNL     1      15.293   2.566 -17.359  1.00  0.00     0.070 A
HETATM   22 CL2  UNL     1      15.320   0.872 -16.890  1.00  0.00    -0.081 Cl
HETATM   23  C26 UNL     1      16.785   2.242 -19.256  1.00  0.00    -0.023 A
BRANCH  18  24
HETATM   24  O7  UNL     1      13.053   5.304 -16.409  1.00  0.00    -0.358 OA
ATOM     25  H7  UNL     1      12.299   4.929 -15.969  1.00  0.00     0.217 HD
ENDBRANCH  18  24
BRANCH  23  26
HETATM   26  C27 UNL     1      17.365   1.034 -18.748  1.00  0.00     0.013 C
HETATM   27  C28 UNL     1      18.655   1.555 -18.020  1.00  0.00     0.015 C
HETATM   28  C29 UNL     1      17.988  -0.019 -19.587  1.00  0.00     0.015 C
ENDBRANCH  23  26
ENDBRANCH  10  11
ENDBRANCH   6   9
BRANCH   1  29
HETATM   29  C8  UNL     1      20.655  -0.684 -22.271  1.00  0.00     0.068 C
BRANCH  29  30
HETATM   30  C7  UNL     1      21.348  -2.029 -22.188  1.00  0.00     0.135 C
BRANCH  30  31
HETATM   31  C6  UNL     1      20.906  -2.787 -20.996  1.00  0.00     0.177 C
BRANCH  31  32
HETATM   32  S1  UNL     1      21.458  -4.484 -20.899  1.00  0.00     0.177 S
HETATM   33  O2  UNL     1      22.049  -4.953 -22.174  1.00  0.00    -0.223 OA
HETATM   34  O3  UNL     1      22.393  -4.614 -19.749  1.00  0.00    -0.223 OA
BRANCH  32  35
HETATM   35  C5  UNL     1      19.983  -5.403 -20.590  1.00  0.00     0.059 A
HETATM   36  C4  UNL     1      20.087  -6.566 -19.881  1.00  0.00     0.026 A
HETATM   37  C3  UNL     1      18.943  -7.339 -19.632  1.00  0.00     0.038 A
HETATM   38  C2  UNL     1      17.734  -6.903 -20.116  1.00  0.00     0.068 A
HETATM   39  C31 UNL     1      17.649  -5.729 -20.828  1.00  0.00     0.038 A
HETATM   40  C30 UNL     1      18.796  -4.974 -21.065  1.00  0.00     0.026 A
BRANCH  38  41
HETATM   41  O1  UNL     1      16.632  -7.691 -19.857  1.00  0.00    -0.356 OA
HETATM   42  C1  UNL     1      16.725  -8.812 -19.037  1.00  0.00     0.210 C
ENDBRANCH  38  41
ENDBRANCH  32  35
ENDBRANCH  31  32
ENDBRANCH  30  31
BRANCH  30  43
HETATM   43  O4  UNL     1      22.682  -2.043 -22.464  1.00  0.00    -0.395 OA
ATOM     44  H4  UNL     1      23.216  -1.394 -22.021  1.00  0.00     0.210 HD
ENDBRANCH  30  43
ENDBRANCH  29  30
ENDBRANCH   1  29
TORSDOF 12
ENDMDL