MODEL 1
REMARK VINA RESULT: -5.901576355      0.000      0.000
REMARK  11 active torsions:
REMARK  status: ('A' for Active; 'I' for Inactive)
REMARK    1  A    between atoms: C2_2  and  O2_4
REMARK    2  A    between atoms: O2_4  and  C3_5
REMARK    3  A    between atoms: C3_5  and  C4_6
REMARK    4  A    between atoms: C6_8  and  O3_9
REMARK    5  A    between atoms: C7_11  and  O4_12
REMARK    6  A    between atoms: C15_22  and  C16_23
REMARK    7  A    between atoms: C16_23  and  C18_25
REMARK    8  A    between atoms: C18_25  and  C19_26
REMARK    9  A    between atoms: C19_26  and  C20_27
REMARK   10  A    between atoms: C20_27  and  C21_28
REMARK   11  A    between atoms: C32_41  and  O6_42
ROOT
HETATM    1  C4  UNL     1      14.862   6.825 -15.679  1.00  0.00     0.039 C
HETATM    2  C5  UNL     1      15.617   8.165 -15.875  1.00  0.00     0.023 C
HETATM    3  C6  UNL     1      15.663   6.010 -14.760  1.00  0.00     0.160 C
HETATM    4  C7  UNL     1      16.711   5.292 -15.499  1.00  0.00     0.156 C
HETATM    5  C8  UNL     1      16.281   4.460 -16.710  1.00  0.00     0.056 C
HETATM    6  C9  UNL     1      16.612   3.081 -16.389  1.00  0.00     0.002 C
HETATM    7  C10 UNL     1      16.619   1.883 -17.164  1.00  0.00     0.018 C
HETATM    8 CL1  UNL     1      15.093   0.880 -17.197  1.00  0.00    -0.088 Cl
HETATM    9  C11 UNL     1      17.527   1.592 -18.272  1.00  0.00     0.005 C
HETATM   10  C12 UNL     1      18.837   1.003 -17.695  1.00  0.00     0.022 C
HETATM   11  C13 UNL     1      16.909   0.346 -18.937  1.00  0.00     0.016 C
HETATM   12  C14 UNL     1      17.796   0.094 -20.066  1.00  0.00     0.007 C
HETATM   13  C15 UNL     1      18.361   1.469 -20.414  1.00  0.00     0.002 C
HETATM   14  C24 UNL     1      17.877   2.458 -19.400  1.00  0.00    -0.006 C
HETATM   15  C25 UNL     1      19.208   3.145 -18.917  1.00  0.00     0.021 C
HETATM   16  C26 UNL     1      17.049   3.568 -19.852  1.00  0.00     0.039 C
HETATM   17  C27 UNL     1      15.652   3.824 -19.569  1.00  0.00     0.175 C
HETATM   18  O5  UNL     1      14.911   2.983 -20.088  1.00  0.00    -0.288 OA
HETATM   19  C28 UNL     1      14.925   4.841 -18.820  1.00  0.00     0.021 C
HETATM   20  C29 UNL     1      15.079   6.248 -19.292  1.00  0.00     0.131 C
HETATM   21  C30 UNL     1      15.968   6.493 -20.463  1.00  0.00     0.057 C
HETATM   22  F1  UNL     1      13.872   6.857 -19.684  1.00  0.00    -0.238 F
HETATM   23  C31 UNL     1      15.520   6.966 -18.054  1.00  0.00     0.088 C
HETATM   24  C32 UNL     1      14.601   6.286 -17.024  1.00  0.00     0.085 C
HETATM   25  C33 UNL     1      14.970   4.830 -17.290  1.00  0.00     0.028 C
HETATM   26  C34 UNL     1      13.838   4.022 -16.675  1.00  0.00     0.024 C
ENDROOT
BRANCH  13  27
HETATM   27  C16 UNL     1      18.327   1.582 -21.860  1.00  0.00    -0.014 C
HETATM   28  C17 UNL     1      18.995   2.708 -22.557  1.00  0.00     0.010 C
BRANCH  27  29
HETATM   29  C18 UNL     1      18.313   0.266 -22.631  1.00  0.00     0.005 C
BRANCH  29  30
HETATM   30  C19 UNL     1      19.588   0.067 -23.421  1.00  0.00     0.001 C
BRANCH  30  31
HETATM   31  C20 UNL     1      20.172  -1.310 -23.195  1.00  0.00     0.004 C
BRANCH  31  32
HETATM   32  C21 UNL     1      20.890  -1.428 -21.893  1.00  0.00    -0.023 C
HETATM   33  C22 UNL     1      22.340  -1.754 -22.186  1.00  0.00     0.009 C
HETATM   34  C23 UNL     1      20.328  -2.501 -20.995  1.00  0.00     0.009 C
ENDBRANCH  31  32
ENDBRANCH  30  31
ENDBRANCH  29  30
ENDBRANCH  27  29
ENDBRANCH  13  27
BRANCH   4  35
HETATM   35  O4  UNL     1      17.373   4.494 -14.529  1.00  0.00    -0.392 OA
ATOM     36  H4  UNL     1      16.817   3.733 -14.410  1.00  0.00     0.210 HD
ENDBRANCH   4  35
BRANCH  24  37
HETATM   37  O6  UNL     1      13.329   6.623 -17.370  1.00  0.00    -0.388 OA
ATOM     38  H6  UNL     1      12.803   5.832 -17.354  1.00  0.00     0.210 HD
ENDBRANCH  24  37
BRANCH   3  39
HETATM   39  O3  UNL     1      14.985   5.278 -13.791  1.00  0.00    -0.392 OA
ATOM     40  H3  UNL     1      15.506   4.813 -13.146  1.00  0.00     0.210 HD
ENDBRANCH   3  39
BRANCH   1  41
HETATM   41  C3  UNL     1      13.600   7.313 -14.949  1.00  0.00     0.193 C
BRANCH  41  42
HETATM   42  O2  UNL     1      12.769   6.203 -14.756  1.00  0.00    -0.321 OA
BRANCH  42  43
HETATM   43  C2  UNL     1      11.382   6.302 -14.886  1.00  0.00     0.254 C
HETATM   44  C1  UNL     1      10.552   7.082 -13.934  1.00  0.00     0.126 C
HETATM   45  O1  UNL     1      10.877   5.683 -15.868  1.00  0.00    -0.266 OA
ENDBRANCH  42  43
ENDBRANCH  41  42
ENDBRANCH   1  41
TORSDOF 11
ENDMDL