MODEL 4
REMARK VINA RESULT: -9.271730875      3.943     10.341
REMARK  9 active torsions:
REMARK  status: ('A' for Active; 'I' for Inactive)
REMARK    1  A    between atoms: C2_2  and  C3_3
REMARK    2  A    between atoms: C4_5  and  N1_6
REMARK    3  A    between atoms: N1_6  and  C5_8
REMARK    4  A    between atoms: N3_14  and  C9_16
REMARK    5  A    between atoms: N4_20  and  C12_21
REMARK    6  A    between atoms: C15_24  and  C16_25
REMARK       I    between atoms: C16_25  and  N5_27
REMARK    7  A    between atoms: N5_27  and  C17_28
REMARK    8  A    between atoms: C17_28  and  C18_29
REMARK    9  A    between atoms: C18_29  and  C19_30
ROOT
HETATM    1  C5  UNL     1      18.356  -1.197 -20.153  1.00  0.00     0.109 A
HETATM    2  C6  UNL     1      18.011  -0.588 -18.980  1.00  0.00     0.081 A
HETATM    3  C7  UNL     1      17.772   0.784 -18.941  1.00  0.00     0.081 A
HETATM    4  N2  UNL     1      17.441   1.597 -17.922  1.00  0.00    -0.189 N
ATOM      5  H2  UNL     1      17.295   1.307 -16.955  1.00  0.00     0.184 HD
HETATM    6  C8  UNL     1      17.333   2.870 -18.391  1.00  0.00     0.683 A
HETATM    7  N3  UNL     1      17.073   3.835 -17.648  1.00  0.00    -0.204 N
ATOM      8  H3  UNL     1      17.044   4.677 -18.222  1.00  0.00     0.179 HD
HETATM    9  N4  UNL     1      17.603   2.826 -19.730  1.00  0.00    -0.175 N
HETATM   10  C25 UNL     1      17.879   1.545 -20.086  1.00  0.00     0.095 A
HETATM   11  C26 UNL     1      18.228   0.896 -21.242  1.00  0.00     0.122 A
HETATM   12  N8  UNL     1      18.458  -0.451 -21.250  1.00  0.00    -0.350 N
ATOM     13  H8  UNL     1      18.716  -0.901 -22.128  1.00  0.00     0.166 HD
ENDROOT
BRANCH   9  14
HETATM   14  C12 UNL     1      17.598   3.932 -20.609  1.00  0.00     0.108 C
HETATM   15  C13 UNL     1      16.228   4.431 -20.976  1.00  0.00     0.027 C
HETATM   16  C14 UNL     1      15.631   3.483 -22.038  1.00  0.00     0.017 C
HETATM   17  C15 UNL     1      16.195   3.976 -23.350  1.00  0.00     0.093 C
HETATM   18  C23 UNL     1      17.564   4.493 -23.069  1.00  0.00     0.017 C
HETATM   19  C24 UNL     1      18.285   3.754 -21.940  1.00  0.00     0.027 C
BRANCH  17  20
HETATM   20  C16 UNL     1      16.211   2.859 -24.395  1.00  0.00     0.295 C
HETATM   21  O1  UNL     1      15.260   2.034 -24.250  1.00  0.00    -0.257 OA
HETATM   22  N5  UNL     1      17.166   2.836 -25.326  1.00  0.00    -0.387 NA
BRANCH  22  23
HETATM   23  C17 UNL     1      18.157   2.811 -26.294  1.00  0.00     0.165 C
BRANCH  23  24
HETATM   24  C18 UNL     1      19.383   3.623 -25.909  1.00  0.00     0.116 C
BRANCH  24  25
HETATM   25  C19 UNL     1      19.220   5.014 -26.381  1.00  0.00     0.017 A
HETATM   26  C20 UNL     1      20.061   5.576 -27.297  1.00  0.00     0.042 A
HETATM   27  C21 UNL     1      19.887   6.894 -27.734  1.00  0.00     0.091 A
HETATM   28  N6  UNL     1      18.872   7.585 -27.224  1.00  0.00    -0.362 N
HETATM   29  C22 UNL     1      18.035   7.059 -26.325  1.00  0.00     0.180 A
ATOM     30  H6  UNL     1      18.728   8.547 -27.529  1.00  0.00     0.165 HD
HETATM   31  N7  UNL     1      18.205   5.782 -25.904  1.00  0.00    -0.355 N
ATOM     32  H7  UNL     1      17.561   5.390 -25.217  1.00  0.00     0.166 HD
ENDBRANCH  24  25
ENDBRANCH  23  24
ENDBRANCH  22  23
ENDBRANCH  17  20
ENDBRANCH   9  14
BRANCH   7  33
HETATM   33  C9  UNL     1      16.813   4.192 -16.355  1.00  0.00     0.117 C
HETATM   34  C10 UNL     1      15.596   3.632 -15.661  1.00  0.00     0.056 C
HETATM   35  C11 UNL     1      17.987   3.934 -15.395  1.00  0.00     0.056 C
HETATM   36 CL1  UNL     1      16.587   5.999 -16.282  1.00  0.00    -0.096 Cl
ENDBRANCH   7  33
BRANCH   1  37
HETATM   37  N1  UNL     1      18.578  -2.469 -20.138  1.00  0.00    -0.323 N
ATOM     38  H1  UNL     1      17.889  -3.094 -19.718  1.00  0.00     0.169 HD
BRANCH  37  39
HETATM   39  C4  UNL     1      19.783  -3.019 -20.706  1.00  0.00     0.151 A
HETATM   40  S1  UNL     1      20.250  -4.670 -20.863  1.00  0.00    -0.055 SA
HETATM   41  C3  UNL     1      21.761  -4.437 -21.623  1.00  0.00     0.024 A
HETATM   42  C27 UNL     1      21.817  -3.072 -21.712  1.00  0.00     0.118 A
HETATM   43  N9  UNL     1      20.818  -2.396 -21.247  1.00  0.00    -0.326 N
HETATM   44 CL2  UNL     1      23.235  -2.268 -22.450  1.00  0.00    -0.063 Cl
ATOM     45  H9  UNL     1      20.828  -1.377 -21.297  1.00  0.00     0.169 HD
BRANCH  41  46
HETATM   46  C2  UNL     1      22.792  -5.435 -22.087  1.00  0.00     0.045 C
HETATM   47  C1  UNL     1      22.517  -6.715 -21.353  1.00  0.00     0.010 C
ENDBRANCH  41  46
ENDBRANCH  37  39
ENDBRANCH   1  37
TORSDOF 9
ENDMDL