MODEL 3
REMARK VINA RESULT: -7.510517525      4.068      7.652
REMARK  7 active torsions:
REMARK  status: ('A' for Active; 'I' for Inactive)
REMARK    1  A    between atoms: O1_2  and  C2_3
REMARK    2  A    between atoms: C4_5  and  C5_6
REMARK    3  A    between atoms: C17_23  and  O4_24
REMARK    4  A    between atoms: C18_26  and  C19_27
REMARK    5  A    between atoms: C19_27  and  C21_29
REMARK    6  A    between atoms: C21_29  and  C22_30
REMARK    7  A    between atoms: C22_30  and  C23_31
ROOT
HETATM    1  C5  UNL     1      16.464   4.735 -22.240  1.00  0.00     0.213 C
HETATM    2  O2  UNL     1      17.845   4.758 -22.228  1.00  0.00    -0.369 OA
HETATM    3  C6  UNL     1      18.306   3.993 -23.344  1.00  0.00     0.156 C
HETATM    4  C7  UNL     1      18.051   4.863 -24.541  1.00  0.00     0.267 C
HETATM    5  N1  UNL     1      16.970   5.793 -24.270  1.00  0.00    -0.043 N
ATOM      6  H11 UNL     1      16.620   6.300 -25.082  1.00  0.00     0.280 HD
ATOM      7  H12 UNL     1      17.236   6.626 -23.746  1.00  0.00     0.280 HD
HETATM    8  C8  UNL     1      15.970   4.906 -23.592  1.00  0.00     0.355 C
HETATM    9  O3  UNL     1      15.880   3.866 -24.430  1.00  0.00    -0.345 OA
HETATM   10  C9  UNL     1      16.397   2.637 -24.175  1.00  0.00     0.067 C
HETATM   11  C10 UNL     1      15.276   1.900 -23.415  1.00  0.00     0.046 C
HETATM   12  C11 UNL     1      16.461   2.002 -25.546  1.00  0.00     0.038 C
HETATM   13  C12 UNL     1      17.753   1.301 -25.837  1.00  0.00     0.009 C
HETATM   14  C13 UNL     1      18.080   0.557 -24.606  1.00  0.00     0.004 C
HETATM   15  C14 UNL     1      18.827  -0.678 -24.948  1.00  0.00    -0.026 C
HETATM   16  C15 UNL     1      19.957  -0.546 -25.869  1.00  0.00     0.016 C
HETATM   17  C16 UNL     1      17.913  -1.756 -25.547  1.00  0.00     0.042 C
HETATM   18  C17 UNL     1      18.775  -3.009 -25.267  1.00  0.00     0.128 C
HETATM   19  C18 UNL     1      19.651  -2.673 -24.080  1.00  0.00     0.054 C
HETATM   20  C24 UNL     1      19.047  -1.406 -23.640  1.00  0.00     0.074 C
HETATM   21  C25 UNL     1      19.657  -0.538 -22.668  1.00  0.00     0.133 C
HETATM   22  O7  UNL     1      20.774  -0.672 -22.164  1.00  0.00    -0.297 OA
HETATM   23  C26 UNL     1      18.782   0.630 -22.279  1.00  0.00     0.088 C
HETATM   24  C27 UNL     1      18.609   1.468 -23.585  1.00  0.00    -0.024 C
HETATM   25  C28 UNL     1      20.027   1.963 -23.777  1.00  0.00     0.016 C
HETATM   26  C29 UNL     1      17.677   2.629 -23.385  1.00  0.00     0.059 C
ENDROOT
BRANCH   1  27
HETATM   27  C4  UNL     1      15.972   5.778 -21.291  1.00  0.00    -0.001 A
HETATM   28  C3  UNL     1      15.849   7.095 -21.635  1.00  0.00     0.050 A
HETATM   29  C2  UNL     1      15.294   8.007 -20.724  1.00  0.00     0.090 A
HETATM   30  C32 UNL     1      14.866   7.612 -19.479  1.00  0.00     0.069 A
HETATM   31  C31 UNL     1      14.998   6.268 -19.145  1.00  0.00     0.051 A
HETATM   32 CL2  UNL     1      14.172   8.735 -18.333  1.00  0.00    -0.081 Cl
HETATM   33  C30 UNL     1      15.534   5.377 -20.025  1.00  0.00     0.044 A
HETATM   34 CL1  UNL     1      15.724   3.661 -19.635  1.00  0.00    -0.084 Cl
BRANCH  29  35
HETATM   35  O1  UNL     1      15.167   9.339 -21.071  1.00  0.00    -0.354 OA
HETATM   36  C1  UNL     1      14.923   9.770 -22.396  1.00  0.00     0.210 C
ENDBRANCH  29  35
ENDBRANCH   1  27
BRANCH  18  37
HETATM   37  O4  UNL     1      19.451  -3.387 -26.396  1.00  0.00    -0.395 OA
ATOM     38  H4  UNL     1      20.293  -2.952 -26.441  1.00  0.00     0.210 HD
ENDBRANCH  18  37
BRANCH  19  39
HETATM   39  C19 UNL     1      19.652  -3.689 -22.983  1.00  0.00    -0.080 C
HETATM   40  C20 UNL     1      21.015  -3.954 -22.375  1.00  0.00     0.043 C
BRANCH  39  41
HETATM   41  C21 UNL     1      18.545  -3.723 -22.024  1.00  0.00    -0.013 C
BRANCH  41  42
HETATM   42  C22 UNL     1      18.688  -4.202 -20.647  1.00  0.00     0.140 C
BRANCH  42  43
HETATM   43  C23 UNL     1      18.625  -5.643 -20.403  1.00  0.00     0.176 C
HETATM   44  O5  UNL     1      19.678  -6.289 -20.176  1.00  0.00    -0.648 OA
HETATM   45  O6  UNL     1      17.439  -6.369 -20.406  1.00  0.00    -0.648 OA
ENDBRANCH  42  43
ENDBRANCH  41  42
ENDBRANCH  39  41
ENDBRANCH  19  39
TORSDOF 7
ENDMDL