MODEL 3
REMARK VINA RESULT: -7.913117213      4.517      7.900
REMARK  11 active torsions:
REMARK  status: ('A' for Active; 'I' for Inactive)
REMARK    1  A    between atoms: C2_2  and  C3_3
REMARK    2  A    between atoms: C4_4  and  C5_5
REMARK    3  A    between atoms: C8_8  and  O1_9
REMARK    4  A    between atoms: C11_13  and  O2_14
REMARK    5  A    between atoms: C11_13  and  C12_16
REMARK    6  A    between atoms: C20_25  and  C21_26
REMARK    7  A    between atoms: C21_26  and  C22_27
REMARK    8  A    between atoms: C22_27  and  C24_29
REMARK    9  A    between atoms: C24_29  and  C25_30
REMARK   10  A    between atoms: C25_30  and  O4_31
REMARK   11  A    between atoms: C25_30  and  C26_33
ROOT
HETATM    1  C5  UNL     1      16.322   4.034 -17.451  1.00  0.00     0.046 C
HETATM    2  C6  UNL     1      17.625   3.511 -17.007  1.00  0.00     0.023 C
HETATM    3  C7  UNL     1      17.489   2.646 -15.734  1.00  0.00     0.014 C
HETATM    4  C8  UNL     1      18.436   2.747 -17.984  1.00  0.00     0.130 C
HETATM    5  C9  UNL     1      17.671   2.203 -19.135  1.00  0.00     0.052 C
HETATM    6  C10 UNL     1      17.002   0.899 -18.829  1.00  0.00     0.016 C
HETATM    7  C11 UNL     1      16.736   3.215 -19.798  1.00  0.00     0.117 C
HETATM    8  C19 UNL     1      16.120   4.212 -18.964  1.00  0.00    -0.035 C
HETATM    9  C20 UNL     1      15.906   5.601 -19.289  1.00  0.00     0.007 C
ENDROOT
BRANCH   1  10
HETATM   10  C4  UNL     1      15.153   3.415 -16.795  1.00  0.00    -0.017 C
HETATM   11  C3  UNL     1      14.190   4.031 -16.201  1.00  0.00    -0.004 C
BRANCH  11  12
HETATM   12  C2  UNL     1      14.077   5.468 -16.065  1.00  0.00    -0.011 C
HETATM   13  C1  UNL     1      13.205   6.136 -16.859  1.00  0.00     0.011 C
ENDBRANCH  11  12
ENDBRANCH   1  10
BRANCH   7  14
HETATM   14  O2  UNL     1      15.673   2.352 -20.288  1.00  0.00    -0.382 OA
ATOM     15  H2  UNL     1      15.047   2.988 -20.616  1.00  0.00     0.211 HD
ENDBRANCH   7  14
BRANCH   7  16
HETATM   16  C12 UNL     1      17.427   3.660 -21.085  1.00  0.00     0.184 C
HETATM   17  C13 UNL     1      18.605   2.853 -21.446  1.00  0.00     0.004 C
HETATM   18  C14 UNL     1      19.014   2.761 -22.718  1.00  0.00    -0.025 C
HETATM   19  C15 UNL     1      18.245   3.499 -23.742  1.00  0.00     0.064 C
HETATM   20  C16 UNL     1      16.831   3.655 -23.354  1.00  0.00     0.058 C
HETATM   21  C17 UNL     1      16.337   5.012 -23.898  1.00  0.00     0.046 C
HETATM   22  C18 UNL     1      16.048   2.633 -24.216  1.00  0.00     0.046 C
HETATM   23  O3  UNL     1      16.435   3.448 -22.086  1.00  0.00    -0.368 OA
ENDBRANCH   7  16
BRANCH   9  24
HETATM   24  C21 UNL     1      16.047   6.424 -20.243  1.00  0.00     0.007 C
BRANCH  24  25
HETATM   25  C22 UNL     1      15.736   7.888 -20.063  1.00  0.00    -0.063 C
HETATM   26  C23 UNL     1      16.237   8.575 -18.862  1.00  0.00     0.048 C
BRANCH  25  27
HETATM   27  C24 UNL     1      15.031   8.453 -21.006  1.00  0.00     0.014 C
BRANCH  27  28
HETATM   28  C25 UNL     1      15.502   8.750 -22.382  1.00  0.00     0.174 C
BRANCH  28  29
HETATM   29  O4  UNL     1      14.678   7.965 -23.234  1.00  0.00    -0.389 OA
ATOM     30  H4  UNL     1      15.238   7.262 -23.541  1.00  0.00     0.210 HD
ENDBRANCH  28  29
BRANCH  28  31
HETATM   31  C26 UNL     1      15.186  10.180 -22.697  1.00  0.00     0.205 C
HETATM   32  O5  UNL     1      16.129  11.125 -22.025  1.00  0.00    -0.325 OA
HETATM   33  C27 UNL     1      17.050  10.749 -23.055  1.00  0.00     0.157 C
HETATM   34  N1  UNL     1      18.152  10.504 -23.573  1.00  0.00    -0.336 N
HETATM   35  C34 UNL     1      15.795  10.697 -23.952  1.00  0.00     0.158 C
HETATM   36  C28 UNL     1      18.410  10.063 -24.895  1.00  0.00     0.069 A
ATOM     37  H1  UNL     1      18.969  10.635 -22.976  1.00  0.00     0.168 HD
HETATM   38  C29 UNL     1      19.698   9.874 -25.365  1.00  0.00     0.035 A
HETATM   39  C33 UNL     1      17.276   9.852 -25.674  1.00  0.00     0.122 A
HETATM   40  C30 UNL     1      19.847   9.457 -26.666  1.00  0.00     0.046 A
HETATM   41  C31 UNL     1      18.728   9.238 -27.473  1.00  0.00     0.141 A
HETATM   42  F1  UNL     1      18.916   8.826 -28.747  1.00  0.00    -0.204 F
HETATM   43  C32 UNL     1      17.452   9.436 -26.974  1.00  0.00     0.108 A
HETATM   44 CL1  UNL     1      16.048   9.161 -27.976  1.00  0.00    -0.078 Cl
HETATM   45  O6  UNL     1      16.048  10.069 -25.090  1.00  0.00    -0.325 OA
HETATM   46  C35 UNL     1      15.349  12.177 -24.214  1.00  0.00     0.059 C
ENDBRANCH  28  31
ENDBRANCH  27  28
ENDBRANCH  25  27
ENDBRANCH  24  25
ENDBRANCH   9  24
BRANCH   4  47
HETATM   47  O1  UNL     1      19.029   1.640 -17.335  1.00  0.00    -0.395 OA
ATOM     48  H1  UNL     1      18.781   0.842 -17.785  1.00  0.00     0.210 HD
ENDBRANCH   4  47
TORSDOF 11
ENDMDL