MODEL 3
REMARK VINA RESULT: -9.494659769      2.393      3.340
REMARK  10 active torsions:
REMARK  status: ('A' for Active; 'I' for Inactive)
REMARK       I    between atoms: N1_2  and  C3_4
REMARK    1  A    between atoms: C3_4  and  O2_6
REMARK    2  A    between atoms: O2_6  and  C4_7
REMARK    3  A    between atoms: C8_12  and  N2_13
REMARK    4  A    between atoms: N3_15  and  C9_17
REMARK    5  A    between atoms: N4_19  and  C10_20
REMARK    6  A    between atoms: C10_20  and  C11_21
REMARK    7  A    between atoms: C11_21  and  C12_22
REMARK    8  A    between atoms: C12_22  and  N5_23
REMARK    9  A    between atoms: N5_23  and  C13_25
REMARK   10  A    between atoms: C20_36  and  O3_37
ROOT
HETATM    1  C9  UNL     1      20.480  -1.293 -22.352  1.00  0.00     0.157 A
HETATM    2  S1  UNL     1      21.978  -1.738 -21.713  1.00  0.00     0.014 SA
HETATM    3  N4  UNL     1      21.325  -3.220 -22.122  1.00  0.00    -0.294 N
HETATM    4  C20 UNL     1      20.219  -2.627 -22.573  1.00  0.00     0.186 A
ENDROOT
BRANCH   1   5
HETATM    5  N3  UNL     1      19.882  -0.030 -22.522  1.00  0.00    -0.289 N
HETATM    6  N2  UNL     1      18.626   0.152 -22.580  1.00  0.00    -0.297 N
ATOM      7  H2  UNL     1      18.007  -0.656 -22.500  1.00  0.00     0.187 HD
ATOM      8  H3  UNL     1      20.491   0.784 -22.604  1.00  0.00     0.188 HD
BRANCH   6   9
HETATM    9  C8  UNL     1      18.053   1.441 -22.753  1.00  0.00     0.085 A
HETATM   10  C7  UNL     1      17.650   2.093 -21.597  1.00  0.00     0.040 A
HETATM   11  C6  UNL     1      17.089   3.345 -21.740  1.00  0.00     0.024 A
HETATM   12 BR1  UNL     1      17.851   1.310 -19.864  1.00  0.00    -0.049 Br
HETATM   13  C5  UNL     1      16.937   3.925 -22.983  1.00  0.00     0.040 A
HETATM   14  C4  UNL     1      17.336   3.282 -24.137  1.00  0.00     0.100 A
HETATM   15  C21 UNL     1      17.896   2.030 -23.995  1.00  0.00     0.074 A
HETATM   16 BR2  UNL     1      18.463   1.104 -25.561  1.00  0.00    -0.046 Br
BRANCH  14  17
HETATM   17  O2  UNL     1      17.176   3.878 -25.390  1.00  0.00    -0.260 OA
BRANCH  17  18
HETATM   18  C3  UNL     1      17.348   5.242 -25.582  1.00  0.00     0.367 C
HETATM   19  N1  UNL     1      18.507   5.802 -26.166  1.00  0.00    -0.336 N
HETATM   20  C1  UNL     1      19.629   5.007 -26.621  1.00  0.00     0.154 C
HETATM   21  C2  UNL     1      18.590   7.238 -26.324  1.00  0.00     0.154 C
HETATM   22  O1  UNL     1      16.417   5.994 -25.212  1.00  0.00    -0.238 OA
ENDBRANCH  17  18
ENDBRANCH  14  17
ENDBRANCH   6   9
ENDBRANCH   1   5
BRANCH   4  23
HETATM   23  O3  UNL     1      19.046  -3.184 -23.143  1.00  0.00    -0.344 OA
ATOM     24  H3  UNL     1      18.973  -3.632 -23.977  1.00  0.00     0.219 HD
ENDBRANCH   4  23
BRANCH   3  25
HETATM   25  C10 UNL     1      21.745  -4.613 -22.041  1.00  0.00     0.141 C
BRANCH  25  26
HETATM   26  C11 UNL     1      21.412  -5.198 -20.698  1.00  0.00     0.041 C
BRANCH  26  27
HETATM   27  C12 UNL     1      20.172  -4.468 -20.189  1.00  0.00     0.139 C
BRANCH  27  28
HETATM   28  N5  UNL     1      19.001  -5.189 -20.596  1.00  0.00    -0.226 N
ATOM     29  H5  UNL     1      18.449  -4.814 -21.367  1.00  0.00     0.177 HD
BRANCH  28  30
HETATM   30  C13 UNL     1      18.609  -6.284 -20.041  1.00  0.00     0.679 A
HETATM   31  N6  UNL     1      17.955  -7.305 -20.616  1.00  0.00    -0.190 N
HETATM   32  C14 UNL     1      17.739  -8.249 -19.681  1.00  0.00     0.076 A
ATOM     33  H6  UNL     1      17.671  -7.358 -21.595  1.00  0.00     0.184 HD
HETATM   34  C15 UNL     1      17.118  -9.483 -19.738  1.00  0.00     0.032 A
HETATM   35  C19 UNL     1      18.266  -7.824 -18.481  1.00  0.00     0.076 A
HETATM   36  C16 UNL     1      17.028 -10.269 -18.619  1.00  0.00     0.002 A
HETATM   37  C17 UNL     1      17.558  -9.836 -17.422  1.00  0.00     0.002 A
HETATM   38  C18 UNL     1      18.176  -8.612 -17.358  1.00  0.00     0.032 A
HETATM   39  N7  UNL     1      18.793  -6.606 -18.750  1.00  0.00    -0.190 N
ATOM     40  H7  UNL     1      19.265  -6.014 -18.066  1.00  0.00     0.184 HD
ENDBRANCH  28  30
ENDBRANCH  27  28
ENDBRANCH  26  27
ENDBRANCH  25  26
ENDBRANCH   3  25
TORSDOF 10
ENDMDL