MODEL 4
REMARK VINA RESULT: -7.969038945      2.298      4.350
REMARK  10 active torsions:
REMARK  status: ('A' for Active; 'I' for Inactive)
REMARK    1  A    between atoms: O1_2  and  C2_3
REMARK    2  A    between atoms: C4_5  and  C5_6
REMARK    3  A    between atoms: C6_7  and  O2_8
REMARK    4  A    between atoms: O2_8  and  C7_9
REMARK    5  A    between atoms: C7_9  and  C8_10
REMARK    6  A    between atoms: C15_17  and  O3_18
REMARK    7  A    between atoms: C17_20  and  O4_21
REMARK    8  A    between atoms: C21_25  and  O5_26
REMARK    9  A    between atoms: C24_30  and  O6_31
REMARK   10  A    between atoms: C33_43  and  O7_44
ROOT
HETATM    1  C8  UNL     1      18.136   2.416 -18.185  1.00  0.00     0.001 A
HETATM    2  C9  UNL     1      19.005   1.379 -17.507  1.00  0.00     0.014 A
HETATM    3  C10 UNL     1      17.752   0.897 -16.817  1.00  0.00     0.015 A
HETATM    4  C11 UNL     1      16.989   2.010 -17.511  1.00  0.00     0.012 A
HETATM    5  C12 UNL     1      17.453   3.392 -17.274  1.00  0.00     0.032 A
HETATM    6  C13 UNL     1      17.706   3.485 -15.814  1.00  0.00    -0.021 C
HETATM    7  C14 UNL     1      17.167   4.433 -15.056  1.00  0.00     0.010 C
HETATM    8  C15 UNL     1      16.265   5.519 -15.500  1.00  0.00     0.110 C
HETATM    9  C17 UNL     1      15.673   6.202 -14.230  1.00  0.00     0.160 C
HETATM   10  C19 UNL     1      14.298   5.787 -14.611  1.00  0.00     0.047 C
HETATM   11  C20 UNL     1      14.926   5.312 -15.937  1.00  0.00     0.067 C
HETATM   12  C21 UNL     1      14.278   4.092 -16.395  1.00  0.00     0.082 C
HETATM   13  C22 UNL     1      14.471   2.832 -15.721  1.00  0.00     0.010 C
HETATM   14  C23 UNL     1      15.036   1.795 -16.240  1.00  0.00     0.010 C
HETATM   15  C24 UNL     1      15.559   1.817 -17.634  1.00  0.00     0.085 C
HETATM   16  C25 UNL     1      14.754   2.728 -18.455  1.00  0.00     0.046 C
HETATM   17  C26 UNL     1      14.308   4.014 -17.898  1.00  0.00     0.046 C
ENDROOT
BRANCH   1  18
HETATM   18  C7  UNL     1      18.327   2.749 -19.636  1.00  0.00     0.187 C
BRANCH  18  19
HETATM   19  O2  UNL     1      17.565   1.848 -20.409  1.00  0.00    -0.348 OA
BRANCH  19  20
HETATM   20  C6  UNL     1      18.085   1.098 -21.470  1.00  0.00     0.099 A
HETATM   21  C5  UNL     1      18.080   1.472 -22.749  1.00  0.00    -0.004 A
HETATM   22  C29 UNL     1      18.716   0.384 -23.527  1.00  0.00     0.065 A
HETATM   23  C28 UNL     1      19.074  -0.622 -22.518  1.00  0.00     0.044 A
HETATM   24  C30 UNL     1      19.935   0.829 -24.311  1.00  0.00     0.021 C
HETATM   25  C27 UNL     1      18.707  -0.212 -21.324  1.00  0.00     0.086 A
HETATM   26 CL2  UNL     1      19.880  -2.150 -22.912  1.00  0.00    -0.086 Cl
HETATM   27 CL1  UNL     1      18.962  -1.136 -19.843  1.00  0.00    -0.080 Cl
BRANCH  21  28
HETATM   28  C4  UNL     1      17.529   2.733 -23.264  1.00  0.00    -0.024 A
HETATM   29  C3  UNL     1      16.906   3.679 -22.493  1.00  0.00     0.051 A
HETATM   30  C2  UNL     1      16.426   4.870 -23.020  1.00  0.00     0.102 A
HETATM   31  C33 UNL     1      16.569   5.127 -24.348  1.00  0.00     0.099 A
HETATM   32  C32 UNL     1      17.190   4.200 -25.157  1.00  0.00     0.040 A
HETATM   33  C31 UNL     1      17.662   3.013 -24.603  1.00  0.00     0.015 A
BRANCH  30  34
HETATM   34  O1  UNL     1      15.798   5.819 -22.225  1.00  0.00    -0.353 OA
HETATM   35  C1  UNL     1      16.054   5.799 -20.841  1.00  0.00     0.210 C
ENDBRANCH  30  34
BRANCH  31  36
HETATM   36  O7  UNL     1      16.097   6.318 -24.913  1.00  0.00    -0.358 OA
ATOM     37  H7  UNL     1      16.116   7.136 -24.430  1.00  0.00     0.217 HD
ENDBRANCH  31  36
ENDBRANCH  21  28
ENDBRANCH  19  20
ENDBRANCH  18  19
ENDBRANCH   1  18
BRANCH  15  38
HETATM   38  O6  UNL     1      15.370   0.509 -18.202  1.00  0.00    -0.385 OA
ATOM     39  H6  UNL     1      14.826   0.624 -18.973  1.00  0.00     0.211 HD
ENDBRANCH  15  38
BRANCH   8  40
HETATM   40  O3  UNL     1      17.024   6.520 -16.144  1.00  0.00    -0.378 OA
HETATM   41  C16 UNL     1      16.545   7.061 -17.270  1.00  0.00     0.203 C
ENDBRANCH   8  40
BRANCH  12  42
HETATM   42  O5  UNL     1      12.875   4.360 -16.117  1.00  0.00    -0.385 OA
ATOM     43  H5  UNL     1      12.466   3.521 -16.296  1.00  0.00     0.211 HD
ENDBRANCH  12  42
BRANCH   9  44
HETATM   44  O4  UNL     1      15.933   7.509 -14.045  1.00  0.00    -0.387 OA
HETATM   45  C18 UNL     1      14.868   8.331 -13.776  1.00  0.00     0.202 C
ENDBRANCH   9  44
TORSDOF 10
ENDMDL