MODEL 4
REMARK VINA RESULT: -2.425261033      1.816      2.206
REMARK  5 active torsions:
REMARK  status: ('A' for Active; 'I' for Inactive)
REMARK    1  A    between atoms: O1_2  and  C2_3
REMARK    2  A    between atoms: C5_6  and  C6_7
REMARK    3  A    between atoms: C8_9  and  N1_10
REMARK    4  A    between atoms: N1_10  and  C9_12
REMARK       I    between atoms: N2_15  and  C12_16
REMARK    5  A    between atoms: C12_16  and  C13_18
ROOT
HETATM    1  C6  UNL     1      26.773   0.924 -11.363  1.00  0.00     0.022 A
HETATM    2  C7  UNL     1      25.850  -0.040 -11.220  1.00  0.00     0.064 A
HETATM    3  C8  UNL     1      25.006  -0.251 -12.279  1.00  0.00     0.088 A
HETATM    4  S1  UNL     1      25.550   0.906 -13.407  1.00  0.00     0.003 SA
HETATM    5  N3  UNL     1      26.798   1.595 -12.512  1.00  0.00    -0.328 N
ATOM      6  H3  UNL     1      27.426   2.350 -12.787  1.00  0.00     0.174 HD
ENDROOT
BRANCH   3   7
HETATM    7  N1  UNL     1      24.033  -1.125 -12.379  1.00  0.00    -0.378 N
ATOM      8  H1  UNL     1      24.051  -1.882 -13.062  1.00  0.00     0.160 HD
BRANCH   7   9
HETATM    9  C9  UNL     1      22.932  -0.945 -11.458  1.00  0.00     0.085 C
HETATM   10  C10 UNL     1      22.379   0.462 -11.489  1.00  0.00     0.045 C
HETATM   11  C11 UNL     1      21.588   0.628 -10.184  1.00  0.00     0.128 C
HETATM   12  N2  UNL     1      20.526  -0.365 -10.230  1.00  0.00    -0.344 N
HETATM   13  C12 UNL     1      19.188   0.005  -9.949  1.00  0.00     0.327 C
HETATM   14  C14 UNL     1      20.810  -1.747 -10.562  1.00  0.00     0.128 C
HETATM   15  O2  UNL     1      18.302  -0.905 -10.000  1.00  0.00    -0.263 OA
HETATM   16  C15 UNL     1      21.802  -1.887 -11.697  1.00  0.00     0.045 C
BRANCH  13  17
HETATM   17  C13 UNL     1      18.766   1.366  -9.603  1.00  0.00     0.472 C
HETATM   18  F1  UNL     1      17.573   1.641 -10.285  1.00  0.00    -0.162 F
HETATM   19  F2  UNL     1      19.657   2.344 -10.068  1.00  0.00    -0.162 F
HETATM   20  F3  UNL     1      18.486   1.526  -8.257  1.00  0.00    -0.162 F
ENDBRANCH  13  17
ENDBRANCH   7   9
ENDBRANCH   3   7
BRANCH   1  21
HETATM   21  C5  UNL     1      27.774   1.270 -10.277  1.00  0.00     0.036 C
HETATM   22  C4  UNL     1      27.123   1.972  -9.132  1.00  0.00     0.013 C
HETATM   23  C3  UNL     1      27.092   1.177  -7.862  1.00  0.00     0.032 C
HETATM   24  C2  UNL     1      28.461   0.730  -7.468  1.00  0.00     0.120 C
HETATM   25  C17 UNL     1      29.325   0.322  -8.633  1.00  0.00     0.032 C
HETATM   26  C16 UNL     1      28.400  -0.015  -9.782  1.00  0.00     0.013 C
BRANCH  24  27
HETATM   27  O1  UNL     1      28.450  -0.322  -6.561  1.00  0.00    -0.391 OA
HETATM   28  C1  UNL     1      27.783  -1.438  -7.049  1.00  0.00     0.202 C
ENDBRANCH  24  27
ENDBRANCH   1  21
TORSDOF 5
ENDMDL