MODEL 4
REMARK VINA RESULT: -6.605172473      1.845      2.240
REMARK  5 active torsions:
REMARK  status: ('A' for Active; 'I' for Inactive)
REMARK    1  A    between atoms: C2_2  and  C3_3
REMARK    2  A    between atoms: C3_3  and  O2_5
REMARK    3  A    between atoms: O2_5  and  C4_6
REMARK    4  A    between atoms: C4_6  and  C5_7
REMARK       I    between atoms: C5_7  and  N1_9
REMARK    5  A    between atoms: N1_9  and  C6_11
ROOT
HETATM    1  C4  UNL     1      24.451  -0.041 -12.162  1.00  0.00     0.281 C
ENDROOT
BRANCH   1   2
HETATM    2  O2  UNL     1      23.551   0.438 -11.199  1.00  0.00    -0.311 OA
BRANCH   2   3
HETATM    3  C3  UNL     1      22.791  -0.292 -10.335  1.00  0.00     0.267 C
HETATM    4  O1  UNL     1      23.230  -0.493  -9.175  1.00  0.00    -0.264 OA
BRANCH   3   5
HETATM    5  C2  UNL     1      21.461  -0.875 -10.672  1.00  0.00     0.047 C
HETATM    6  C1  UNL     1      21.717  -2.194 -11.365  1.00  0.00     0.026 C
HETATM    7  C8  UNL     1      20.593  -1.011  -9.454  1.00  0.00     0.022 C
HETATM    8  C9  UNL     1      19.556   0.108  -9.564  1.00  0.00     0.043 C
HETATM    9  C10 UNL     1      19.312   0.119 -11.067  1.00  0.00     0.114 C
HETATM   10 CL1  UNL     1      18.386  -1.304 -11.551  1.00  0.00    -0.102 Cl
HETATM   11 CL2  UNL     1      18.441   1.584 -11.575  1.00  0.00    -0.102 Cl
HETATM   12  C11 UNL     1      20.718   0.074 -11.601  1.00  0.00     0.061 C
ENDBRANCH   3   5
ENDBRANCH   2   3
ENDBRANCH   1   2
BRANCH   1  13
HETATM   13  C5  UNL     1      25.339   0.965 -12.745  1.00  0.00     0.247 C
HETATM   14  O3  UNL     1      25.238   1.155 -14.010  1.00  0.00    -0.271 OA
HETATM   15  N1  UNL     1      26.283   1.738 -12.069  1.00  0.00    -0.305 N
ATOM     16  H1  UNL     1      26.716   2.500 -12.591  1.00  0.00     0.171 HD
BRANCH  15  17
HETATM   17  C6  UNL     1      26.660   1.581 -10.849  1.00  0.00     0.161 A
HETATM   18  N2  UNL     1      26.600   2.569  -9.958  1.00  0.00    -0.303 N
HETATM   19  S1  UNL     1      27.127   2.187  -8.438  1.00  0.00     0.038 SA
ATOM     20  H2  UNL     1      26.253   3.497 -10.197  1.00  0.00     0.176 HD
HETATM   21  C7  UNL     1      27.618   0.561  -8.451  1.00  0.00     0.274 A
HETATM   22  O4  UNL     1      28.077  -0.120  -7.518  1.00  0.00    -0.271 OA
HETATM   23  S2  UNL     1      27.282   0.219 -10.076  1.00  0.00    -0.002 SA
ENDBRANCH  15  17
ENDBRANCH   1  13
TORSDOF 5
ENDMDL