MODEL 1
REMARK VINA RESULT: 1.619741725      0.000      0.000
REMARK  5 active torsions:
REMARK  status: ('A' for Active; 'I' for Inactive)
REMARK    1  A    between atoms: S1_2  and  C2_3
REMARK    2  A    between atoms: C4_8  and  N2_9
REMARK    3  A    between atoms: N3_12  and  C7_13
REMARK    4  A    between atoms: C11_17  and  C12_18
REMARK    5  A    between atoms: C13_22  and  C14_23
ROOT
HETATM    1  C2  UNL     1      26.389   0.330  -8.920  1.00  0.00     0.147 A
HETATM    2  N1  UNL     1      25.542  -0.330  -8.120  1.00  0.00    -0.302 N
ATOM      3  H1  UNL     1      25.778  -0.520  -7.146  1.00  0.00     0.171 HD
HETATM    4  C3  UNL     1      24.388  -0.729  -8.637  1.00  0.00     0.276 A
HETATM    5  O1  UNL     1      23.556  -1.342  -7.933  1.00  0.00    -0.266 OA
HETATM    6  C4  UNL     1      24.051  -0.468 -10.005  1.00  0.00     0.123 A
HETATM    7  C13 UNL     1      24.911   0.209 -10.826  1.00  0.00     0.051 A
HETATM    8  N4  UNL     1      26.085   0.578 -10.182  1.00  0.00    -0.337 N
ATOM      9  H4  UNL     1      26.776   1.088 -10.733  1.00  0.00     0.168 HD
ENDROOT
BRANCH   6  10
HETATM   10  N2  UNL     1      22.842  -1.005 -10.462  1.00  0.00    -0.359 N
HETATM   11  C5  UNL     1      22.915  -2.064 -11.488  1.00  0.00     0.143 C
HETATM   12  C6  UNL     1      21.722  -2.991 -11.441  1.00  0.00     0.137 C
HETATM   13  N3  UNL     1      20.555  -2.267 -11.807  1.00  0.00    -0.405 N
HETATM   14  C10 UNL     1      20.573  -0.933 -11.362  1.00  0.00     0.151 C
HETATM   15  C11 UNL     1      21.491  -0.684 -10.127  1.00  0.00     0.210 C
BRANCH  13  16
HETATM   16  C7  UNL     1      19.334  -2.976 -11.670  1.00  0.00     0.071 C
HETATM   17  C8  UNL     1      18.589  -3.263 -12.930  1.00  0.00     0.031 C
HETATM   18  C9  UNL     1      18.415  -2.254 -10.701  1.00  0.00     0.031 C
ENDBRANCH  13  16
BRANCH  15  19
HETATM   19  C12 UNL     1      21.097   0.646  -9.655  1.00  0.00     0.409 C
HETATM   20  F1  UNL     1      21.020   1.667 -10.548  1.00  0.00    -0.169 F
HETATM   21  F2  UNL     1      21.729   1.097  -8.486  1.00  0.00    -0.169 F
HETATM   22  F3  UNL     1      19.765   0.506  -9.194  1.00  0.00    -0.169 F
ENDBRANCH  15  19
ENDBRANCH   6  10
BRANCH   7  23
HETATM   23  C14 UNL     1      24.717   0.594 -12.194  1.00  0.00    -0.006 C
HETATM   24  C15 UNL     1      23.280   0.913 -12.619  1.00  0.00     0.021 C
HETATM   25  C16 UNL     1      25.352   2.035 -12.338  1.00  0.00     0.021 C
HETATM   26  C17 UNL     1      25.413  -0.066 -13.311  1.00  0.00     0.021 C
ENDBRANCH   7  23
BRANCH   1  27
HETATM   27  S1  UNL     1      27.987   0.904  -8.283  1.00  0.00    -0.098 SA
HETATM   28  C1  UNL     1      29.263   0.673  -9.580  1.00  0.00     0.099 C
ENDBRANCH   1  27
TORSDOF 5
ENDMDL