MODEL 1
REMARK VINA RESULT: -2.330223225      0.000      0.000
REMARK  6 active torsions:
REMARK  status: ('A' for Active; 'I' for Inactive)
REMARK    1  A    between atoms: N1_4  and  C4_5
REMARK    2  A    between atoms: C6_11  and  C7_12
REMARK    3  A    between atoms: C8_13  and  C9_14
REMARK    4  A    between atoms: C9_14  and  C10_16
REMARK    5  A    between atoms: C11_20  and  O1_21
REMARK    6  A    between atoms: O1_21  and  C12_22
ROOT
HETATM    1  C4  UNL     1      25.652   1.093 -11.299  1.00  0.00     0.141 A
HETATM    2  N2  UNL     1      25.566   1.756 -12.492  1.00  0.00    -0.336 N
ATOM      3  H2  UNL     1      26.322   2.391 -12.748  1.00  0.00     0.168 HD
HETATM    4  C5  UNL     1      24.551   1.617 -13.334  1.00  0.00     0.183 A
HETATM    5  N3  UNL     1      23.561   0.790 -13.003  1.00  0.00    -0.343 N
ATOM      6  H3  UNL     1      22.772   0.671 -13.638  1.00  0.00     0.167 HD
HETATM    7  C6  UNL     1      23.586   0.100 -11.826  1.00  0.00     0.125 A
HETATM    8  C11 UNL     1      24.618   0.239 -10.972  1.00  0.00     0.148 A
ENDROOT
BRANCH   1   9
HETATM    9  N1  UNL     1      26.801   1.328 -10.509  1.00  0.00    -0.361 N
HETATM   10  C3  UNL     1      26.694   1.865  -9.202  1.00  0.00     0.149 C
HETATM   11  C2  UNL     1      27.992   2.018  -8.477  1.00  0.00     0.090 C
HETATM   12  C1  UNL     1      27.749   1.669  -7.010  1.00  0.00     0.033 C
HETATM   13  N4  UNL     1      29.079   1.220  -8.915  1.00  0.00    -0.414 N
HETATM   14  C19 UNL     1      28.827   0.260  -9.933  1.00  0.00     0.134 C
ATOM     15  H4  UNL     1      30.011   1.331  -8.513  1.00  0.00     0.153 HD
HETATM   16  C18 UNL     1      28.090   1.002 -11.059  1.00  0.00     0.143 C
ENDBRANCH   1   9
BRANCH   8  17
HETATM   17  O1  UNL     1      24.669  -0.444  -9.779  1.00  0.00    -0.339 OA
BRANCH  17  18
HETATM   18  C12 UNL     1      25.761  -0.928  -9.088  1.00  0.00     0.129 C
HETATM   19  C13 UNL     1      25.406  -1.259  -7.625  1.00  0.00     0.032 C
HETATM   20  C14 UNL     1      26.719  -1.300  -6.879  1.00  0.00     0.002 C
HETATM   21  C15 UNL     1      27.663  -2.305  -7.460  1.00  0.00     0.000 C
HETATM   22  C16 UNL     1      27.754  -2.313  -8.941  1.00  0.00     0.002 C
HETATM   23  C17 UNL     1      26.398  -2.188  -9.617  1.00  0.00     0.032 C
ENDBRANCH  17  18
ENDBRANCH   8  17
BRANCH   7  24
HETATM   24  C7  UNL     1      22.412  -0.705 -11.523  1.00  0.00    -0.043 C
HETATM   25  C8  UNL     1      21.401  -1.322 -11.269  1.00  0.00    -0.053 C
BRANCH  25  26
HETATM   26  C9  UNL     1      20.152  -2.009 -10.964  1.00  0.00     0.356 C
HETATM   27  F1  UNL     1      20.278  -2.795  -9.826  1.00  0.00    -0.226 F
BRANCH  26  28
HETATM   28  C10 UNL     1      19.061  -1.042 -10.722  1.00  0.00     0.429 C
HETATM   29  F2  UNL     1      17.905  -1.594 -11.319  1.00  0.00    -0.167 F
HETATM   30  F3  UNL     1      18.788  -0.960  -9.353  1.00  0.00    -0.167 F
HETATM   31  F4  UNL     1      19.216   0.201 -11.246  1.00  0.00    -0.167 F
ENDBRANCH  26  28
ENDBRANCH  25  26
ENDBRANCH   7  24
TORSDOF 6
ENDMDL