MODEL 1
REMARK VINA RESULT: -6.162171415      0.000      0.000
REMARK  5 active torsions:
REMARK  status: ('A' for Active; 'I' for Inactive)
REMARK    1  A    between atoms: C2_2  and  N1_5
REMARK    2  A    between atoms: C10_12  and  N2_13
REMARK    3  A    between atoms: N2_13  and  C11_15
REMARK    4  A    between atoms: C11_15  and  C12_16
REMARK    5  A    between atoms: C14_20  and  C15_21
ROOT
HETATM    1  N1  UNL     1      27.034  -0.175  -9.739  1.00  0.00    -0.390 N
HETATM    2  C5  UNL     1      27.289   0.441 -10.989  1.00  0.00     0.091 C
HETATM    3  C6  UNL     1      27.365  -0.552 -12.141  1.00  0.00     0.051 C
HETATM    4  C7  UNL     1      27.666   0.272 -13.384  1.00  0.00     0.169 C
HETATM    5  O1  UNL     1      26.984   1.473 -13.389  1.00  0.00    -0.391 OA
HETATM    6  C8  UNL     1      25.764   1.379 -12.707  1.00  0.00     0.176 C
HETATM    7  C9  UNL     1      26.070   1.297 -11.262  1.00  0.00     0.057 C
HETATM    8  C10 UNL     1      25.064   0.804 -10.369  1.00  0.00     0.112 C
HETATM    9  C17 UNL     1      25.860   0.314  -9.147  1.00  0.00     0.042 C
HETATM   10  C18 UNL     1      25.991   1.501  -8.233  1.00  0.00     0.040 C
HETATM   11  C19 UNL     1      24.985  -0.743  -8.504  1.00  0.00     0.040 C
ENDROOT
BRANCH   8  12
HETATM   12  N2  UNL     1      24.028  -0.098 -10.680  1.00  0.00    -0.410 N
ATOM     13  H2  UNL     1      24.050  -1.061 -10.343  1.00  0.00     0.154 HD
BRANCH  12  14
HETATM   14  C11 UNL     1      22.945   0.378 -11.482  1.00  0.00     0.156 C
BRANCH  14  15
HETATM   15  C12 UNL     1      21.658  -0.359 -11.105  1.00  0.00    -0.010 A
HETATM   16  C13 UNL     1      20.537   0.272 -10.744  1.00  0.00     0.099 A
HETATM   17  N3  UNL     1      19.332  -0.410 -10.687  1.00  0.00    -0.348 N
HETATM   18  C14 UNL     1      19.343  -1.734 -11.025  1.00  0.00     0.190 A
ATOM     19  H3  UNL     1      18.470   0.057 -10.404  1.00  0.00     0.166 HD
HETATM   20  N4  UNL     1      20.461  -2.354 -11.357  1.00  0.00    -0.348 N
HETATM   21  C16 UNL     1      21.674  -1.685 -11.402  1.00  0.00     0.099 A
ATOM     22  H4  UNL     1      20.431  -3.348 -11.585  1.00  0.00     0.166 HD
BRANCH  18  23
HETATM   23  C15 UNL     1      18.076  -2.486 -11.306  1.00  0.00     0.449 C
HETATM   24  F1  UNL     1      17.583  -2.981 -10.133  1.00  0.00    -0.163 F
HETATM   25  F2  UNL     1      18.535  -3.610 -12.058  1.00  0.00    -0.163 F
HETATM   26  F3  UNL     1      17.167  -1.850 -12.059  1.00  0.00    -0.163 F
ENDBRANCH  18  23
ENDBRANCH  14  15
ENDBRANCH  12  14
ENDBRANCH   8  12
BRANCH   1  27
HETATM   27  C2  UNL     1      28.107  -0.616  -8.962  1.00  0.00     0.018 C
HETATM   28  C1  UNL     1      27.928  -0.833  -7.501  1.00  0.00     0.037 C
HETATM   29  C3  UNL     1      28.640  -1.899  -9.571  1.00  0.00     0.037 C
HETATM   30  C4  UNL     1      29.285   0.379  -9.029  1.00  0.00     0.037 C
ENDBRANCH   1  27
TORSDOF 5
ENDMDL