MODEL 5
REMARK VINA RESULT: 0.794321791      1.151      6.777
REMARK  5 active torsions:
REMARK  status: ('A' for Active; 'I' for Inactive)
REMARK    1  A    between atoms: C2_2  and  N1_4
REMARK    2  A    between atoms: N2_7  and  C6_8
REMARK    3  A    between atoms: C7_11  and  N4_12
REMARK    4  A    between atoms: N4_12  and  C8_14
REMARK    5  A    between atoms: C16_22  and  C17_23
ROOT
HETATM    1  C6  UNL     1      25.349   0.408 -10.708  1.00  0.00     0.682 A
HETATM    2  N3  UNL     1      24.002   0.392 -10.883  1.00  0.00    -0.177 N
ATOM      3  H3  UNL     1      23.411   0.300 -10.057  1.00  0.00     0.185 HD
HETATM    4  C7  UNL     1      23.403   0.491 -12.076  1.00  0.00     0.119 A
HETATM    5  C15 UNL     1      24.195   0.616 -13.188  1.00  0.00     0.083 A
HETATM    6  C16 UNL     1      25.559   0.636 -13.059  1.00  0.00     0.136 A
HETATM    7  N5  UNL     1      26.089   0.531 -11.822  1.00  0.00    -0.186 N
ATOM      8  H5  UNL     1      27.104   0.546 -11.729  1.00  0.00     0.184 HD
ENDROOT
BRANCH   1   9
HETATM    9  N2  UNL     1      25.908   0.313  -9.416  1.00  0.00    -0.211 N
HETATM   10  C5  UNL     1      26.819   1.231  -8.819  1.00  0.00     0.185 C
HETATM   11  C4  UNL     1      28.081   0.499  -8.405  1.00  0.00     0.079 C
HETATM   12  N1  UNL     1      27.770  -0.687  -7.724  1.00  0.00    -0.386 N
HETATM   13  C19 UNL     1      26.414  -0.942  -7.396  1.00  0.00     0.143 C
HETATM   14  C18 UNL     1      25.492  -0.840  -8.597  1.00  0.00     0.161 C
BRANCH  12  15
HETATM   15  C2  UNL     1      28.778  -1.370  -7.017  1.00  0.00     0.075 C
HETATM   16  C1  UNL     1      29.119  -0.718  -5.717  1.00  0.00     0.032 C
HETATM   17  C3  UNL     1      28.464  -2.839  -6.777  1.00  0.00     0.032 C
ENDBRANCH  12  15
ENDBRANCH   1   9
BRANCH   4  18
HETATM   18  N4  UNL     1      22.136   0.453 -12.075  1.00  0.00    -0.371 N
ATOM     19  H4  UNL     1      21.705   1.014 -12.810  1.00  0.00     0.161 HD
BRANCH  18  20
HETATM   20  C8  UNL     1      21.210  -0.217 -11.250  1.00  0.00     0.083 C
HETATM   21  C9  UNL     1      20.346  -1.247 -11.890  1.00  0.00     0.025 C
HETATM   22  C10 UNL     1      20.214  -2.416 -10.904  1.00  0.00     0.002 C
HETATM   23  C11 UNL     1      18.927  -2.188 -10.138  1.00  0.00     0.000 C
HETATM   24  C12 UNL     1      19.000  -0.924  -9.321  1.00  0.00     0.000 C
HETATM   25  C13 UNL     1      19.001   0.327 -10.132  1.00  0.00     0.002 C
HETATM   26  C14 UNL     1      20.329   0.813 -10.576  1.00  0.00     0.025 C
ENDBRANCH  18  20
ENDBRANCH   4  18
BRANCH   6  27
HETATM   27  C17 UNL     1      26.483   0.776 -14.235  1.00  0.00     0.433 C
HETATM   28  F1  UNL     1      27.483   1.658 -13.801  1.00  0.00    -0.165 F
HETATM   29  F2  UNL     1      25.863   1.314 -15.321  1.00  0.00    -0.165 F
HETATM   30  F3  UNL     1      27.103  -0.418 -14.481  1.00  0.00    -0.165 F
ENDBRANCH   6  27
TORSDOF 5
ENDMDL