MODEL 3
REMARK VINA RESULT: 1.480998700      1.568      1.897
REMARK  4 active torsions:
REMARK  status: ('A' for Active; 'I' for Inactive)
REMARK    1  A    between atoms: C2_2  and  C3_3
REMARK    2  A    between atoms: C3_3  and  N1_4
REMARK       I    between atoms: N1_4  and  C4_6
REMARK       I    between atoms: C4_6  and  N2_8
REMARK    3  A    between atoms: C8_14  and  N4_15
REMARK    4  A    between atoms: C14_23  and  C15_24
ROOT
HETATM    1  N1  UNL     1      26.644   1.594  -8.848  1.00  0.00    -0.343 N
ATOM      2  H1  UNL     1      26.197   2.220  -9.518  1.00  0.00     0.164 HD
HETATM    3  C4  UNL     1      26.207   0.258  -8.814  1.00  0.00     0.319 C
HETATM    4  O1  UNL     1      26.748  -0.525  -7.980  1.00  0.00    -0.247 OA
HETATM    5  N2  UNL     1      25.193  -0.205  -9.675  1.00  0.00    -0.306 N
HETATM    6  C5  UNL     1      24.620  -1.533  -9.590  1.00  0.00     0.137 C
HETATM    7  C6  UNL     1      25.428  -2.646 -10.112  1.00  0.00     0.039 C
HETATM    8  C7  UNL     1      23.251  -1.386 -10.241  1.00  0.00     0.049 A
HETATM    9  N3  UNL     1      22.157  -2.114 -10.302  1.00  0.00    -0.337 N
ATOM     10  H3  UNL     1      22.127  -3.021  -9.837  1.00  0.00     0.168 HD
HETATM   11  C8  UNL     1      21.109  -1.685 -10.953  1.00  0.00     0.147 A
HETATM   12  S1  UNL     1      21.657  -0.159 -11.533  1.00  0.00    -0.054 SA
HETATM   13  C13 UNL     1      23.230  -0.180 -10.885  1.00  0.00     0.042 A
HETATM   14  C14 UNL     1      24.579   0.529 -10.724  1.00  0.00     0.239 C
ENDROOT
BRANCH  14  15
HETATM   15  C15 UNL     1      25.304   0.478 -12.022  1.00  0.00     0.412 C
HETATM   16  F1  UNL     1      25.217   1.729 -12.654  1.00  0.00    -0.168 F
HETATM   17  F2  UNL     1      24.816  -0.473 -12.911  1.00  0.00    -0.168 F
HETATM   18  F3  UNL     1      26.623   0.201 -11.848  1.00  0.00    -0.168 F
ENDBRANCH  14  15
BRANCH   1  19
HETATM   19  C3  UNL     1      27.681   2.145  -8.004  1.00  0.00     0.124 C
BRANCH  19  20
HETATM   20  C2  UNL     1      28.892   1.248  -7.949  1.00  0.00     0.015 C
HETATM   21  C1  UNL     1      29.291   0.752  -9.342  1.00  0.00     0.006 C
ENDBRANCH  19  20
ENDBRANCH   1  19
BRANCH  11  22
HETATM   22  N4  UNL     1      19.816  -2.304 -11.145  1.00  0.00    -0.357 N
HETATM   23  C9  UNL     1      19.322  -2.698 -12.426  1.00  0.00     0.151 C
HETATM   24  C10 UNL     1      17.970  -3.340 -12.264  1.00  0.00     0.187 C
HETATM   25  O2  UNL     1      17.106  -2.649 -11.463  1.00  0.00    -0.388 OA
HETATM   26  C11 UNL     1      17.594  -2.131 -10.305  1.00  0.00     0.187 C
HETATM   27  C12 UNL     1      19.003  -2.519  -9.969  1.00  0.00     0.151 C
ENDBRANCH  11  22
TORSDOF 4
ENDMDL