MODEL 2
REMARK VINA RESULT: -6.285515025      0.575      1.347
REMARK  6 active torsions:
REMARK  status: ('A' for Active; 'I' for Inactive)
REMARK    1  A    between atoms: C2_2  and  N1_5
REMARK    2  A    between atoms: C5_9  and  C6_10
REMARK    3  A    between atoms: C6_10  and  N3_11
REMARK    4  A    between atoms: N3_11  and  C7_12
REMARK    5  A    between atoms: C7_12  and  O1_13
REMARK    6  A    between atoms: C7_12  and  C8_15
ROOT
HETATM    1  C6  UNL     1      24.413   0.437 -12.451  1.00  0.00     0.218 C
ENDROOT
BRANCH   1   2
HETATM    2  C5  UNL     1      25.630   0.435 -11.619  1.00  0.00     0.095 A
HETATM    3  C4  UNL     1      26.942   0.220 -12.132  1.00  0.00     0.142 A
HETATM    4  N2  UNL     1      27.800   0.228 -11.146  1.00  0.00    -0.292 N
HETATM    5  N1  UNL     1      27.133   0.433  -9.998  1.00  0.00    -0.214 N
ATOM      6  H2  UNL     1      28.808   0.100 -11.234  1.00  0.00     0.188 HD
HETATM    7  N4  UNL     1      25.837   0.552 -10.323  1.00  0.00    -0.279 N
ATOM      8  H4  UNL     1      25.095   0.715  -9.643  1.00  0.00     0.189 HD
BRANCH   5   9
HETATM    9  C2  UNL     1      27.725   0.485  -8.711  1.00  0.00     0.120 C
HETATM   10  C1  UNL     1      27.363   1.776  -7.971  1.00  0.00     0.055 C
HETATM   11  C3  UNL     1      29.225   0.399  -8.708  1.00  0.00     0.055 C
HETATM   12 BR1  UNL     1      27.057  -1.046  -7.694  1.00  0.00    -0.059 Br
ENDBRANCH   5   9
ENDBRANCH   1   2
BRANCH   1  13
HETATM   13  N3  UNL     1      23.403  -0.378 -11.979  1.00  0.00    -0.389 NA
BRANCH  13  14
HETATM   14  C7  UNL     1      22.433  -1.159 -11.532  1.00  0.00     0.248 C
BRANCH  14  15
HETATM   15  O1  UNL     1      22.566  -2.508 -11.668  1.00  0.00    -0.333 OA
ATOM     16  H1  UNL     1      23.010  -2.993 -10.983  1.00  0.00     0.220 HD
ENDBRANCH  14  15
BRANCH  14  17
HETATM   17  C8  UNL     1      21.156  -0.796 -10.868  1.00  0.00     0.144 A
HETATM   18  C9  UNL     1      20.164  -1.768 -10.542  1.00  0.00     0.070 A
HETATM   19  C10 UNL     1      19.178  -1.079  -9.945  1.00  0.00     0.082 A
HETATM   20 CL1  UNL     1      17.651  -1.704  -9.296  1.00  0.00    -0.080 Cl
HETATM   21  C11 UNL     1      19.520   0.268  -9.894  1.00  0.00     0.167 A
HETATM   22 CL2  UNL     1      18.553   1.547  -9.217  1.00  0.00    -0.055 Cl
HETATM   23  O2  UNL     1      20.702   0.331 -10.463  1.00  0.00    -0.291 OA
ENDBRANCH  14  17
ENDBRANCH  13  14
ENDBRANCH   1  13
TORSDOF 6
ENDMDL