MODEL 2
REMARK VINA RESULT: -2.533888240      2.538      7.770
REMARK  4 active torsions:
REMARK  status: ('A' for Active; 'I' for Inactive)
REMARK    1  A    between atoms: C1_2  and  C2_5
REMARK    2  A    between atoms: N2_9  and  C4_11
REMARK    3  A    between atoms: N4_21  and  C12_22
REMARK    4  A    between atoms: C12_22  and  C13_23
ROOT
HETATM    1  C2  UNL     1      24.584  -0.508  -9.141  1.00  0.00     0.193 A
HETATM    2  N1  UNL     1      23.342  -0.549  -9.644  1.00  0.00    -0.323 N
ATOM      3  H1  UNL     1      22.594  -0.870  -9.029  1.00  0.00     0.169 HD
HETATM    4  C3  UNL     1      23.008  -0.198 -10.899  1.00  0.00     0.134 A
HETATM    5  N2  UNL     1      21.861  -0.415 -11.452  1.00  0.00    -0.370 N
ATOM      6  H2  UNL     1      21.653  -0.120 -12.406  1.00  0.00     0.161 HD
HETATM    7  C10 UNL     1      24.086   0.246 -11.702  1.00  0.00     0.122 A
HETATM    8  N3  UNL     1      24.106   0.570 -12.996  1.00  0.00    -0.346 N
ATOM      9  H3  UNL     1      23.303   0.622 -13.621  1.00  0.00     0.167 HD
HETATM   10  C11 UNL     1      25.415   0.821 -13.322  1.00  0.00     0.189 A
HETATM   11  N4  UNL     1      26.179   0.649 -12.237  1.00  0.00    -0.306 N
HETATM   12  C19 UNL     1      25.343   0.292 -11.223  1.00  0.00     0.145 A
HETATM   13  N6  UNL     1      25.577  -0.079  -9.949  1.00  0.00    -0.322 N
ATOM     14  H6  UNL     1      26.530  -0.035  -9.585  1.00  0.00     0.169 HD
ENDROOT
BRANCH  11  15
HETATM   15  C12 UNL     1      27.583   0.840 -12.142  1.00  0.00     0.079 C
BRANCH  15  16
HETATM   16  C13 UNL     1      28.364   0.498 -10.974  1.00  0.00     0.055 C
HETATM   17  C14 UNL     1      27.999  -0.977 -10.648  1.00  0.00     0.014 C
HETATM   18  C15 UNL     1      28.504  -1.429  -9.333  1.00  0.00     0.034 C
HETATM   19  C16 UNL     1      28.749  -0.266  -8.419  1.00  0.00     0.188 C
HETATM   20  C17 UNL     1      29.802   0.611  -9.049  1.00  0.00     0.066 C
HETATM   21  N5  UNL     1      27.817   0.813  -8.590  1.00  0.00    -0.066 N
HETATM   22  C18 UNL     1      28.538   1.242  -9.749  1.00  0.00     0.197 C
ATOM     23  H52 UNL     1      26.817   0.620  -8.651  1.00  0.00     0.278 HD
ATOM     24  H51 UNL     1      27.642   1.464  -7.824  1.00  0.00     0.278 HD
ENDBRANCH  15  16
ENDBRANCH  11  15
BRANCH   1  25
HETATM   25  C1  UNL     1      24.922  -0.964  -7.772  1.00  0.00     0.449 C
HETATM   26  F1  UNL     1      23.880  -1.405  -7.034  1.00  0.00    -0.163 F
HETATM   27  F2  UNL     1      25.918  -1.920  -7.810  1.00  0.00    -0.163 F
HETATM   28  F3  UNL     1      25.462   0.138  -7.115  1.00  0.00    -0.163 F
ENDBRANCH   1  25
BRANCH   5  29
HETATM   29  C4  UNL     1      20.876  -1.113 -10.618  1.00  0.00     0.083 C
HETATM   30  C5  UNL     1      20.065  -2.044 -11.550  1.00  0.00     0.025 C
HETATM   31  C6  UNL     1      19.191  -2.843 -10.648  1.00  0.00     0.002 C
HETATM   32  C7  UNL     1      18.178  -2.004  -9.930  1.00  0.00     0.000 C
HETATM   33  C8  UNL     1      18.631  -0.658  -9.548  1.00  0.00     0.002 C
HETATM   34  C9  UNL     1      19.851  -0.100 -10.170  1.00  0.00     0.025 C
ENDBRANCH   5  29
TORSDOF 4
ENDMDL