MODEL 5
REMARK VINA RESULT: -2.946008233      1.985      2.731
REMARK  4 active torsions:
REMARK  status: ('A' for Active; 'I' for Inactive)
REMARK    1  A    between atoms: C1_2  and  C2_5
REMARK    2  A    between atoms: C2_5  and  C3_6
REMARK    3  A    between atoms: C3_6  and  C4_7
REMARK    4  A    between atoms: N1_10  and  C7_11
ROOT
HETATM    1  C7  UNL     1      23.542  -0.227 -10.939  1.00  0.00     0.114 A
HETATM    2  N2  UNL     1      23.735   0.159 -12.225  1.00  0.00    -0.338 N
ATOM      3  H2  UNL     1      22.931   0.166 -12.852  1.00  0.00     0.168 HD
HETATM    4  C8  UNL     1      24.928   0.532 -12.716  1.00  0.00     0.182 A
HETATM    5  N3  UNL     1      25.982   0.515 -11.873  1.00  0.00    -0.354 N
ATOM      6  H3  UNL     1      26.896   0.794 -12.229  1.00  0.00     0.166 HD
HETATM    7  C9  UNL     1      25.879   0.149 -10.591  1.00  0.00     0.032 A
HETATM    8  C10 UNL     1      24.653  -0.230 -10.101  1.00  0.00     0.026 A
HETATM    9  C11 UNL     1      24.453  -0.653  -8.686  1.00  0.00     0.158 C
HETATM   10  N4  UNL     1      25.657  -0.991  -7.998  1.00  0.00    -0.416 N
ATOM     11  H4  UNL     1      25.682  -1.126  -6.986  1.00  0.00     0.153 HD
HETATM   12  C12 UNL     1      26.823  -1.127  -8.812  1.00  0.00     0.130 C
HETATM   13  C13 UNL     1      27.038   0.128  -9.670  1.00  0.00     0.022 C
HETATM   14  C14 UNL     1      27.038   1.338  -8.762  1.00  0.00     0.044 C
HETATM   15  C15 UNL     1      28.134   1.156  -7.738  1.00  0.00     0.168 C
HETATM   16  O1  UNL     1      29.265   0.561  -8.291  1.00  0.00    -0.391 OA
HETATM   17  C16 UNL     1      29.405   0.845  -9.643  1.00  0.00     0.168 C
HETATM   18  C17 UNL     1      28.359   0.027 -10.387  1.00  0.00     0.044 C
ENDROOT
BRANCH   1  19
HETATM   19  N1  UNL     1      22.245  -0.601 -10.515  1.00  0.00    -0.367 N
HETATM   20  C6  UNL     1      21.110   0.286 -10.411  1.00  0.00     0.125 C
HETATM   21  C5  UNL     1      19.894  -0.291 -11.096  1.00  0.00     0.024 C
HETATM   22  C4  UNL     1      19.593  -1.705 -10.720  1.00  0.00    -0.011 C
HETATM   23  C19 UNL     1      20.591  -2.178  -9.663  1.00  0.00     0.024 C
HETATM   24  C18 UNL     1      22.013  -1.983 -10.144  1.00  0.00     0.125 C
BRANCH  22  25
HETATM   25  C3  UNL     1      19.649  -2.577 -11.931  1.00  0.00     0.013 C
BRANCH  25  26
HETATM   26  C2  UNL     1      18.390  -3.265 -12.321  1.00  0.00     0.117 C
BRANCH  26  27
HETATM   27  C1  UNL     1      17.120  -2.504 -12.116  1.00  0.00     0.387 C
HETATM   28  F1  UNL     1      16.213  -2.879 -13.130  1.00  0.00    -0.171 F
HETATM   29  F2  UNL     1      16.511  -2.834 -10.924  1.00  0.00    -0.171 F
HETATM   30  F3  UNL     1      17.256  -1.128 -12.276  1.00  0.00    -0.171 F
ENDBRANCH  26  27
ENDBRANCH  25  26
ENDBRANCH  22  25
ENDBRANCH   1  19
TORSDOF 4
ENDMDL