MODEL 3
REMARK VINA RESULT: -4.903163695      1.695      1.969
REMARK  4 active torsions:
REMARK  status: ('A' for Active; 'I' for Inactive)
REMARK    1  A    between atoms: N1_1  and  N2_4
REMARK    2  A    between atoms: N2_4  and  N3_6
REMARK    3  A    between atoms: C1_8  and  C2_9
REMARK    4  A    between atoms: C2_9  and  N4_10
ROOT
HETATM    1  N3  UNL     1      83.257 -18.667  20.039  1.00  0.00    -0.300 N
ATOM      2  H3  UNL     1      83.311 -19.335  19.270  1.00  0.00     0.187 HD
HETATM    3  C1  UNL     1      82.745 -19.073  21.126  1.00  0.00     0.104 C
ENDROOT
BRANCH   1   4
HETATM    4  N2  UNL     1      83.748 -17.395  19.808  1.00  0.00    -0.250 N
ATOM      5  H2  UNL     1      84.727 -17.286  19.544  1.00  0.00     0.207 HD
BRANCH   4   6
HETATM    6  N1  UNL     1      83.011 -16.343  19.916  1.00  0.00    -0.331 N
ATOM      7  H12 UNL     1      82.271 -16.349  20.618  1.00  0.00     0.178 HD
ATOM      8  H11 UNL     1      83.147 -15.520  19.328  1.00  0.00     0.178 HD
ENDBRANCH   4   6
ENDBRANCH   1   4
BRANCH   3   9
HETATM    9  C2  UNL     1      82.252 -20.462  21.255  1.00  0.00     0.212 C
BRANCH   9  10
HETATM   10  N4  UNL     1      82.781 -21.316  20.189  1.00  0.00    -0.182 N
HETATM   11  N5  UNL     1      83.951 -21.874  19.930  1.00  0.00     0.061 NA
HETATM   12  O1  UNL     1      83.475 -22.402  18.843  1.00  0.00    -0.125 OA
HETATM   13  N6  UNL     1      82.323 -21.865  19.078  1.00  0.00     0.061 NA
ENDBRANCH   9  10
ENDBRANCH   3   9
TORSDOF 4
ENDMDL