MODEL 2
REMARK VINA RESULT: -4.100096418      1.916      2.476
REMARK  3 active torsions:
REMARK  status: ('A' for Active; 'I' for Inactive)
REMARK    1  A    between atoms: N3_6  and  C3_7
REMARK    2  A    between atoms: C3_7  and  O1_8
REMARK    3  A    between atoms: O1_8  and  O2_9
ROOT
HETATM    1  C1  UNL     1      83.289 -19.088  20.188  1.00  0.00     0.140 C
HETATM    2  N1  UNL     1      83.035 -20.033  21.226  1.00  0.00    -0.198 NA
HETATM    3  C2  UNL     1      81.727 -20.078  21.788  1.00  0.00     0.255 A
HETATM    4  N2  UNL     1      81.751 -21.455  21.342  1.00  0.00    -0.307 N
ATOM      5  H2  UNL     1      81.081 -22.221  21.393  1.00  0.00     0.183 HD
HETATM    6  N3  UNL     1      82.904 -21.348  20.867  1.00  0.00    -0.229 N
ENDROOT
BRANCH   6   7
HETATM    7  C3  UNL     1      83.799 -22.251  20.188  1.00  0.00     0.372 C
BRANCH   7   8
HETATM    8  O1  UNL     1      83.374 -22.476  18.892  1.00  0.00    -0.221 OA
BRANCH   8   9
HETATM    9  O2  UNL     1      84.256 -23.228  18.253  1.00  0.00    -0.249 OA
ATOM     10  H2  UNL     1      83.808 -23.910  17.767  1.00  0.00     0.253 HD
ENDBRANCH   8   9
ENDBRANCH   7   8
ENDBRANCH   6   7
TORSDOF 3
ENDMDL