MODEL 5
REMARK VINA RESULT: -4.222394156      2.178      2.871
REMARK  1 active torsions:
REMARK  status: ('A' for Active; 'I' for Inactive)
REMARK    1  A    between atoms: C1_2  and  N1_3
ROOT
HETATM    1  N1  UNL     1      82.992 -21.506  20.327  1.00  0.00    -0.256 N
HETATM    2  C2  UNL     1      81.849 -20.892  19.622  1.00  0.00     0.259 C
HETATM    3  N2  UNL     1      81.264 -20.219  20.804  1.00  0.00    -0.182 NA
HETATM    4  C3  UNL     1      82.500 -19.627  21.323  1.00  0.00     0.249 C
HETATM    5  N3  UNL     1      82.788 -21.037  21.642  1.00  0.00    -0.108 NA
HETATM    6  N4  UNL     1      81.386 -21.281  21.715  1.00  0.00    -0.049 NA
ENDROOT
BRANCH   1   7
HETATM    7  C1  UNL     1      84.012 -22.333  19.837  1.00  0.00     0.369 C
HETATM    8  O1  UNL     1      83.841 -22.923  18.761  1.00  0.00    -0.282 OA
ENDBRANCH   1   7
TORSDOF 1
ENDMDL