MODEL 5
REMARK VINA RESULT: -4.548293493      2.138      2.373
REMARK  3 active torsions:
REMARK  status: ('A' for Active; 'I' for Inactive)
REMARK    1  A    between atoms: C2_2  and  O1_3
REMARK    2  A    between atoms: O1_3  and  N1_4
REMARK    3  A    between atoms: N4_9  and  O2_10
ROOT
HETATM    1  N1  UNL     1      81.857 -20.139  19.321  1.00  0.00    -0.058 N
HETATM    2  N2  UNL     1      83.017 -19.560  19.353  1.00  0.00    -0.181 N
ATOM      3  H2  UNL     1      83.190 -18.569  19.517  1.00  0.00     0.214 HD
HETATM    4  N3  UNL     1      83.931 -20.480  19.136  1.00  0.00    -0.181 N
ATOM      5  H3  UNL     1      84.939 -20.323  19.102  1.00  0.00     0.214 HD
HETATM    6  N4  UNL     1      83.327 -21.639  18.968  1.00  0.00    -0.060 N
HETATM    7  N5  UNL     1      82.029 -21.424  19.085  1.00  0.00    -0.156 N
ATOM      8  H5  UNL     1      81.293 -22.125  19.006  1.00  0.00     0.217 HD
ENDROOT
BRANCH   1   9
HETATM    9  O1  UNL     1      80.589 -19.612  19.491  1.00  0.00    -0.242 OA
BRANCH   9  10
HETATM   10  C2  UNL     1      80.349 -18.882  20.684  1.00  0.00     0.201 C
HETATM   11  C1  UNL     1      80.290 -19.786  21.888  1.00  0.00     0.036 C
ENDBRANCH   9  10
ENDBRANCH   1   9
BRANCH   6  12
HETATM   12  O2  UNL     1      83.893 -22.874  18.717  1.00  0.00    -0.251 OA
ATOM     13  H2  UNL     1      84.641 -23.081  18.169  1.00  0.00     0.248 HD
ENDBRANCH   6  12
TORSDOF 3
ENDMDL