MODEL 4
REMARK VINA RESULT: -4.443803912      2.799      3.070
REMARK  2 active torsions:
REMARK  status: ('A' for Active; 'I' for Inactive)
REMARK    1  A    between atoms: O1_2  and  N1_3
REMARK    2  A    between atoms: N4_7  and  O2_8
ROOT
HETATM    1  N1  UNL     1      82.287 -21.845  20.150  1.00  0.00    -0.058 N
HETATM    2  N2  UNL     1      83.135 -22.064  19.134  1.00  0.00     0.044 NA
HETATM    3  N3  UNL     1      84.257 -22.574  19.650  1.00  0.00    -0.179 N
ATOM      4  H3  UNL     1      85.083 -22.841  19.114  1.00  0.00     0.210 HD
HETATM    5  N4  UNL     1      84.131 -22.680  20.958  1.00  0.00    -0.064 N
HETATM    6  N5  UNL     1      82.917 -22.225  21.224  1.00  0.00    -0.159 N
ATOM      7  H5  UNL     1      82.520 -22.177  22.162  1.00  0.00     0.216 HD
ENDROOT
BRANCH   1   8
HETATM    8  O1  UNL     1      81.022 -21.318  19.988  1.00  0.00    -0.249 OA
HETATM    9  C1  UNL     1      80.355 -21.655  18.769  1.00  0.00     0.241 C
ENDBRANCH   1   8
BRANCH   5  10
HETATM   10  O2  UNL     1      85.092 -23.167  21.810  1.00  0.00    -0.251 OA
ATOM     11  H2  UNL     1      85.258 -24.088  21.981  1.00  0.00     0.248 HD
ENDBRANCH   5  10
TORSDOF 2
ENDMDL