MODEL 1
REMARK VINA RESULT: -3.845453902      0.000      0.000
REMARK  1 active torsions:
REMARK  status: ('A' for Active; 'I' for Inactive)
REMARK    1  A    between atoms: O1_2  and  N1_3
ROOT
HETATM    1  N1  UNL     1      83.198 -18.641  20.253  1.00  0.00    -0.140 N
HETATM    2  C2  UNL     1      83.930 -17.518  20.193  1.00  0.00     0.253 A
HETATM    3  N2  UNL     1      83.111 -16.453  20.211  1.00  0.00    -0.277 N
ATOM      4  H2  UNL     1      83.388 -15.473  20.177  1.00  0.00     0.189 HD
HETATM    5  N3  UNL     1      81.886 -16.918  20.280  1.00  0.00    -0.225 N
ATOM      6  H3  UNL     1      81.036 -16.356  20.309  1.00  0.00     0.210 HD
HETATM    7  N4  UNL     1      81.938 -18.227  20.305  1.00  0.00    -0.201 N
ATOM      8  H4  UNL     1      81.126 -18.841  20.358  1.00  0.00     0.212 HD
ENDROOT
BRANCH   1   9
HETATM    9  O1  UNL     1      83.629 -19.950  20.259  1.00  0.00    -0.261 OA
HETATM   10  C1  UNL     1      83.375 -20.742  19.135  1.00  0.00     0.240 C
ENDBRANCH   1   9
TORSDOF 1
ENDMDL