MODEL 2
REMARK VINA RESULT: -4.071032477      1.853      2.769
REMARK  3 active torsions:
REMARK  status: ('A' for Active; 'I' for Inactive)
REMARK    1  A    between atoms: O1_1  and  C1_3
REMARK    2  A    between atoms: C1_3  and  N1_4
REMARK    3  A    between atoms: N3_9  and  O2_10
ROOT
HETATM    1  N1  UNL     1      82.373 -21.743  19.864  1.00  0.00    -0.237 N
HETATM    2  C2  UNL     1      81.061 -21.562  19.610  1.00  0.00     0.135 A
HETATM    3  C3  UNL     1      80.427 -21.847  20.798  1.00  0.00     0.130 A
HETATM    4  N2  UNL     1      81.365 -22.191  21.728  1.00  0.00    -0.269 N
ATOM      5  H2  UNL     1      81.193 -22.453  22.699  1.00  0.00     0.190 HD
HETATM    6  N3  UNL     1      82.540 -22.117  21.128  1.00  0.00    -0.091 N
ENDROOT
BRANCH   1   7
HETATM    7  C1  UNL     1      83.484 -21.568  18.930  1.00  0.00     0.316 C
BRANCH   7   8
HETATM    8  O1  UNL     1      84.019 -22.826  18.688  1.00  0.00    -0.380 OA
ATOM      9  H1  UNL     1      83.331 -23.353  18.300  1.00  0.00     0.211 HD
ENDBRANCH   7   8
ENDBRANCH   1   7
BRANCH   6  10
HETATM   10  O2  UNL     1      83.743 -22.390  21.733  1.00  0.00    -0.253 OA
ATOM     11  H2  UNL     1      84.072 -21.979  22.524  1.00  0.00     0.248 HD
ENDBRANCH   6  10
TORSDOF 3
ENDMDL