MODEL 2
REMARK VINA RESULT: -4.009454848      2.255      2.747
REMARK  3 active torsions:
REMARK  status: ('A' for Active; 'I' for Inactive)
REMARK    1  A    between atoms: O1_1  and  C1_3
REMARK    2  A    between atoms: C1_3  and  C2_4
REMARK    3  A    between atoms: C2_4  and  N1_5
ROOT
HETATM    1  N1  UNL     1      82.356 -20.034  19.255  1.00  0.00    -0.195 N
HETATM    2  N2  UNL     1      81.365 -20.332  18.520  1.00  0.00    -0.163 N
ATOM      3  H2  UNL     1      81.384 -21.026  17.772  1.00  0.00     0.220 HD
HETATM    4  O2  UNL     1      80.266 -19.592  18.869  1.00  0.00    -0.123 OA
HETATM    5  N3  UNL     1      80.677 -18.785  19.916  1.00  0.00    -0.165 N
ATOM      6  H3  UNL     1      80.107 -18.105  20.420  1.00  0.00     0.220 HD
HETATM    7  N4  UNL     1      81.899 -19.055  20.131  1.00  0.00    -0.203 N
ATOM      8  H4  UNL     1      82.470 -18.611  20.850  1.00  0.00     0.212 HD
ENDROOT
BRANCH   1   9
HETATM    9  C2  UNL     1      83.686 -20.614  19.175  1.00  0.00     0.199 C
BRANCH   9  10
HETATM   10  C1  UNL     1      83.611 -22.044  19.671  1.00  0.00     0.187 C
BRANCH  10  11
HETATM   11  O1  UNL     1      84.039 -22.900  18.649  1.00  0.00    -0.399 OA
ATOM     12  H1  UNL     1      83.582 -22.674  17.848  1.00  0.00     0.209 HD
ENDBRANCH  10  11
ENDBRANCH   9  10
ENDBRANCH   1   9
TORSDOF 3
ENDMDL