MODEL 4
REMARK VINA RESULT: -4.138996562      2.814      3.096
REMARK  3 active torsions:
REMARK  status: ('A' for Active; 'I' for Inactive)
REMARK    1  A    between atoms: O1_1  and  C1_3
REMARK    2  A    between atoms: C1_3  and  C2_4
REMARK    3  A    between atoms: C2_4  and  N1_5
ROOT
HETATM    1  N1  UNL     1      83.148 -20.066  20.318  1.00  0.00    -0.260 N
HETATM    2  C3  UNL     1      83.527 -20.493  19.099  1.00  0.00     0.224 A
HETATM    3  N2  UNL     1      83.943 -21.778  19.260  1.00  0.00    -0.238 N
ATOM      4  H2  UNL     1      84.295 -22.396  18.529  1.00  0.00     0.197 HD
HETATM    5  O2  UNL     1      83.809 -22.073  20.525  1.00  0.00    -0.141 OA
HETATM    6  N3  UNL     1      83.335 -21.068  21.189  1.00  0.00     0.050 NA
ENDROOT
BRANCH   1   7
HETATM    7  C2  UNL     1      82.633 -18.740  20.608  1.00  0.00     0.174 C
BRANCH   7   8
HETATM    8  C1  UNL     1      83.735 -17.691  20.444  1.00  0.00     0.185 C
BRANCH   8   9
HETATM    9  O1  UNL     1      83.278 -16.604  19.707  1.00  0.00    -0.399 OA
ATOM     10  H1  UNL     1      83.887 -16.387  19.011  1.00  0.00     0.209 HD
ENDBRANCH   8   9
ENDBRANCH   7   8
ENDBRANCH   1   7
TORSDOF 3
ENDMDL