MODEL 4
REMARK VINA RESULT: -4.086134952      2.734      3.363
REMARK  1 active torsions:
REMARK  status: ('A' for Active; 'I' for Inactive)
REMARK    1  A    between atoms: N5_9  and  C2_10
ROOT
HETATM    1  C1  UNL     1      81.058 -15.235  23.118  1.00  0.00     0.204 C
HETATM    2  N1  UNL     1      80.512 -16.012  22.024  1.00  0.00    -0.198 N
HETATM    3  N2  UNL     1      79.240 -16.263  21.787  1.00  0.00    -0.209 N
ATOM      4  H2  UNL     1      78.453 -15.941  22.350  1.00  0.00     0.211 HD
HETATM    5  N3  UNL     1      79.158 -17.001  20.702  1.00  0.00    -0.210 N
ATOM      6  H3  UNL     1      78.298 -17.350  20.278  1.00  0.00     0.211 HD
HETATM    7  N4  UNL     1      80.364 -17.208  20.266  1.00  0.00    -0.202 N
ATOM      8  H4  UNL     1      80.619 -17.747  19.438  1.00  0.00     0.212 HD
HETATM    9  N5  UNL     1      81.201 -16.597  21.081  1.00  0.00    -0.136 N
ENDROOT
BRANCH   9  10
HETATM   10  C2  UNL     1      82.613 -16.595  20.932  1.00  0.00     0.397 C
HETATM   11  O1  UNL     1      83.176 -16.905  19.851  1.00  0.00    -0.280 OA
ENDBRANCH   9  10
TORSDOF 1
ENDMDL