MODEL 3
REMARK VINA RESULT: -6.989334178      2.388      5.922
REMARK  10 active torsions:
REMARK  status: ('A' for Active; 'I' for Inactive)
REMARK    1  A    between atoms: C2_3  and  C3_4
REMARK    2  A    between atoms: C4_7  and  N3_8
REMARK    3  A    between atoms: C5_13  and  N5_14
REMARK    4  A    between atoms: C6_19  and  O1_20
REMARK    5  A    between atoms: O1_20  and  C7_21
REMARK    6  A    between atoms: C7_21  and  C8_22
REMARK    7  A    between atoms: C8_22  and  C9_23
REMARK    8  A    between atoms: C9_23  and  C10_24
REMARK    9  A    between atoms: C10_24  and  C11_25
REMARK   10  A    between atoms: C11_25  and  C12_26
ROOT
HETATM    1  C1  UNL     1      -3.544  -2.343  -3.215  1.00  0.00     0.176 C
HETATM    2  N1  UNL     1      -4.614  -1.384  -2.977  1.00  0.00    -0.180 N
HETATM    3  C2  UNL     1      -5.915  -1.598  -2.792  1.00  0.00     0.147 A
HETATM    4  C6  UNL     1      -6.532  -0.343  -2.583  1.00  0.00     0.189 A
HETATM    5  N7  UNL     1      -5.557   0.570  -2.655  1.00  0.00    -0.168 N
ATOM      6  H7  UNL     1      -5.690   1.575  -2.545  1.00  0.00     0.186 HD
HETATM    7  C18 UNL     1      -4.387  -0.024  -2.891  1.00  0.00     0.680 A
HETATM    8  N8  UNL     1      -3.252   0.552  -3.019  1.00  0.00    -0.234 N
ATOM      9  H81 UNL     1      -3.083   1.556  -2.955  1.00  0.00     0.174 HD
ATOM     10  H82 UNL     1      -2.357   0.097  -3.199  1.00  0.00     0.174 HD
ENDROOT
BRANCH   3  11
HETATM   11  C3  UNL     1      -6.655  -2.843  -2.769  1.00  0.00     0.168 A
HETATM   12  N2  UNL     1      -7.249  -3.210  -1.585  1.00  0.00    -0.173 N
HETATM   13  C4  UNL     1      -7.933  -4.347  -1.448  1.00  0.00     0.692 A
ATOM     14  H2  UNL     1      -7.164  -2.589  -0.781  1.00  0.00     0.186 HD
HETATM   15  N4  UNL     1      -8.088  -5.213  -2.465  1.00  0.00    -0.023 N
HETATM   16  C5  UNL     1      -7.523  -4.884  -3.628  1.00  0.00     0.692 A
ATOM     17  H4  UNL     1      -8.613  -6.080  -2.352  1.00  0.00     0.203 HD
HETATM   18  N6  UNL     1      -6.825  -3.718  -3.756  1.00  0.00    -0.173 N
ATOM     19  H6  UNL     1      -6.409  -3.505  -4.663  1.00  0.00     0.186 HD
BRANCH  13  20
HETATM   20  N3  UNL     1      -8.468  -4.640  -0.313  1.00  0.00    -0.234 N
ATOM     21  H32 UNL     1      -7.851  -4.894   0.458  1.00  0.00     0.174 HD
ATOM     22  H31 UNL     1      -9.483  -4.612  -0.208  1.00  0.00     0.174 HD
ENDBRANCH  13  20
BRANCH  16  23
HETATM   23  N5  UNL     1      -7.653  -5.693  -4.621  1.00  0.00    -0.234 N
ATOM     24  H52 UNL     1      -8.575  -5.940  -4.981  1.00  0.00     0.174 HD
ATOM     25  H51 UNL     1      -6.811  -6.084  -5.042  1.00  0.00     0.174 HD
ENDBRANCH  16  23
ENDBRANCH   3  11
BRANCH   4  26
HETATM   26  O1  UNL     1      -7.875  -0.191  -2.361  1.00  0.00    -0.334 OA
BRANCH  26  27
HETATM   27  C7  UNL     1      -8.501  -0.110  -1.144  1.00  0.00     0.177 C
BRANCH  27  28
HETATM   28  C8  UNL     1      -7.656   0.175   0.054  1.00  0.00     0.027 C
BRANCH  28  29
HETATM   29  C9  UNL     1      -7.394  -1.136   0.808  1.00  0.00     0.002 C
BRANCH  29  30
HETATM   30  C10 UNL     1      -5.937  -1.233   1.202  1.00  0.00     0.000 C
BRANCH  30  31
HETATM   31  C11 UNL     1      -5.424  -2.626   1.214  1.00  0.00     0.004 C
BRANCH  31  32
HETATM   32  C12 UNL     1      -3.938  -2.748   0.991  1.00  0.00    -0.014 C
HETATM   33  C13 UNL     1      -3.678  -4.184   0.599  1.00  0.00     0.004 C
HETATM   34  C14 UNL     1      -2.237  -4.559   0.582  1.00  0.00     0.000 C
HETATM   35  C15 UNL     1      -1.707  -4.337   2.006  1.00  0.00     0.000 C
HETATM   36  C16 UNL     1      -1.750  -2.853   2.223  1.00  0.00     0.000 C
HETATM   37  C17 UNL     1      -3.134  -2.296   2.163  1.00  0.00     0.004 C
ENDBRANCH  31  32
ENDBRANCH  30  31
ENDBRANCH  29  30
ENDBRANCH  28  29
ENDBRANCH  27  28
ENDBRANCH  26  27
ENDBRANCH   4  26
TORSDOF 10
ENDMDL