MODEL 4
REMARK VINA RESULT: -6.446200366      1.249      2.082
REMARK  11 active torsions:
REMARK  status: ('A' for Active; 'I' for Inactive)
REMARK    1  A    between atoms: C2_2  and  C3_3
REMARK    2  A    between atoms: C3_3  and  C4_4
REMARK    3  A    between atoms: C4_4  and  N1_5
REMARK    4  A    between atoms: N1_5  and  C5_7
REMARK    5  A    between atoms: C6_10  and  N3_11
REMARK    6  A    between atoms: C8_19  and  C9_20
REMARK    7  A    between atoms: C11_24  and  N7_25
REMARK    8  A    between atoms: C12_30  and  O1_31
REMARK    9  A    between atoms: O1_31  and  C13_32
REMARK   10  A    between atoms: C13_32  and  C14_33
REMARK   11  A    between atoms: C14_33  and  C15_34
ROOT
HETATM    1  C5  UNL     1     -10.943  -0.231  -1.035  1.00  0.00     0.147 A
HETATM    2  N2  UNL     1     -11.729   0.224  -0.043  1.00  0.00    -0.175 N
ATOM      3  H2  UNL     1     -12.745   0.200  -0.129  1.00  0.00     0.186 HD
HETATM    4  C6  UNL     1     -11.145   0.710   1.066  1.00  0.00     0.679 A
HETATM    5  N4  UNL     1      -9.807   0.743   1.184  1.00  0.00    -0.174 N
ATOM      6  H4  UNL     1      -9.395   1.119   2.038  1.00  0.00     0.186 HD
HETATM    7  C7  UNL     1      -8.989   0.294   0.205  1.00  0.00     0.153 A
HETATM    8  N5  UNL     1      -7.648   0.211   0.064  1.00  0.00    -0.325 N
ATOM      9  H5  UNL     1      -6.964   0.511   0.758  1.00  0.00     0.169 HD
HETATM   10  C8  UNL     1      -7.355  -0.325  -1.127  1.00  0.00     0.123 A
HETATM   11  N9  UNL     1      -8.539  -0.575  -1.725  1.00  0.00    -0.335 N
ATOM     12  H9  UNL     1      -8.644  -0.987  -2.652  1.00  0.00     0.168 HD
HETATM   13  C17 UNL     1      -9.561  -0.205  -0.930  1.00  0.00     0.123 A
ENDROOT
BRANCH  10  14
HETATM   14  C9  UNL     1      -6.027  -0.593  -1.682  1.00  0.00     0.075 A
HETATM   15  C10 UNL     1      -5.483   0.257  -2.593  1.00  0.00     0.125 A
HETATM   16  N6  UNL     1      -4.263   0.011  -3.101  1.00  0.00    -0.201 N
HETATM   17  C11 UNL     1      -3.605  -1.090  -2.686  1.00  0.00     0.677 A
ATOM     18  H6  UNL     1      -3.846   0.642  -3.785  1.00  0.00     0.183 HD
HETATM   19  N8  UNL     1      -4.136  -1.934  -1.786  1.00  0.00    -0.170 N
HETATM   20  C12 UNL     1      -5.352  -1.724  -1.254  1.00  0.00     0.172 A
ATOM     21  H8  UNL     1      -3.603  -2.756  -1.499  1.00  0.00     0.186 HD
BRANCH  17  22
HETATM   22  N7  UNL     1      -2.428  -1.300  -3.196  1.00  0.00    -0.234 N
ATOM     23  H72 UNL     1      -1.626  -1.523  -2.606  1.00  0.00     0.174 HD
ATOM     24  H71 UNL     1      -2.345  -1.229  -4.210  1.00  0.00     0.174 HD
ENDBRANCH  17  22
BRANCH  20  25
HETATM   25  O1  UNL     1      -5.953  -2.546  -0.331  1.00  0.00    -0.335 OA
BRANCH  25  26
HETATM   26  C13 UNL     1      -6.363  -3.867  -0.527  1.00  0.00     0.177 C
BRANCH  26  27
HETATM   27  C14 UNL     1      -7.819  -4.041  -0.824  1.00  0.00     0.026 C
BRANCH  27  28
HETATM   28  C15 UNL     1      -8.045  -4.727  -2.159  1.00  0.00    -0.002 C
HETATM   29  C16 UNL     1      -7.446  -3.948  -3.301  1.00  0.00     0.005 C
ENDBRANCH  27  28
ENDBRANCH  26  27
ENDBRANCH  25  26
ENDBRANCH  20  25
ENDBRANCH  10  14
BRANCH   1  30
HETATM   30  N1  UNL     1     -11.450  -0.701  -2.104  1.00  0.00    -0.374 N
ATOM     31  H1  UNL     1     -11.340  -0.132  -2.943  1.00  0.00     0.161 HD
BRANCH  30  32
HETATM   32  C4  UNL     1     -12.153  -1.929  -2.262  1.00  0.00     0.121 C
BRANCH  32  33
HETATM   33  C3  UNL     1     -11.286  -3.050  -2.792  1.00  0.00     0.019 C
BRANCH  33  34
HETATM   34  C2  UNL     1     -11.803  -3.566  -4.121  1.00  0.00    -0.003 C
HETATM   35  C1  UNL     1     -10.864  -4.534  -4.763  1.00  0.00     0.005 C
ENDBRANCH  33  34
ENDBRANCH  32  33
ENDBRANCH  30  32
ENDBRANCH   1  30
BRANCH   4  36
HETATM   36  N3  UNL     1     -11.910   1.149   2.022  1.00  0.00    -0.234 N
ATOM     37  H32 UNL     1     -12.684   0.586   2.373  1.00  0.00     0.174 HD
ATOM     38  H31 UNL     1     -11.713   2.071   2.412  1.00  0.00     0.174 HD
ENDBRANCH   4  36
TORSDOF 11
ENDMDL