MODEL 5
REMARK VINA RESULT: -6.091916145      1.305      2.623
REMARK  12 active torsions:
REMARK  status: ('A' for Active; 'I' for Inactive)
REMARK    1  A    between atoms: C2_2  and  C3_3
REMARK    2  A    between atoms: C3_3  and  C4_4
REMARK    3  A    between atoms: C4_4  and  C5_5
REMARK    4  A    between atoms: C5_5  and  O1_6
REMARK    5  A    between atoms: O1_6  and  C6_7
REMARK    6  A    between atoms: C7_8  and  N1_9
REMARK    7  A    between atoms: N1_9  and  C8_11
REMARK    8  A    between atoms: C8_11  and  O2_12
REMARK    9  A    between atoms: C8_11  and  C9_14
REMARK   10  A    between atoms: C9_14  and  C10_15
REMARK   11  A    between atoms: C18_26  and  N4_27
REMARK   12  A    between atoms: C19_32  and  N6_33
ROOT
HETATM    1  C6  UNL     1      -6.534  -2.019  -1.732  1.00  0.00     0.157 A
HETATM    2  C7  UNL     1      -6.754  -0.650  -1.919  1.00  0.00     0.156 A
HETATM    3  N3  UNL     1      -5.737   0.110  -2.344  1.00  0.00    -0.174 N
ATOM      4  H3  UNL     1      -5.897   1.108  -2.479  1.00  0.00     0.186 HD
HETATM    5  C18 UNL     1      -4.499  -0.390  -2.604  1.00  0.00     0.679 A
HETATM    6  N5  UNL     1      -4.329  -1.701  -2.414  1.00  0.00    -0.174 N
ATOM      7  H5  UNL     1      -3.407  -2.093  -2.604  1.00  0.00     0.186 HD
HETATM    8  C19 UNL     1      -5.290  -2.537  -1.991  1.00  0.00     0.152 A
ENDROOT
BRANCH   2   9
HETATM    9  N1  UNL     1      -8.059  -0.112  -1.666  1.00  0.00    -0.347 N
ATOM     10  H1  UNL     1      -8.771  -0.230  -2.387  1.00  0.00     0.163 HD
BRANCH   9  11
HETATM   11  C8  UNL     1      -8.430   0.584  -0.457  1.00  0.00     0.221 C
BRANCH  11  12
HETATM   12  O2  UNL     1      -7.351   0.812   0.357  1.00  0.00    -0.377 OA
ATOM     13  H2  UNL     1      -7.482   0.460   1.229  1.00  0.00     0.212 HD
ENDBRANCH  11  12
BRANCH  11  14
HETATM   14  C9  UNL     1      -9.651   0.030   0.217  1.00  0.00     0.095 C
BRANCH  14  15
HETATM   15  C10 UNL     1     -10.736   1.025   0.415  1.00  0.00     0.164 C
HETATM   16  C11 UNL     1     -11.161   1.744  -0.815  1.00  0.00     0.042 C
HETATM   17  C12 UNL     1     -11.770   0.809  -1.812  1.00  0.00     0.004 C
HETATM   18  C13 UNL     1     -12.974   0.159  -1.160  1.00  0.00     0.030 C
HETATM   19  C14 UNL     1     -12.624  -0.453   0.171  1.00  0.00     0.273 C
HETATM   20  N2  UNL     1     -11.872   0.393   1.025  1.00  0.00     0.098 N
HETATM   21  C15 UNL     1     -12.613   1.415   1.686  1.00  0.00     0.273 C
HETATM   22  C16 UNL     1     -11.525   2.216   2.368  1.00  0.00     0.033 C
HETATM   23  C17 UNL     1     -10.307   2.006   1.498  1.00  0.00     0.043 C
ENDBRANCH  14  15
ENDBRANCH  11  14
ENDBRANCH   9  11
ENDBRANCH   2   9
BRANCH   1  24
HETATM   24  O1  UNL     1      -7.589  -2.796  -1.292  1.00  0.00    -0.344 OA
BRANCH  24  25
HETATM   25  C5  UNL     1      -8.417  -3.623  -2.030  1.00  0.00     0.176 C
BRANCH  25  26
HETATM   26  C4  UNL     1      -9.811  -3.802  -1.565  1.00  0.00     0.027 C
BRANCH  26  27
HETATM   27  C3  UNL     1     -10.715  -2.747  -2.141  1.00  0.00     0.002 C
BRANCH  27  28
HETATM   28  C2  UNL     1     -12.095  -3.271  -2.334  1.00  0.00    -0.004 C
HETATM   29  C1  UNL     1     -12.559  -2.766  -3.709  1.00  0.00     0.005 C
ENDBRANCH  27  28
ENDBRANCH  26  27
ENDBRANCH  25  26
ENDBRANCH  24  25
ENDBRANCH   1  24
BRANCH   8  30
HETATM   30  N6  UNL     1      -5.064  -3.806  -1.838  1.00  0.00    -0.383 N
ATOM     31  H62 UNL     1      -5.258  -4.476  -2.582  1.00  0.00     0.157 HD
ATOM     32  H61 UNL     1      -4.693  -4.160  -0.956  1.00  0.00     0.157 HD
ENDBRANCH   8  30
BRANCH   5  33
HETATM   33  N4  UNL     1      -3.554   0.403  -3.015  1.00  0.00    -0.234 N
ATOM     34  H42 UNL     1      -3.727   1.261  -3.539  1.00  0.00     0.174 HD
ATOM     35  H41 UNL     1      -2.579   0.177  -2.816  1.00  0.00     0.174 HD
ENDBRANCH   5  33
TORSDOF 12
ENDMDL