MODEL 2
REMARK VINA RESULT: -6.904605023      1.174      1.764
REMARK  12 active torsions:
REMARK  status: ('A' for Active; 'I' for Inactive)
REMARK    1  A    between atoms: N1_2  and  C2_4
REMARK    2  A    between atoms: C3_7  and  C4_8
REMARK    3  A    between atoms: C4_8  and  N3_9
REMARK    4  A    between atoms: N3_9  and  C5_11
REMARK    5  A    between atoms: C5_11  and  C6_12
REMARK    6  A    between atoms: C5_11  and  C7_15
REMARK    7  A    between atoms: C7_15  and  N4_16
REMARK    8  A    between atoms: C7_15  and  C8_20
REMARK    9  A    between atoms: C8_20  and  C9_21
REMARK   10  A    between atoms: C9_21  and  S1_22
REMARK   11  A    between atoms: S1_22  and  C10_23
REMARK   12  A    between atoms: C16_31  and  O3_32
ROOT
HETATM    1  C5  UNL     1      -3.693  -2.896   0.057  1.00  0.00     0.213 C
ENDROOT
BRANCH   1   2
HETATM    2  N3  UNL     1      -4.348  -3.315  -1.136  1.00  0.00    -0.380 N
ATOM      3  H3  UNL     1      -4.956  -4.122  -0.998  1.00  0.00     0.160 HD
BRANCH   2   4
HETATM    4  C4  UNL     1      -4.337  -2.905  -2.308  1.00  0.00     0.133 C
BRANCH   4   5
HETATM    5  C3  UNL     1      -4.399  -1.464  -2.568  1.00  0.00     0.124 A
HETATM    6  N2  UNL     1      -3.378  -0.582  -2.597  1.00  0.00    -0.324 N
HETATM    7  C2  UNL     1      -3.806   0.653  -2.867  1.00  0.00     0.154 A
ATOM      8  H2  UNL     1      -2.402  -0.829  -2.433  1.00  0.00     0.169 HD
HETATM    9  C16 UNL     1      -5.185   0.532  -3.018  1.00  0.00     0.186 A
HETATM   10  N5  UNL     1      -5.513  -0.758  -2.831  1.00  0.00    -0.319 N
ATOM     11  H5  UNL     1      -6.457  -1.142  -2.881  1.00  0.00     0.169 HD
BRANCH   7  12
HETATM   12  N1  UNL     1      -3.067   1.859  -2.986  1.00  0.00    -0.377 N
HETATM   13  C1  UNL     1      -3.460   2.832  -3.955  1.00  0.00     0.148 C
ATOM     14  H1  UNL     1      -2.261   2.031  -2.385  1.00  0.00     0.160 HD
ENDBRANCH   7  12
BRANCH   9  15
HETATM   15  O3  UNL     1      -6.084   1.564  -3.311  1.00  0.00    -0.343 OA
ATOM     16  H3  UNL     1      -6.833   1.513  -3.893  1.00  0.00     0.219 HD
ENDBRANCH   9  15
ENDBRANCH   4   5
ENDBRANCH   2   4
ENDBRANCH   1   2
BRANCH   1  17
HETATM   17  C6  UNL     1      -2.643  -3.846   0.480  1.00  0.00     0.198 C
HETATM   18  O1  UNL     1      -1.490  -3.429   0.837  1.00  0.00    -0.646 OA
HETATM   19  O2  UNL     1      -2.853  -5.196   0.511  1.00  0.00    -0.646 OA
ENDBRANCH   1  17
BRANCH   1  20
HETATM   20  C7  UNL     1      -4.740  -2.633   1.115  1.00  0.00     0.217 C
BRANCH  20  21
HETATM   21  N4  UNL     1      -4.140  -2.409   2.389  1.00  0.00    -0.072 N
ATOM     22  H43 UNL     1      -4.309  -3.188   3.026  1.00  0.00     0.274 HD
ATOM     23  H42 UNL     1      -3.123  -2.465   2.340  1.00  0.00     0.274 HD
ATOM     24  H41 UNL     1      -4.447  -1.523   2.790  1.00  0.00     0.274 HD
ENDBRANCH  20  21
BRANCH  20  25
HETATM   25  C8  UNL     1      -5.782  -1.622   0.718  1.00  0.00     0.045 C
BRANCH  25  26
HETATM   26  C9  UNL     1      -7.151  -2.232   0.900  1.00  0.00     0.076 C
BRANCH  26  27
HETATM   27  S1  UNL     1      -8.039  -2.358  -0.593  1.00  0.00    -0.164 SA
BRANCH  27  28
HETATM   28  C10 UNL     1      -8.853  -0.926  -1.266  1.00  0.00     0.047 C
HETATM   29  C11 UNL     1     -10.322  -0.957  -1.412  1.00  0.00     0.015 C
HETATM   30  C12 UNL     1     -11.142  -0.109  -0.520  1.00  0.00     0.001 C
HETATM   31  C13 UNL     1     -10.536   1.120   0.026  1.00  0.00     0.000 C
HETATM   32  C14 UNL     1      -9.074   1.005   0.364  1.00  0.00     0.001 C
HETATM   33  C15 UNL     1      -8.278   0.374  -0.742  1.00  0.00     0.015 C
ENDBRANCH  27  28
ENDBRANCH  26  27
ENDBRANCH  25  26
ENDBRANCH  20  25
ENDBRANCH   1  20
TORSDOF 12
ENDMDL