MODEL 3
REMARK VINA RESULT: -7.720771722      1.725      2.643
REMARK  10 active torsions:
REMARK  status: ('A' for Active; 'I' for Inactive)
REMARK    1  A    between atoms: C2_2  and  O1_3
REMARK    2  A    between atoms: C2_2  and  C3_5
REMARK    3  A    between atoms: C3_5  and  C4_6
REMARK    4  A    between atoms: C6_10  and  N2_11
REMARK    5  A    between atoms: C7_13  and  C8_14
REMARK    6  A    between atoms: C8_14  and  C9_15
REMARK    7  A    between atoms: C9_15  and  N3_16
REMARK    8  A    between atoms: C9_15  and  C10_20
REMARK    9  A    between atoms: C16_26  and  C17_27
REMARK   10  A    between atoms: C17_27  and  N6_32
REMARK       I    between atoms: N6_32  and  C19_34
ROOT
HETATM    1  C17 UNL     1      -5.620  -1.515  -2.141  1.00  0.00     0.131 C
HETATM    2  N4  UNL     1      -5.746  -0.360  -1.658  1.00  0.00    -0.278 N
ATOM      3  H4  UNL     1      -5.371   0.401  -2.225  1.00  0.00     0.179 HD
HETATM    4  C18 UNL     1      -6.321   0.008  -0.469  1.00  0.00     0.183 C
HETATM    5  N5  UNL     1      -6.831   0.350   0.535  1.00  0.00    -0.172 NA
ENDROOT
BRANCH   1   6
HETATM    6  C16 UNL     1      -6.077  -2.713  -1.494  1.00  0.00     0.059 A
HETATM    7  C4  UNL     1      -5.250  -3.551  -0.774  1.00  0.00     0.028 A
HETATM    8  N1  UNL     1      -6.063  -4.530  -0.294  1.00  0.00    -0.366 N
HETATM    9  C5  UNL     1      -7.318  -4.347  -0.668  1.00  0.00     0.118 A
ATOM     10  H1  UNL     1      -5.743  -5.309   0.283  1.00  0.00     0.165 HD
HETATM   11  C6  UNL     1      -7.340  -3.205  -1.424  1.00  0.00     0.063 A
BRANCH   7  12
HETATM   12  C3  UNL     1      -3.817  -3.537  -0.498  1.00  0.00     0.089 C
BRANCH  12  13
HETATM   13  C2  UNL     1      -3.424  -3.414   0.937  1.00  0.00     0.119 C
HETATM   14  C1  UNL     1      -1.894  -3.274   0.962  1.00  0.00     0.039 C
BRANCH  13  15
HETATM   15  O1  UNL     1      -3.834  -4.421   1.767  1.00  0.00    -0.396 OA
ATOM     16  H1  UNL     1      -4.443  -4.998   1.322  1.00  0.00     0.210 HD
ENDBRANCH  13  15
ENDBRANCH  12  13
ENDBRANCH   7  12
BRANCH  11  17
HETATM   17  N2  UNL     1      -8.560  -2.674  -1.988  1.00  0.00    -0.368 N
HETATM   18  C7  UNL     1      -9.381  -2.083  -1.223  1.00  0.00     0.063 C
ATOM     19  H2  UNL     1      -8.757  -2.773  -2.984  1.00  0.00     0.165 HD
BRANCH  18  20
HETATM   20  C8  UNL     1     -10.649  -1.537  -1.834  1.00  0.00     0.077 C
BRANCH  20  21
HETATM   21  C9  UNL     1     -10.826  -0.097  -1.481  1.00  0.00     0.192 C
BRANCH  21  22
HETATM   22  N3  UNL     1      -9.675   0.414  -0.758  1.00  0.00    -0.074 N
ATOM     23  H33 UNL     1      -8.866  -0.199  -0.859  1.00  0.00     0.274 HD
ATOM     24  H32 UNL     1      -9.295   1.250  -1.203  1.00  0.00     0.274 HD
ATOM     25  H31 UNL     1      -9.897   0.582   0.223  1.00  0.00     0.274 HD
ENDBRANCH  21  22
BRANCH  21  26
HETATM   26  C10 UNL     1     -12.048   0.089  -0.624  1.00  0.00     0.016 C
HETATM   27  C11 UNL     1     -12.861  -1.157  -0.436  1.00  0.00     0.007 C
HETATM   28  C12 UNL     1     -14.192  -0.752   0.173  1.00  0.00     0.000 C
HETATM   29  C13 UNL     1     -14.134   0.593   0.828  1.00  0.00     0.000 C
HETATM   30  C14 UNL     1     -12.851   0.825   1.570  1.00  0.00     0.000 C
HETATM   31  C15 UNL     1     -11.621   0.577   0.749  1.00  0.00     0.007 C
ENDBRANCH  21  26
ENDBRANCH  20  21
ENDBRANCH  18  20
ENDBRANCH  11  17
ENDBRANCH   1   6
BRANCH   1  32
HETATM   32  N6  UNL     1      -4.967  -1.558  -3.424  1.00  0.00    -0.316 N
HETATM   33  C19 UNL     1      -3.595  -1.824  -3.577  1.00  0.00     0.187 C
HETATM   34  N7  UNL     1      -2.658  -1.147  -3.035  1.00  0.00    -0.373 N
HETATM   35  N8  UNL     1      -3.225  -2.938  -4.404  1.00  0.00    -0.064 NA
ATOM     36  H72 UNL     1      -2.921  -0.356  -2.447  1.00  0.00     0.158 HD
ATOM     37  H71 UNL     1      -1.663  -1.340  -3.146  1.00  0.00     0.158 HD
ATOM     38  H6  UNL     1      -5.526  -1.387  -4.260  1.00  0.00     0.170 HD
ENDBRANCH   1  32
TORSDOF 10
ENDMDL