MODEL 2
REMARK VINA RESULT: -7.651678801      0.566      1.094
REMARK  9 active torsions:
REMARK  status: ('A' for Active; 'I' for Inactive)
REMARK    1  A    between atoms: C2_2  and  C4_4
REMARK    2  A    between atoms: C4_4  and  C5_5
REMARK    3  A    between atoms: C5_5  and  O1_6
REMARK    4  A    between atoms: O1_6  and  C6_7
REMARK    5  A    between atoms: C8_9  and  O2_10
REMARK    6  A    between atoms: O2_10  and  C9_11
REMARK    7  A    between atoms: C11_17  and  N3_18
REMARK       I    between atoms: N3_18  and  C12_20
REMARK    8  A    between atoms: C13_25  and  O3_26
REMARK    9  A    between atoms: O3_26  and  C14_27
ROOT
HETATM    1  C6  UNL     1      -4.805  -1.797  -2.239  1.00  0.00     0.107 A
HETATM    2  C7  UNL     1      -3.997  -0.771  -2.678  1.00  0.00     0.077 A
HETATM    3  C8  UNL     1      -4.449   0.538  -2.831  1.00  0.00     0.084 A
HETATM    4  C10 UNL     1      -5.762   0.746  -2.514  1.00  0.00     0.070 A
HETATM    5  C11 UNL     1      -6.610  -0.281  -2.062  1.00  0.00     0.073 A
HETATM    6  C13 UNL     1      -6.145  -1.560  -1.920  1.00  0.00     0.129 A
ENDROOT
BRANCH   6   7
HETATM    7  O3  UNL     1      -6.974  -2.573  -1.480  1.00  0.00    -0.341 OA
BRANCH   7   8
HETATM    8  C14 UNL     1      -7.954  -3.243  -2.202  1.00  0.00     0.132 C
HETATM    9  C15 UNL     1      -7.260  -4.212  -3.167  1.00  0.00     0.060 C
HETATM   10  C16 UNL     1      -8.233  -4.676  -4.233  1.00  0.00     0.235 C
HETATM   11  N6  UNL     1      -9.537  -4.901  -3.632  1.00  0.00    -0.075 N
HETATM   12  C17 UNL     1      -9.434  -5.260  -2.232  1.00  0.00     0.235 C
ATOM     13  H62 UNL     1     -10.149  -4.096  -3.764  1.00  0.00     0.277 HD
ATOM     14  H61 UNL     1     -10.070  -5.597  -4.154  1.00  0.00     0.277 HD
HETATM   15  C18 UNL     1      -8.889  -4.120  -1.389  1.00  0.00     0.060 C
ENDBRANCH   7   8
ENDBRANCH   6   7
BRANCH   1  16
HETATM   16  O1  UNL     1      -4.259  -3.062  -2.120  1.00  0.00    -0.348 OA
BRANCH  16  17
HETATM   17  C5  UNL     1      -4.293  -3.771  -0.918  1.00  0.00     0.176 C
BRANCH  17  18
HETATM   18  C4  UNL     1      -3.438  -3.081   0.122  1.00  0.00     0.030 C
BRANCH  18  19
HETATM   19  C2  UNL     1      -2.303  -3.992   0.575  1.00  0.00    -0.021 C
HETATM   20  C1  UNL     1      -1.292  -3.074   1.269  1.00  0.00     0.009 C
HETATM   21  C3  UNL     1      -2.780  -5.030   1.538  1.00  0.00     0.009 C
ENDBRANCH  18  19
ENDBRANCH  17  18
ENDBRANCH  16  17
ENDBRANCH   1  16
BRANCH   5  22
HETATM   22  N3  UNL     1      -7.930   0.068  -1.709  1.00  0.00    -0.328 N
HETATM   23  C12 UNL     1      -8.258   0.253  -0.337  1.00  0.00     0.186 C
HETATM   24  N4  UNL     1      -8.789  -0.730   0.309  1.00  0.00    -0.373 N
HETATM   25  N5  UNL     1      -8.034   1.462   0.370  1.00  0.00    -0.064 NA
ATOM     26  H42 UNL     1      -8.951  -1.599  -0.200  1.00  0.00     0.158 HD
ATOM     27  H41 UNL     1      -9.025  -0.597   1.292  1.00  0.00     0.158 HD
ATOM     28  H3  UNL     1      -8.643   0.186  -2.429  1.00  0.00     0.168 HD
ENDBRANCH   5  22
BRANCH   3  29
HETATM   29  O2  UNL     1      -3.592   1.513  -3.276  1.00  0.00    -0.282 OA
BRANCH  29  30
HETATM   30  C9  UNL     1      -3.978   2.764  -3.681  1.00  0.00     0.230 C
HETATM   31  N1  UNL     1      -3.154   3.718  -3.304  1.00  0.00    -0.368 N
ATOM     32  H12 UNL     1      -2.321   3.495  -2.761  1.00  0.00     0.159 HD
ATOM     33  H11 UNL     1      -3.442   4.649  -3.606  1.00  0.00     0.159 HD
HETATM   34  N2  UNL     1      -5.140   3.075  -4.439  1.00  0.00    -0.056 NA
ENDBRANCH  29  30
ENDBRANCH   3  29
TORSDOF 9
ENDMDL