MODEL 5
REMARK VINA RESULT: -6.310813954      2.283      3.579
REMARK  13 active torsions:
REMARK  status: ('A' for Active; 'I' for Inactive)
REMARK    1  A    between atoms: C2_4  and  C3_5
REMARK    2  A    between atoms: C3_5  and  C4_6
REMARK    3  A    between atoms: C4_6  and  N2_7
REMARK    4  A    between atoms: C4_6  and  C17_32
REMARK    5  A    between atoms: N2_7  and  C5_9
REMARK    6  A    between atoms: C5_9  and  O1_10
REMARK    7  A    between atoms: C5_9  and  N3_12
REMARK    8  A    between atoms: N3_12  and  C6_14
REMARK    9  A    between atoms: C10_20  and  N5_21
REMARK   10  A    between atoms: N5_21  and  C11_23
REMARK   11  A    between atoms: C11_23  and  O2_24
REMARK   12  A    between atoms: C11_23  and  C12_26
REMARK   13  A    between atoms: C12_26  and  C13_28
ROOT
HETATM    1  C6  UNL     1      -9.461  -1.064  -0.461  1.00  0.00     0.061 A
HETATM    2  C7  UNL     1      -9.775  -1.832  -1.552  1.00  0.00     0.048 A
HETATM    3  C8  UNL     1     -11.050  -1.715  -2.081  1.00  0.00     0.090 A
HETATM    4  N4  UNL     1     -11.961  -0.883  -1.558  1.00  0.00    -0.373 N
ATOM      5  H4  UNL     1     -12.891  -0.820  -1.972  1.00  0.00     0.164 HD
HETATM    6  C9  UNL     1     -11.644  -0.118  -0.471  1.00  0.00     0.119 A
HETATM    7  C10 UNL     1     -10.398  -0.183   0.106  1.00  0.00     0.076 A
ENDROOT
BRANCH   1   8
HETATM    8  N3  UNL     1      -8.319  -1.095   0.103  1.00  0.00    -0.346 N
ATOM      9  H3  UNL     1      -8.193  -1.686   0.925  1.00  0.00     0.164 HD
BRANCH   8  10
HETATM   10  C5  UNL     1      -7.204  -0.329  -0.377  1.00  0.00     0.322 C
BRANCH  10  11
HETATM   11  N2  UNL     1      -6.021  -1.123  -0.520  1.00  0.00    -0.376 N
ATOM     12  H2  UNL     1      -5.429  -1.363   0.275  1.00  0.00     0.157 HD
BRANCH  11  13
HETATM   13  C4  UNL     1      -5.723  -1.561  -1.850  1.00  0.00     0.088 C
BRANCH  13  14
HETATM   14  C3  UNL     1      -6.084  -2.994  -2.109  1.00  0.00     0.069 C
BRANCH  14  15
HETATM   15  C2  UNL     1      -5.705  -3.945  -1.067  1.00  0.00     0.057 C
HETATM   16  N1  UNL     1      -6.539  -4.821  -0.672  1.00  0.00    -0.406 N
HETATM   17  C1  UNL     1      -7.832  -4.879  -1.239  1.00  0.00     0.145 C
ATOM     18  H1  UNL     1      -6.273  -5.484   0.056  1.00  0.00     0.158 HD
ENDBRANCH  14  15
ENDBRANCH  13  14
BRANCH  13  19
HETATM   19  C17 UNL     1      -4.343  -1.168  -2.257  1.00  0.00     0.000 C
HETATM   20  C18 UNL     1      -3.727  -2.027  -3.325  1.00  0.00     0.011 C
HETATM   21  C19 UNL     1      -4.259   0.306  -2.651  1.00  0.00     0.011 C
ENDBRANCH  13  19
ENDBRANCH  11  13
ENDBRANCH  10  11
BRANCH  10  22
HETATM   22  O1  UNL     1      -7.004   0.869   0.318  1.00  0.00    -0.360 OA
ATOM     23  H1  UNL     1      -6.972   0.768   1.263  1.00  0.00     0.214 HD
ENDBRANCH  10  22
ENDBRANCH   8  10
ENDBRANCH   1   8
BRANCH   7  24
HETATM   24  N5  UNL     1     -10.038   0.585   1.238  1.00  0.00    -0.331 N
ATOM     25  H5  UNL     1      -9.635   0.084   2.029  1.00  0.00     0.168 HD
BRANCH  24  26
HETATM   26  C11 UNL     1     -10.186   1.995   1.375  1.00  0.00     0.188 C
BRANCH  26  27
HETATM   27  O2  UNL     1      -9.034   2.731   1.456  1.00  0.00    -0.343 OA
ATOM     28  H2  UNL     1      -8.449   2.695   0.708  1.00  0.00     0.219 HD
ENDBRANCH  26  27
BRANCH  26  29
HETATM   29  C12 UNL     1     -11.226   2.448   2.320  1.00  0.00     0.207 C
HETATM   30  O3  UNL     1     -10.819   2.527   3.493  1.00  0.00    -0.288 OA
BRANCH  29  31
HETATM   31  C13 UNL     1     -12.614   2.795   2.051  1.00  0.00     0.018 C
HETATM   32  C14 UNL     1     -13.078   3.993   2.898  1.00  0.00     0.023 C
HETATM   33  C15 UNL     1     -13.613   1.690   2.137  1.00  0.00     0.023 C
HETATM   34  C16 UNL     1     -12.716   3.316   0.601  1.00  0.00     0.023 C
ENDBRANCH  29  31
ENDBRANCH  26  29
ENDBRANCH  24  26
ENDBRANCH   7  24
TORSDOF 13
ENDMDL