MODEL 4
REMARK VINA RESULT: -6.538930419      2.501      7.727
REMARK  10 active torsions:
REMARK  status: ('A' for Active; 'I' for Inactive)
REMARK    1  A    between atoms: C2_2  and  C3_3
REMARK    2  A    between atoms: C3_3  and  N1_4
REMARK    3  A    between atoms: C4_5  and  N2_6
REMARK    4  A    between atoms: C7_13  and  O1_14
REMARK    5  A    between atoms: O1_14  and  C8_15
REMARK    6  A    between atoms: C8_15  and  C9_16
REMARK    7  A    between atoms: C9_16  and  O2_17
REMARK    8  A    between atoms: C9_16  and  C10_19
REMARK    9  A    between atoms: N4_20  and  C11_22
REMARK   10  A    between atoms: C19_32  and  N6_33
ROOT
HETATM    1  N1  UNL     1      -5.169  -2.483  -0.766  1.00  0.00    -0.167 N
HETATM    2  C4  UNL     1      -4.994  -1.441  -1.583  1.00  0.00     0.680 A
HETATM    3  N3  UNL     1      -5.837  -0.373  -1.558  1.00  0.00    -0.189 N
ATOM      4  H3  UNL     1      -5.683   0.411  -2.191  1.00  0.00     0.184 HD
HETATM    5  C5  UNL     1      -6.865  -0.348  -0.707  1.00  0.00     0.084 A
HETATM    6  C6  UNL     1      -7.888   0.555  -0.405  1.00  0.00     0.088 A
HETATM    7  C7  UNL     1      -8.675   0.066   0.584  1.00  0.00     0.145 A
HETATM    8  N5  UNL     1      -8.151  -1.148   0.907  1.00  0.00    -0.332 N
ATOM      9  H5  UNL     1      -8.520  -1.774   1.623  1.00  0.00     0.168 HD
HETATM   10  C18 UNL     1      -7.081  -1.397   0.146  1.00  0.00     0.106 A
HETATM   11  C19 UNL     1      -6.195  -2.468   0.087  1.00  0.00     0.146 A
ENDROOT
BRANCH   7  12
HETATM   12  O1  UNL     1      -9.774   0.551   1.227  1.00  0.00    -0.333 OA
BRANCH  12  13
HETATM   13  C8  UNL     1     -10.056   1.790   1.743  1.00  0.00     0.214 C
BRANCH  13  14
HETATM   14  C9  UNL     1     -10.835   2.716   0.810  1.00  0.00     0.180 C
BRANCH  14  15
HETATM   15  O2  UNL     1     -10.098   3.830   0.624  1.00  0.00    -0.388 OA
ATOM     16  H2  UNL     1     -10.160   4.071  -0.293  1.00  0.00     0.210 HD
ENDBRANCH  14  15
BRANCH  14  17
HETATM   17  C10 UNL     1     -12.242   2.810   1.245  1.00  0.00     0.094 C
HETATM   18  N4  UNL     1     -13.330   2.577   0.455  1.00  0.00    -0.374 N
ATOM     19  H4  UNL     1     -13.871   3.391   0.165  1.00  0.00     0.164 HD
BRANCH  18  20
HETATM   20  C11 UNL     1     -13.774   1.330   0.003  1.00  0.00    -0.014 C
HETATM   21  C12 UNL     1     -13.203   0.095   0.541  1.00  0.00     0.052 C
HETATM   22  C13 UNL     1     -13.156  -1.065  -0.443  1.00  0.00     0.006 C
HETATM   23  C14 UNL     1     -11.958  -0.973  -1.357  1.00  0.00     0.000 C
HETATM   24  C15 UNL     1     -11.628   0.465  -1.700  1.00  0.00     0.000 C
HETATM   25  C16 UNL     1     -12.835   1.068  -2.352  1.00  0.00     0.006 C
HETATM   26  C17 UNL     1     -14.003   1.304  -1.506  1.00  0.00     0.052 C
ENDBRANCH  18  20
ENDBRANCH  14  17
ENDBRANCH  13  14
ENDBRANCH  12  13
ENDBRANCH   7  12
BRANCH  11  27
HETATM   27  N6  UNL     1      -6.355  -3.480   0.859  1.00  0.00    -0.383 N
ATOM     28  H62 UNL     1      -5.860  -4.352   0.670  1.00  0.00     0.157 HD
ATOM     29  H61 UNL     1      -6.981  -3.382   1.659  1.00  0.00     0.157 HD
ENDBRANCH  11  27
BRANCH   2  30
HETATM   30  N2  UNL     1      -4.010  -1.454  -2.384  1.00  0.00    -0.234 N
ATOM     31  H22 UNL     1      -3.358  -0.671  -2.405  1.00  0.00     0.174 HD
ATOM     32  H21 UNL     1      -3.884  -2.265  -2.990  1.00  0.00     0.174 HD
ENDBRANCH   2  30
BRANCH   1  33
HETATM   33  C3  UNL     1      -4.260  -3.593  -0.794  1.00  0.00     0.149 C
BRANCH  33  34
HETATM   34  C2  UNL     1      -3.202  -3.301   0.259  1.00  0.00     0.016 C
HETATM   35  C1  UNL     1      -2.762  -4.502   1.026  1.00  0.00     0.006 C
ENDBRANCH  33  34
ENDBRANCH   1  33
TORSDOF 10
ENDMDL