MODEL 5
REMARK VINA RESULT: -6.498755328      1.504      2.332
REMARK  12 active torsions:
REMARK  status: ('A' for Active; 'I' for Inactive)
REMARK    1  A    between atoms: C2_2  and  C3_3
REMARK    2  A    between atoms: C3_3  and  C4_4
REMARK    3  A    between atoms: C4_4  and  N1_5
REMARK    4  A    between atoms: N1_5  and  C5_8
REMARK    5  A    between atoms: C5_8  and  C7_10
REMARK    6  A    between atoms: C7_10  and  C8_11
REMARK    7  A    between atoms: C7_10  and  N2_18
REMARK    8  A    between atoms: C9_12  and  C10_13
REMARK    9  A    between atoms: N2_18  and  C15_20
REMARK   10  A    between atoms: C15_20  and  O1_21
REMARK   11  A    between atoms: C15_20  and  C16_23
REMARK   12  A    between atoms: C18_29  and  O3_30
ROOT
HETATM    1  C7  UNL     1      -7.519  -2.249  -0.802  1.00  0.00     0.189 C
ENDROOT
BRANCH   1   2
HETATM    2  C5  UNL     1      -7.666  -3.501  -0.005  1.00  0.00     0.216 C
HETATM    3  C6  UNL     1      -8.532  -4.561  -0.577  1.00  0.00     0.043 C
BRANCH   2   4
HETATM    4  N1  UNL     1      -6.342  -4.089   0.242  1.00  0.00    -0.068 N
ATOM      5  H12 UNL     1      -5.948  -4.514  -0.598  1.00  0.00     0.277 HD
ATOM      6  H11 UNL     1      -6.398  -4.928   0.820  1.00  0.00     0.277 HD
BRANCH   4   7
HETATM    7  C4  UNL     1      -5.449  -3.083   0.819  1.00  0.00     0.233 C
BRANCH   7   8
HETATM    8  C3  UNL     1      -4.091  -3.303   0.175  1.00  0.00     0.027 C
BRANCH   8   9
HETATM    9  C2  UNL     1      -3.222  -4.207   0.981  1.00  0.00    -0.003 C
HETATM   10  C1  UNL     1      -1.815  -3.729   1.179  1.00  0.00     0.005 C
ENDBRANCH   8   9
ENDBRANCH   7   8
ENDBRANCH   4   7
ENDBRANCH   2   4
ENDBRANCH   1   2
BRANCH   1  11
HETATM   11  C8  UNL     1      -8.513  -1.249  -0.333  1.00  0.00    -0.079 C
HETATM   12  C9  UNL     1      -9.328  -0.443   0.031  1.00  0.00    -0.100 C
BRANCH  12  13
HETATM   13  C10 UNL     1     -10.331   0.552   0.452  1.00  0.00     0.065 C
HETATM   14  C11 UNL     1      -9.559   1.807   0.787  1.00  0.00     0.017 C
HETATM   15  C12 UNL     1     -10.588   2.908   0.637  1.00  0.00     0.001 C
HETATM   16  C13 UNL     1     -11.720   2.326  -0.189  1.00  0.00     0.001 C
HETATM   17  C14 UNL     1     -11.175   1.016  -0.712  1.00  0.00     0.017 C
ENDBRANCH  12  13
ENDBRANCH   1  11
BRANCH   1  18
HETATM   18  N2  UNL     1      -7.448  -2.356  -2.193  1.00  0.00    -0.376 N
ATOM     19  H2  UNL     1      -8.254  -2.070  -2.748  1.00  0.00     0.157 HD
BRANCH  18  20
HETATM   20  C15 UNL     1      -6.314  -2.838  -2.853  1.00  0.00     0.260 C
BRANCH  20  21
HETATM   21  O1  UNL     1      -6.483  -3.185  -4.184  1.00  0.00    -0.372 OA
ATOM     22  H1  UNL     1      -7.274  -3.667  -4.394  1.00  0.00     0.212 HD
ENDBRANCH  20  21
BRANCH  20  23
HETATM   23  C16 UNL     1      -5.347  -1.671  -2.898  1.00  0.00     0.086 A
HETATM   24  S1  UNL     1      -5.629  -0.050  -2.451  1.00  0.00    -0.025 SA
HETATM   25  C17 UNL     1      -4.085   0.576  -2.792  1.00  0.00     0.290 A
HETATM   26  O2  UNL     1      -3.642   1.775  -2.665  1.00  0.00    -0.260 OA
HETATM   27  N3  UNL     1      -3.415  -0.489  -3.237  1.00  0.00    -0.297 N
HETATM   28  C18 UNL     1      -4.039  -1.640  -3.297  1.00  0.00     0.161 A
ATOM     29  H3  UNL     1      -2.439  -0.409  -3.524  1.00  0.00     0.171 HD
BRANCH  28  30
HETATM   30  O3  UNL     1      -3.428  -2.845  -3.755  1.00  0.00    -0.345 OA
ATOM     31  H3  UNL     1      -2.558  -2.805  -4.134  1.00  0.00     0.219 HD
ENDBRANCH  28  30
ENDBRANCH  20  23
ENDBRANCH  18  20
ENDBRANCH   1  18
TORSDOF 12
ENDMDL