MODEL 2
REMARK VINA RESULT: -6.812472783      3.094      5.309
REMARK  11 active torsions:
REMARK  status: ('A' for Active; 'I' for Inactive)
REMARK    1  A    between atoms: C2_2  and  C3_3
REMARK    2  A    between atoms: C3_3  and  O1_4
REMARK    3  A    between atoms: O1_4  and  C4_5
REMARK    4  A    between atoms: C7_8  and  C8_9
REMARK    5  A    between atoms: C9_14  and  O2_15
REMARK    6  A    between atoms: O2_15  and  C10_16
REMARK    7  A    between atoms: C10_16  and  C11_17
REMARK    8  A    between atoms: C11_17  and  O3_18
REMARK    9  A    between atoms: C11_17  and  N3_20
REMARK   10  A    between atoms: N3_20  and  C12_22
REMARK   11  A    between atoms: C19_29  and  N4_30
ROOT
HETATM    1  C10 UNL     1      -7.732  -1.044   0.580  1.00  0.00     0.229 C
ENDROOT
BRANCH   1   2
HETATM    2  O2  UNL     1      -6.635  -1.447  -0.020  1.00  0.00    -0.346 OA
BRANCH   2   3
HETATM    3  C9  UNL     1      -5.684  -1.282  -0.884  1.00  0.00     0.085 A
HETATM    4  C7  UNL     1      -4.728  -2.324  -1.049  1.00  0.00     0.038 A
HETATM    5  C6  UNL     1      -3.689  -2.234  -1.935  1.00  0.00     0.020 A
HETATM    6  C5  UNL     1      -3.534  -1.118  -2.705  1.00  0.00     0.038 A
HETATM    7  C4  UNL     1      -4.421  -0.079  -2.594  1.00  0.00     0.071 A
HETATM    8  C20 UNL     1      -5.465  -0.174  -1.699  1.00  0.00     0.074 A
BRANCH   4   9
HETATM    9  C8  UNL     1      -4.883  -3.529  -0.234  1.00  0.00     0.123 C
HETATM   10  N1  UNL     1      -5.686  -4.447  -0.693  1.00  0.00    -0.387 N
ATOM     11  H12 UNL     1      -6.172  -4.316  -1.580  1.00  0.00     0.157 HD
ATOM     12  H11 UNL     1      -5.794  -5.288  -0.124  1.00  0.00     0.157 HD
HETATM   13  N2  UNL     1      -4.206  -3.711   1.001  1.00  0.00    -0.082 NA
ENDBRANCH   4   9
BRANCH   7  14
HETATM   14  O1  UNL     1      -4.262   1.047  -3.372  1.00  0.00    -0.347 OA
BRANCH  14  15
HETATM   15  C3  UNL     1      -3.178   1.906  -3.152  1.00  0.00     0.202 C
BRANCH  15  16
HETATM   16  C2  UNL     1      -3.371   3.207  -3.816  1.00  0.00    -0.011 C
HETATM   17  C1  UNL     1      -4.579   3.605  -4.149  1.00  0.00     0.009 C
ENDBRANCH  15  16
ENDBRANCH  14  15
ENDBRANCH   7  14
ENDBRANCH   2   3
ENDBRANCH   1   2
BRANCH   1  18
HETATM   18  C11 UNL     1      -8.428   0.236   0.093  1.00  0.00     0.238 C
BRANCH  18  19
HETATM   19  O3  UNL     1      -7.908   1.386   0.625  1.00  0.00    -0.375 OA
ATOM     20  H3  UNL     1      -8.399   2.168   0.403  1.00  0.00     0.212 HD
ENDBRANCH  18  19
BRANCH  18  21
HETATM   21  N3  UNL     1      -9.829   0.156   0.278  1.00  0.00    -0.389 N
ATOM     22  H3  UNL     1     -10.199  -0.248   1.137  1.00  0.00     0.156 HD
BRANCH  21  23
HETATM   23  C12 UNL     1     -10.715   0.623  -0.703  1.00  0.00     0.110 C
HETATM   24  C13 UNL     1     -11.418  -0.379  -1.541  1.00  0.00     0.031 C
HETATM   25  C14 UNL     1     -12.896  -0.124  -1.747  1.00  0.00    -0.016 C
HETATM   26  C15 UNL     1     -13.711  -0.859  -0.673  1.00  0.00     0.010 C
HETATM   27  C16 UNL     1     -13.284   1.303  -1.864  1.00  0.00     0.010 C
HETATM   28  C17 UNL     1     -12.413   2.269  -1.160  1.00  0.00     0.014 C
HETATM   29  C18 UNL     1     -13.133   3.474  -0.599  1.00  0.00     0.012 C
HETATM   30  C19 UNL     1     -11.695   1.590  -0.015  1.00  0.00     0.209 C
BRANCH  30  31
HETATM   31  N4  UNL     1     -10.904   2.508   0.748  1.00  0.00    -0.073 N
ATOM     32  H43 UNL     1     -10.342   3.133   0.169  1.00  0.00     0.274 HD
ATOM     33  H42 UNL     1     -11.459   3.227   1.212  1.00  0.00     0.274 HD
ATOM     34  H41 UNL     1     -10.346   1.952   1.395  1.00  0.00     0.274 HD
ENDBRANCH  30  31
ENDBRANCH  21  23
ENDBRANCH  18  21
ENDBRANCH   1  18
TORSDOF 11
ENDMDL