MODEL 2
REMARK VINA RESULT: -3.675483070      4.049      4.935
REMARK  2 active torsions:
REMARK  status: ('A' for Active; 'I' for Inactive)
REMARK    1  A    between atoms: C2_2  and  O1_3
REMARK    2  A    between atoms: C4_8  and  O3_9
ROOT
HETATM    1  C1  UNL     1      -3.866   9.995   4.261  1.00  0.00     0.063 C
HETATM    2  C2  UNL     1      -3.774  11.472   4.463  1.00  0.00     0.153 C
HETATM    3  S1  UNL     1      -2.190  11.950   5.255  1.00  0.00    -0.101 SA
HETATM    4  C3  UNL     1      -3.040  12.825   6.638  1.00  0.00     0.248 C
HETATM    5  O2  UNL     1      -4.167  12.007   6.709  1.00  0.00    -0.348 OA
HETATM    6  C4  UNL     1      -4.762  12.012   5.464  1.00  0.00     0.302 C
ENDROOT
BRANCH   2   7
HETATM    7  O1  UNL     1      -3.807  12.151   3.260  1.00  0.00    -0.374 OA
ATOM      8  H1  UNL     1      -3.128  12.814   3.216  1.00  0.00     0.211 HD
ENDBRANCH   2   7
BRANCH   6   9
HETATM    9  O3  UNL     1      -5.252  13.260   5.117  1.00  0.00    -0.367 OA
ATOM     10  H3  UNL     1      -6.000  13.522   5.640  1.00  0.00     0.212 HD
ENDBRANCH   6   9
TORSDOF 2
ENDMDL