MODEL 3
REMARK VINA RESULT: -3.493722838      1.413      1.637
REMARK  2 active torsions:
REMARK  status: ('A' for Active; 'I' for Inactive)
REMARK    1  A    between atoms: C3_4  and  O2_5
REMARK    2  A    between atoms: C3_4  and  O3_7
ROOT
HETATM    1  C1  UNL     1      -3.931  11.810   3.981  1.00  0.00     0.051 C
HETATM    2  C2  UNL     1      -2.508  11.600   4.444  1.00  0.00     0.185 C
HETATM    3  O1  UNL     1      -2.334  12.348   5.606  1.00  0.00    -0.317 OA
HETATM    4  C3  UNL     1      -1.225  11.899   6.262  1.00  0.00     0.287 C
HETATM    5  C4  UNL     1      -1.500  10.451   6.702  1.00  0.00     0.178 C
HETATM    6  S1  UNL     1      -2.310   9.906   5.138  1.00  0.00    -0.130 SA
ENDROOT
BRANCH   4   7
HETATM    7  O2  UNL     1      -1.056  12.673   7.403  1.00  0.00    -0.343 OA
ATOM      8  H2  UNL     1      -0.131  12.677   7.622  1.00  0.00     0.215 HD
ENDBRANCH   4   7
BRANCH   4   9
HETATM    9  O3  UNL     1      -0.095  11.934   5.456  1.00  0.00    -0.343 OA
ATOM     10  H3  UNL     1       0.638  11.478   5.852  1.00  0.00     0.215 HD
ENDBRANCH   4   9
TORSDOF 2
ENDMDL