MODEL 2
REMARK VINA RESULT: -4.008190047      1.585      2.736
REMARK  3 active torsions:
REMARK  status: ('A' for Active; 'I' for Inactive)
REMARK    1  A    between atoms: C2_2  and  N2_6
REMARK    2  A    between atoms: N2_6  and  O1_7
REMARK    3  A    between atoms: N3_9  and  O2_11
ROOT
HETATM    1  C1  UNL     1      -3.578  10.754   5.983  1.00  0.00     0.059 C
HETATM    2  C2  UNL     1      -3.055  12.119   5.543  1.00  0.00     0.159 C
HETATM    3  C3  UNL     1      -3.145  12.168   4.020  1.00  0.00     0.059 C
HETATM    4  C4  UNL     1      -3.958  13.110   6.134  1.00  0.00     0.094 C
HETATM    5  N1  UNL     1      -4.669  13.904   6.591  1.00  0.00    -0.194 NA
ENDROOT
BRANCH   2   6
HETATM    6  N2  UNL     1      -1.704  12.332   5.982  1.00  0.00    -0.158 N
HETATM    7  N3  UNL     1      -0.733  11.772   5.407  1.00  0.00    -0.187 N
ATOM      8  H3  UNL     1      -0.947  11.164   4.617  1.00  0.00     0.218 HD
BRANCH   6   9
HETATM    9  O1  UNL     1      -1.451  13.156   7.046  1.00  0.00    -0.269 OA
ATOM     10  H1  UNL     1      -1.629  14.086   6.980  1.00  0.00     0.246 HD
ENDBRANCH   6   9
BRANCH   7  11
HETATM   11  O2  UNL     1       0.566  11.908   5.745  1.00  0.00    -0.273 OA
ATOM     12  H2  UNL     1       1.307  11.633   5.218  1.00  0.00     0.246 HD
ENDBRANCH   7  11
ENDBRANCH   2   6
TORSDOF 3
ENDMDL