MODEL 2
REMARK VINA RESULT: -3.913686585      1.252      1.491
REMARK  2 active torsions:
REMARK  status: ('A' for Active; 'I' for Inactive)
REMARK    1  A    between atoms: C5_7  and  O2_8
REMARK    2  A    between atoms: C5_7  and  O3_10
ROOT
HETATM    1  C1  UNL     1      -3.575   8.949   4.980  1.00  0.00     0.150 C
HETATM    2  N1  UNL     1      -4.329  10.173   4.721  1.00  0.00    -0.138 NA
HETATM    3  O1  UNL     1      -4.539  10.840   5.890  1.00  0.00    -0.281 OA
HETATM    4  C2  UNL     1      -3.750  11.951   5.590  1.00  0.00     0.149 A
HETATM    5  C3  UNL     1      -2.558  12.115   6.472  1.00  0.00     0.055 C
HETATM    6  C4  UNL     1      -4.643  13.186   5.544  1.00  0.00     0.055 C
HETATM    7  C5  UNL     1      -3.526  11.285   4.267  1.00  0.00     0.280 A
ENDROOT
BRANCH   7   8
HETATM    8  O2  UNL     1      -4.097  12.018   3.242  1.00  0.00    -0.349 OA
ATOM      9  H2  UNL     1      -3.986  12.958   3.324  1.00  0.00     0.214 HD
ENDBRANCH   7   8
BRANCH   7  10
HETATM   10  O3  UNL     1      -2.214  10.900   3.995  1.00  0.00    -0.349 OA
ATOM     11  H3  UNL     1      -2.065  10.784   3.063  1.00  0.00     0.214 HD
ENDBRANCH   7  10
TORSDOF 2
ENDMDL