MODEL 3
REMARK VINA RESULT: -3.660090815      4.821      5.063
REMARK  2 active torsions:
REMARK  status: ('A' for Active; 'I' for Inactive)
REMARK    1  A    between atoms: C2_2  and  O1_3
REMARK    2  A    between atoms: C5_8  and  O2_9
ROOT
HETATM    1  C1  UNL     1      -4.023  12.274   7.796  1.00  0.00     0.061 C
HETATM    2  C2  UNL     1      -4.554  11.882   6.453  1.00  0.00     0.128 C
HETATM    3  S1  UNL     1      -3.872  10.303   5.872  1.00  0.00    -0.129 SA
HETATM    4  C3  UNL     1      -4.000  10.759   4.093  1.00  0.00     0.079 C
HETATM    5  C4  UNL     1      -3.705  12.206   4.179  1.00  0.00     0.046 C
HETATM    6  C5  UNL     1      -4.283  12.825   5.360  1.00  0.00     0.163 C
ENDROOT
BRANCH   2   7
HETATM    7  O1  UNL     1      -5.952  11.689   6.534  1.00  0.00    -0.377 OA
ATOM      8  H1  UNL     1      -6.138  10.932   7.077  1.00  0.00     0.211 HD
ENDBRANCH   2   7
BRANCH   6   9
HETATM    9  O2  UNL     1      -5.440  13.529   5.008  1.00  0.00    -0.392 OA
ATOM     10  H2  UNL     1      -5.222  14.337   4.559  1.00  0.00     0.210 HD
ENDBRANCH   6   9
TORSDOF 2
ENDMDL