MODEL 3
REMARK VINA RESULT: -3.289360804      1.610      2.152
REMARK  2 active torsions:
REMARK  status: ('A' for Active; 'I' for Inactive)
REMARK    1  A    between atoms: O1_1  and  C1_3
REMARK    2  A    between atoms: C4_7  and  O2_8
ROOT
HETATM    1  C1  UNL     1      -4.470  12.426   4.984  1.00  0.00     0.157 C
HETATM    2  C2  UNL     1      -3.171  12.476   5.787  1.00  0.00     0.045 C
HETATM    3  C3  UNL     1      -3.199  11.188   6.622  1.00  0.00     0.079 C
HETATM    4  S1  UNL     1      -3.668  10.005   5.291  1.00  0.00    -0.135 SA
HETATM    5  C4  UNL     1      -4.165  11.254   4.036  1.00  0.00     0.208 C
ENDROOT
BRANCH   1   6
HETATM    6  O1  UNL     1      -5.564  12.150   5.760  1.00  0.00    -0.392 OA
ATOM      7  H1  UNL     1      -5.333  11.891   6.644  1.00  0.00     0.210 HD
ENDBRANCH   1   6
BRANCH   5   8
HETATM    8  O2  UNL     1      -3.081  11.636   3.279  1.00  0.00    -0.383 OA
ATOM      9  H2  UNL     1      -3.357  12.392   2.774  1.00  0.00     0.211 HD
ENDBRANCH   5   8
TORSDOF 2
ENDMDL