MODEL 4
REMARK VINA RESULT: -3.320141793      2.983      3.311
REMARK  2 active torsions:
REMARK  status: ('A' for Active; 'I' for Inactive)
REMARK    1  A    between atoms: C2_2  and  O1_3
REMARK    2  A    between atoms: N1_7  and  O2_8
ROOT
HETATM    1  C1  UNL     1      -3.747  13.487   6.904  1.00  0.00     0.068 C
HETATM    2  C2  UNL     1      -4.546  13.054   5.700  1.00  0.00     0.153 C
HETATM    3  C3  UNL     1      -3.708  12.329   4.641  1.00  0.00     0.151 C
HETATM    4  S1  UNL     1      -4.016  10.734   5.481  1.00  0.00    -0.047 SA
HETATM    5  N1  UNL     1      -5.304  11.849   5.837  1.00  0.00    -0.102 NA
ENDROOT
BRANCH   2   6
HETATM    6  O1  UNL     1      -5.353  14.066   5.160  1.00  0.00    -0.372 OA
ATOM      7  H1  UNL     1      -4.956  14.929   5.188  1.00  0.00     0.212 HD
ENDBRANCH   2   6
BRANCH   5   8
HETATM    8  O2  UNL     1      -5.994  11.669   6.948  1.00  0.00    -0.299 OA
ATOM      9  H2  UNL     1      -5.565  11.848   7.777  1.00  0.00     0.238 HD
ENDBRANCH   5   8
TORSDOF 2
ENDMDL