MODEL 2
REMARK VINA RESULT: -4.208232517      2.153      2.684
REMARK  2 active torsions:
REMARK  status: ('A' for Active; 'I' for Inactive)
REMARK       I    between atoms: C2_2  and  N1_4
REMARK       I    between atoms: N1_4  and  C3_6
REMARK       I    between atoms: C3_6  and  N2_7
REMARK    1  A    between atoms: N2_7  and  O2_9
REMARK    2  A    between atoms: N3_11  and  O3_13
ROOT
HETATM    1  C1  UNL     1      -3.378  12.015   3.986  1.00  0.00     0.118 C
HETATM    2  C2  UNL     1      -2.166  11.684   4.777  1.00  0.00     0.232 C
HETATM    3  O1  UNL     1      -1.645  12.501   5.572  1.00  0.00    -0.273 OA
HETATM    4  N1  UNL     1      -1.573  10.406   4.636  1.00  0.00    -0.157 N
ATOM      5  H1  UNL     1      -1.989   9.734   3.992  1.00  0.00     0.187 HD
HETATM    6  C3  UNL     1      -0.413  10.034   5.367  1.00  0.00     0.724 C
HETATM    7  N2  UNL     1       0.165  10.969   6.263  1.00  0.00    -0.097 N
ATOM      8  H2  UNL     1      -0.217  11.119   7.198  1.00  0.00     0.213 HD
HETATM    9  N3  UNL     1       0.133   8.884   5.250  1.00  0.00    -0.097 N
ATOM     10  H3  UNL     1      -0.262   8.192   4.613  1.00  0.00     0.213 HD
ENDROOT
BRANCH   7  11
HETATM   11  O2  UNL     1       1.161  11.601   5.858  1.00  0.00    -0.276 OA
ATOM     12  H2  UNL     1       1.228  12.513   6.116  1.00  0.00     0.245 HD
ENDBRANCH   7  11
BRANCH   9  13
HETATM   13  O3  UNL     1       1.237   8.589   5.974  1.00  0.00    -0.276 OA
ATOM     14  H3  UNL     1       1.169   8.489   6.916  1.00  0.00     0.245 HD
ENDBRANCH   9  13
TORSDOF 2
ENDMDL