MODEL 3
REMARK VINA RESULT: -3.652771852      3.648      3.990
REMARK  2 active torsions:
REMARK  status: ('A' for Active; 'I' for Inactive)
REMARK    1  A    between atoms: O1_1  and  C1_3
REMARK    2  A    between atoms: N1_7  and  O2_8
ROOT
HETATM    1  C1  UNL     1      -1.562  12.177   6.909  1.00  0.00     0.135 C
HETATM    2  C2  UNL     1      -1.610  12.137   5.412  1.00  0.00     0.044 C
HETATM    3  C3  UNL     1      -1.600  10.764   4.829  1.00  0.00     0.096 C
HETATM    4  S1  UNL     1      -0.362   9.747   5.724  1.00  0.00    -0.055 SA
HETATM    5  N1  UNL     1       0.561  10.943   6.665  1.00  0.00    -0.136 NA
HETATM    6  C4  UNL     1      -0.354  11.598   7.531  1.00  0.00     0.166 C
ENDROOT
BRANCH   1   7
HETATM    7  O1  UNL     1      -1.672  13.530   7.284  1.00  0.00    -0.394 OA
ATOM      8  H1  UNL     1      -1.240  14.038   6.607  1.00  0.00     0.210 HD
ENDBRANCH   1   7
BRANCH   5   9
HETATM    9  O2  UNL     1       1.291  11.726   5.885  1.00  0.00    -0.302 OA
ATOM     10  H2  UNL     1       0.995  12.628   5.914  1.00  0.00     0.238 HD
ENDBRANCH   5   9
TORSDOF 2
ENDMDL