MODEL 3
REMARK VINA RESULT: -3.895182340      1.903      2.579
REMARK  4 active torsions:
REMARK  status: ('A' for Active; 'I' for Inactive)
REMARK    1  A    between atoms: N1_2  and  N2_4
REMARK    2  A    between atoms: N3_6  and  C2_8
REMARK    3  A    between atoms: C2_8  and  O2_13
REMARK    4  A    between atoms: N4_9  and  O1_11
ROOT
HETATM    1  N2  UNL     1      -0.163  10.768   5.488  1.00  0.00    -0.244 N
ATOM      2  H2  UNL     1       0.043  11.455   6.213  1.00  0.00     0.208 HD
HETATM    3  N3  UNL     1      -1.225  10.881   4.826  1.00  0.00    -0.249 N
ATOM      4  H3  UNL     1      -1.464  10.212   4.093  1.00  0.00     0.192 HD
ENDROOT
BRANCH   3   5
HETATM    5  C2  UNL     1      -2.083  11.970   5.131  1.00  0.00     0.259 C
HETATM    6  N4  UNL     1      -3.048  12.253   4.343  1.00  0.00    -0.231 N
ATOM      7  H4  UNL     1      -3.640  13.043   4.597  1.00  0.00     0.198 HD
BRANCH   6   8
HETATM    8  O1  UNL     1      -3.352  11.597   3.201  1.00  0.00    -0.287 OA
ATOM      9  H1  UNL     1      -2.983  11.775   2.344  1.00  0.00     0.244 HD
ENDBRANCH   6   8
BRANCH   5  10
HETATM   10  O2  UNL     1      -1.855  12.709   6.282  1.00  0.00    -0.325 OA
HETATM   11  C3  UNL     1      -3.005  13.126   6.997  1.00  0.00     0.213 C
ENDBRANCH   5  10
ENDBRANCH   3   5
BRANCH   1  12
HETATM   12  N1  UNL     1       0.744   9.727   5.258  1.00  0.00    -0.326 N
HETATM   13  C1  UNL     1       0.233   8.402   5.063  1.00  0.00     0.169 C
ATOM     14  H1  UNL     1       1.748   9.908   5.230  1.00  0.00     0.181 HD
ENDBRANCH   1  12
TORSDOF 4
ENDMDL