MODEL 3
REMARK VINA RESULT: -7.259895019      0.964      1.532
REMARK  3 active torsions:
REMARK  status: ('A' for Active; 'I' for Inactive)
REMARK    1  A    between atoms: C5_6  and  C6_7
REMARK    2  A    between atoms: C6_7  and  N2_8
REMARK    3  A    between atoms: C9_17  and  C10_18
ROOT
HETATM    1  N2  UNL     1       0.416   5.271  82.935  1.00  0.00    -0.338 N
HETATM    2  C7  UNL     1       1.194   6.399  82.903  1.00  0.00     0.185 A
HETATM    3  N3  UNL     1       2.251   6.143  82.163  1.00  0.00    -0.335 N
ATOM      4  H3  UNL     1       3.001   6.806  81.969  1.00  0.00     0.168 HD
HETATM    5  C8  UNL     1       2.200   4.900  81.707  1.00  0.00     0.150 A
HETATM    6  N4  UNL     1       2.784   3.953  80.933  1.00  0.00    -0.283 N
ATOM      7  H4  UNL     1       3.665   4.068  80.432  1.00  0.00     0.188 HD
HETATM    8  N5  UNL     1       2.052   2.870  80.924  1.00  0.00    -0.300 N
ATOM      9  H5  UNL     1       2.280   2.018  80.412  1.00  0.00     0.186 HD
HETATM   10  C9  UNL     1       0.948   3.037  81.691  1.00  0.00     0.060 A
HETATM   11  C15 UNL     1       1.036   4.338  82.198  1.00  0.00     0.106 A
ENDROOT
BRANCH   1  12
HETATM   12  C6  UNL     1      -0.808   5.190  83.654  1.00  0.00     0.135 C
BRANCH  12  13
HETATM   13  C5  UNL     1      -1.185   3.967  84.385  1.00  0.00     0.005 C
HETATM   14  C4  UNL     1      -0.286   3.407  85.410  1.00  0.00     0.008 C
HETATM   15  C3  UNL     1      -0.733   1.952  85.685  1.00  0.00     0.031 C
HETATM   16  C2  UNL     1      -1.807   2.008  86.727  1.00  0.00     0.271 C
HETATM   17  N1  UNL     1      -3.131   1.949  86.137  1.00  0.00     0.084 N
HETATM   18  C1  UNL     1      -4.099   2.266  87.138  1.00  0.00     0.309 C
HETATM   19  C17 UNL     1      -3.238   2.697  84.926  1.00  0.00     0.272 C
HETATM   20  C16 UNL     1      -2.600   4.064  84.981  1.00  0.00     0.036 C
ENDBRANCH  12  13
ENDBRANCH   1  12
BRANCH  10  21
HETATM   21  C10 UNL     1      -0.072   2.002  81.986  1.00  0.00     0.043 C
HETATM   22  C11 UNL     1      -1.367   2.259  81.226  1.00  0.00     0.038 C
HETATM   23  C12 UNL     1      -1.850   1.117  80.403  1.00  0.00     0.233 C
HETATM   24  N6  UNL     1      -1.808  -0.092  81.202  1.00  0.00    -0.075 N
HETATM   25  C13 UNL     1      -0.415  -0.411  81.441  1.00  0.00     0.233 C
ATOM     26  H62 UNL     1      -2.352  -0.018  82.062  1.00  0.00     0.277 HD
ATOM     27  H61 UNL     1      -2.326  -0.864  80.782  1.00  0.00     0.277 HD
HETATM   28  C14 UNL     1       0.486   0.748  81.246  1.00  0.00     0.038 C
ENDBRANCH  10  21
TORSDOF 3
ENDMDL