MODEL 2
REMARK VINA RESULT: -7.228472777      2.852      6.809
REMARK  7 active torsions:
REMARK  status: ('A' for Active; 'I' for Inactive)
REMARK    1  A    between atoms: C2_2  and  C4_4
REMARK    2  A    between atoms: C4_4  and  O1_5
REMARK    3  A    between atoms: O1_5  and  C5_6
REMARK       I    between atoms: C5_6  and  N1_8
REMARK    4  A    between atoms: C8_11  and  O3_12
REMARK    5  A    between atoms: C9_14  and  N2_15
REMARK       I    between atoms: N2_15  and  C10_16
REMARK    6  A    between atoms: C10_16  and  O5_18
REMARK    7  A    between atoms: O5_18  and  C11_19
ROOT
HETATM    1  C5  UNL     1      -1.418   0.942  85.195  1.00  0.00     0.362 C
HETATM    2  O2  UNL     1      -1.889  -0.022  84.547  1.00  0.00    -0.238 OA
HETATM    3  N1  UNL     1      -0.910   2.100  84.566  1.00  0.00    -0.325 N
HETATM    4  C6  UNL     1      -0.852   2.121  83.114  1.00  0.00     0.131 C
HETATM    5  C7  UNL     1      -1.681   3.274  82.644  1.00  0.00     0.055 C
HETATM    6  C8  UNL     1      -2.099   4.158  83.781  1.00  0.00     0.157 C
HETATM    7  C9  UNL     1      -0.903   4.569  84.661  1.00  0.00     0.216 C
HETATM    8  C15 UNL     1      -0.469   3.265  85.317  1.00  0.00     0.170 C
ENDROOT
BRANCH   7   9
HETATM    9  N2  UNL     1       0.135   5.252  84.122  1.00  0.00    -0.381 NA
HETATM   10  C10 UNL     1       1.192   5.949  83.572  1.00  0.00     0.435 C
HETATM   11  O4  UNL     1       1.419   7.175  83.693  1.00  0.00    -0.221 OA
BRANCH  10  12
HETATM   12  O5  UNL     1       2.173   5.302  82.783  1.00  0.00    -0.283 OA
BRANCH  12  13
HETATM   13  C11 UNL     1       2.056   4.929  81.461  1.00  0.00     0.062 C
HETATM   14  C12 UNL     1       2.126   3.409  81.269  1.00  0.00     0.046 C
HETATM   15  C13 UNL     1       3.254   5.475  80.686  1.00  0.00     0.046 C
HETATM   16  C14 UNL     1       0.810   5.413  80.796  1.00  0.00     0.046 C
ENDBRANCH  12  13
ENDBRANCH  10  12
ENDBRANCH   7   9
BRANCH   6  17
HETATM   17  O3  UNL     1      -2.796   5.263  83.348  1.00  0.00    -0.392 OA
ATOM     18  H3  UNL     1      -3.736   5.131  83.386  1.00  0.00     0.210 HD
ENDBRANCH   6  17
BRANCH   1  19
HETATM   19  O1  UNL     1      -1.407   0.831  86.595  1.00  0.00    -0.304 OA
BRANCH  19  20
HETATM   20  C4  UNL     1      -2.603   0.682  87.332  1.00  0.00     0.184 C
BRANCH  20  21
HETATM   21  C2  UNL     1      -3.358   1.988  87.285  1.00  0.00     0.002 C
HETATM   22  C1  UNL     1      -3.389   2.622  88.637  1.00  0.00     0.011 C
HETATM   23  C3  UNL     1      -4.757   1.679  86.760  1.00  0.00     0.011 C
ENDBRANCH  20  21
ENDBRANCH  19  20
ENDBRANCH   1  19
TORSDOF 7
ENDMDL