MODEL 3
REMARK VINA RESULT: -6.912229892      3.527      6.086
REMARK  4 active torsions:
REMARK  status: ('A' for Active; 'I' for Inactive)
REMARK    1  A    between atoms: C2_2  and  N1_4
REMARK    2  A    between atoms: C5_8  and  O1_9
REMARK    3  A    between atoms: C8_13  and  C9_14
REMARK       I    between atoms: C9_14  and  N3_16
REMARK    4  A    between atoms: N3_16  and  C11_18
ROOT
HETATM    1  N1  UNL     1       2.469   4.270  80.026  1.00  0.00    -0.276 N
HETATM    2  N2  UNL     1       1.880   5.159  79.147  1.00  0.00    -0.302 N
ATOM      3  H2  UNL     1       2.417   5.767  78.529  1.00  0.00     0.186 HD
HETATM    4  C4  UNL     1       0.607   5.152  79.179  1.00  0.00     0.044 A
HETATM    5  C5  UNL     1      -0.389   5.937  78.414  1.00  0.00     0.166 C
HETATM    6  C6  UNL     1      -1.252   6.637  79.449  1.00  0.00     0.039 C
HETATM    7  C7  UNL     1      -1.751   5.635  80.462  1.00  0.00     0.018 C
HETATM    8  C8  UNL     1      -0.684   4.889  81.181  1.00  0.00     0.095 C
HETATM    9  C16 UNL     1       0.171   4.151  80.172  1.00  0.00     0.117 A
HETATM   10  C17 UNL     1       1.414   3.599  80.717  1.00  0.00     0.103 A
HETATM   11  N4  UNL     1       1.658   2.711  81.613  1.00  0.00    -0.387 N
ATOM     12  H41 UNL     1       0.905   2.232  82.107  1.00  0.00     0.157 HD
ATOM     13  H42 UNL     1       2.523   2.326  81.992  1.00  0.00     0.157 HD
ENDROOT
BRANCH   8  14
HETATM   14  C9  UNL     1      -1.308   3.956  82.144  1.00  0.00     0.225 C
HETATM   15  O2  UNL     1      -2.124   3.079  81.688  1.00  0.00    -0.273 OA
HETATM   16  N3  UNL     1      -1.072   3.970  83.515  1.00  0.00    -0.351 N
HETATM   17  C10 UNL     1      -0.120   4.952  84.055  1.00  0.00     0.153 C
BRANCH  16  18
HETATM   18  C11 UNL     1      -1.678   3.101  84.483  1.00  0.00     0.086 C
HETATM   19  C12 UNL     1      -2.867   3.707  85.202  1.00  0.00     0.025 C
HETATM   20  C13 UNL     1      -3.185   2.544  86.157  1.00  0.00     0.002 C
HETATM   21  C14 UNL     1      -1.826   1.922  86.481  1.00  0.00     0.002 C
HETATM   22  C15 UNL     1      -0.809   2.704  85.632  1.00  0.00     0.025 C
ENDBRANCH  16  18
ENDBRANCH   8  14
BRANCH   5  23
HETATM   23  O1  UNL     1      -1.166   5.079  77.658  1.00  0.00    -0.390 OA
ATOM     24  H1  UNL     1      -1.273   5.438  76.785  1.00  0.00     0.210 HD
ENDBRANCH   5  23
BRANCH   1  25
HETATM   25  C2  UNL     1       3.900   4.082  80.187  1.00  0.00     0.101 C
HETATM   26  C1  UNL     1       4.473   5.016  81.227  1.00  0.00     0.034 C
HETATM   27  C3  UNL     1       4.609   4.364  78.881  1.00  0.00     0.034 C
ENDBRANCH   1  25
TORSDOF 4
ENDMDL