MODEL 2
REMARK VINA RESULT: -7.174996512      1.932      2.373
REMARK  6 active torsions:
REMARK  status: ('A' for Active; 'I' for Inactive)
REMARK    1  A    between atoms: N2_7  and  C6_8
REMARK    2  A    between atoms: C8_10  and  O1_11
REMARK    3  A    between atoms: C9_13  and  O2_14
REMARK    4  A    between atoms: C10_16  and  C11_17
REMARK    5  A    between atoms: C11_17  and  C12_18
REMARK    6  A    between atoms: C12_18  and  C13_19
ROOT
HETATM    1  N1  UNL     1       1.628   5.612  83.626  1.00  0.00    -0.195 NA
HETATM    2  C1  UNL     1       1.738   5.349  82.520  1.00  0.00     0.084 C
HETATM    3  C2  UNL     1       1.856   5.043  81.094  1.00  0.00     0.191 C
HETATM    4  C3  UNL     1       3.287   5.007  80.612  1.00  0.00     0.045 C
HETATM    5  C4  UNL     1       3.069   4.298  79.261  1.00  0.00     0.047 C
HETATM    6  C5  UNL     1       1.795   3.478  79.449  1.00  0.00     0.060 C
HETATM    7  N2  UNL     1       1.321   3.829  80.701  1.00  0.00    -0.371 N
ENDROOT
BRANCH   7   8
HETATM    8  C6  UNL     1       0.725   2.925  81.578  1.00  0.00     0.088 C
HETATM    9  C7  UNL     1       0.881   1.522  81.087  1.00  0.00     0.059 C
HETATM   10  C8  UNL     1      -0.394   1.029  80.440  1.00  0.00     0.150 C
HETATM   11  C9  UNL     1      -1.599   1.112  81.299  1.00  0.00     0.161 C
HETATM   12  C10 UNL     1      -1.463   2.064  82.443  1.00  0.00     0.085 C
HETATM   13  C18 UNL     1      -0.658   3.296  82.059  1.00  0.00     0.044 C
BRANCH  10  14
HETATM   14  O1  UNL     1      -0.132  -0.247  79.940  1.00  0.00    -0.393 OA
ATOM     15  H1  UNL     1      -0.799  -0.434  79.290  1.00  0.00     0.210 HD
ENDBRANCH  10  14
BRANCH  11  16
HETATM   16  O2  UNL     1      -2.726   1.345  80.505  1.00  0.00    -0.392 OA
ATOM     17  H2  UNL     1      -3.511   1.258  81.032  1.00  0.00     0.210 HD
ENDBRANCH  11  16
BRANCH  12  18
HETATM   18  C11 UNL     1      -1.336   1.548  83.729  1.00  0.00    -0.173 C
BRANCH  18  19
HETATM   19  C12 UNL     1      -1.225   1.082  84.919  1.00  0.00     0.112 C
BRANCH  19  20
HETATM   20  C13 UNL     1      -1.547   1.723  86.215  1.00  0.00     0.131 C
HETATM   21  C14 UNL     1      -2.320   2.994  86.078  1.00  0.00     0.033 C
HETATM   22  C15 UNL     1      -3.521   3.142  86.933  1.00  0.00     0.004 C
HETATM   23  C16 UNL     1      -3.805   2.065  87.908  1.00  0.00     0.026 C
HETATM   24  C17 UNL     1      -3.398   0.754  87.268  1.00  0.00     0.168 C
HETATM   25  O3  UNL     1      -2.041   0.789  87.101  1.00  0.00    -0.385 OA
ENDBRANCH  19  20
ENDBRANCH  18  19
ENDBRANCH  12  18
ENDBRANCH   7   8
TORSDOF 6
ENDMDL