MODEL 3
REMARK VINA RESULT: -6.693735442      1.641      2.512
REMARK  5 active torsions:
REMARK  status: ('A' for Active; 'I' for Inactive)
REMARK    1  A    between atoms: C2_2  and  C3_3
REMARK    2  A    between atoms: C3_3  and  C4_4
REMARK    3  A    between atoms: C7_8  and  N2_9
REMARK    4  A    between atoms: C11_18  and  C12_19
REMARK    5  A    between atoms: C12_19  and  O1_21
ROOT
HETATM    1  C4  UNL     1       0.285   6.318  83.601  1.00  0.00     0.065 C
HETATM    2  C5  UNL     1       1.333   6.836  82.649  1.00  0.00     0.159 C
HETATM    3  N1  UNL     1       1.561   5.681  81.842  1.00  0.00    -0.369 N
HETATM    4  C6  UNL     1       1.335   5.751  80.486  1.00  0.00     0.095 C
HETATM    5  C7  UNL     1      -0.034   5.682  79.945  1.00  0.00     0.223 C
HETATM    6  C8  UNL     1      -1.055   6.561  80.563  1.00  0.00     0.058 C
HETATM    7  C9  UNL     1      -1.720   5.991  81.790  1.00  0.00     0.127 C
HETATM    8  N3  UNL     1      -0.892   5.825  82.924  1.00  0.00    -0.362 N
HETATM    9  C10 UNL     1      -1.323   4.756  83.818  1.00  0.00     0.080 A
HETATM   10  S1  UNL     1      -2.630   3.840  84.429  1.00  0.00    -0.074 SA
HETATM   11  C11 UNL     1      -1.790   2.825  85.505  1.00  0.00     0.013 A
HETATM   12  C14 UNL     1      -0.492   3.228  85.361  1.00  0.00     0.028 A
HETATM   13  C15 UNL     1      -0.251   4.236  84.480  1.00  0.00    -0.012 A
HETATM   14  C16 UNL     1       0.934   5.000  83.962  1.00  0.00     0.090 C
HETATM   15  C17 UNL     1       1.302   4.507  82.565  1.00  0.00     0.075 C
ENDROOT
BRANCH   5  16
HETATM   16  N2  UNL     1      -0.590   4.327  79.899  1.00  0.00    -0.070 N
ATOM     17  H23 UNL     1       0.155   3.633  79.967  1.00  0.00     0.275 HD
ATOM     18  H22 UNL     1      -1.099   4.119  80.758  1.00  0.00     0.275 HD
ATOM     19  H21 UNL     1      -1.174   4.146  79.083  1.00  0.00     0.275 HD
ENDBRANCH   5  16
BRANCH   1  20
HETATM   20  C3  UNL     1       0.017   7.198  84.757  1.00  0.00     0.060 C
BRANCH  20  21
HETATM   21  C2  UNL     1       0.771   8.455  84.633  1.00  0.00    -0.034 C
HETATM   22  C1  UNL     1       1.253   9.028  85.715  1.00  0.00     0.007 C
ENDBRANCH  20  21
ENDBRANCH   1  20
BRANCH  11  23
HETATM   23  C12 UNL     1      -2.314   1.735  86.412  1.00  0.00     0.154 C
HETATM   24  C13 UNL     1      -3.714   2.059  86.847  1.00  0.00     0.045 C
BRANCH  23  25
HETATM   25  O1  UNL     1      -2.273   0.527  85.743  1.00  0.00    -0.391 OA
ATOM     26  H1  UNL     1      -2.654  -0.148  86.293  1.00  0.00     0.210 HD
ENDBRANCH  23  25
ENDBRANCH  11  23
TORSDOF 5
ENDMDL