MODEL 5
REMARK VINA RESULT: -6.904750359      1.730      2.104
REMARK  6 active torsions:
REMARK  status: ('A' for Active; 'I' for Inactive)
REMARK    1  A    between atoms: C2_2  and  C3_3
REMARK    2  A    between atoms: C9_9  and  O1_10
REMARK    3  A    between atoms: O1_10  and  C10_11
REMARK    4  A    between atoms: C10_11  and  C11_13
REMARK    5  A    between atoms: C11_13  and  N1_14
REMARK    6  A    between atoms: C16_23  and  O3_24
ROOT
HETATM    1  C3  UNL     1       0.662   4.152  81.305  1.00  0.00     0.004 C
HETATM    2  C4  UNL     1       1.893   4.353  82.156  1.00  0.00     0.022 C
HETATM    3  C5  UNL     1      -0.524   4.904  81.661  1.00  0.00     0.001 C
HETATM    4  C6  UNL     1      -0.832   5.310  83.104  1.00  0.00     0.011 C
HETATM    5  C7  UNL     1      -1.143   4.134  83.831  1.00  0.00    -0.007 C
HETATM    6  C8  UNL     1      -1.985   3.720  84.910  1.00  0.00     0.037 C
HETATM    7  C9  UNL     1      -2.034   2.187  84.946  1.00  0.00     0.132 C
HETATM    8  C12 UNL     1      -1.131   1.398  84.056  1.00  0.00     0.039 C
HETATM    9  C13 UNL     1      -0.556   2.147  82.907  1.00  0.00     0.013 C
HETATM   10  C14 UNL     1      -0.089   1.659  81.669  1.00  0.00     0.127 C
HETATM   11  C15 UNL     1      -1.147   0.892  80.956  1.00  0.00     0.067 C
HETATM   12  N2  UNL     1      -1.981   0.313  80.394  1.00  0.00    -0.197 NA
HETATM   13  C16 UNL     1       0.519   2.721  80.853  1.00  0.00     0.148 C
HETATM   14  C17 UNL     1      -1.563   3.195  82.714  1.00  0.00    -0.004 C
HETATM   15  C18 UNL     1      -1.684   3.954  81.465  1.00  0.00     0.011 C
ENDROOT
BRANCH  13  16
HETATM   16  O3  UNL     1       1.854   2.364  80.496  1.00  0.00    -0.393 OA
ATOM     17  H3  UNL     1       1.746   1.504  80.105  1.00  0.00     0.210 HD
ENDBRANCH  13  16
BRANCH   1  18
HETATM   18  C2  UNL     1       1.089   4.797  79.994  1.00  0.00    -0.025 C
HETATM   19  C1  UNL     1       1.004   6.111  79.831  1.00  0.00     0.008 C
ENDBRANCH   1  18
BRANCH   7  20
HETATM   20  O1  UNL     1      -1.854   1.719  86.287  1.00  0.00    -0.315 OA
BRANCH  20  21
HETATM   21  C10 UNL     1      -2.871   1.245  87.080  1.00  0.00     0.284 C
HETATM   22  O2  UNL     1      -2.900  -0.023  87.244  1.00  0.00    -0.263 OA
BRANCH  21  23
HETATM   23  C11 UNL     1      -3.890   2.120  87.724  1.00  0.00     0.340 C
BRANCH  23  24
HETATM   24  N1  UNL     1      -3.329   2.640  88.961  1.00  0.00    -0.070 N
ATOM     25  H13 UNL     1      -2.354   2.374  89.092  1.00  0.00     0.274 HD
ATOM     26  H12 UNL     1      -3.196   3.651  88.937  1.00  0.00     0.274 HD
ATOM     27  H11 UNL     1      -3.925   2.339  89.733  1.00  0.00     0.274 HD
ENDBRANCH  23  24
ENDBRANCH  21  23
ENDBRANCH  20  21
ENDBRANCH   7  20
TORSDOF 6
ENDMDL