MODEL 3
REMARK VINA RESULT: -6.537191589      2.023      5.382
REMARK  5 active torsions:
REMARK  status: ('A' for Active; 'I' for Inactive)
REMARK    1  A    between atoms: C2_2  and  C3_3
REMARK    2  A    between atoms: C3_3  and  C4_4
REMARK    3  A    between atoms: C4_4  and  C5_5
REMARK    4  A    between atoms: C11_14  and  O4_15
REMARK    5  A    between atoms: C16_21  and  O5_22
ROOT
HETATM    1  C4  UNL     1      -1.033   6.501  80.581  1.00  0.00     0.063 C
HETATM    2  C7  UNL     1      -1.384   5.068  80.399  1.00  0.00     0.269 C
HETATM    3  O1  UNL     1      -1.052   4.387  79.404  1.00  0.00    -0.264 OA
HETATM    4  O2  UNL     1      -2.106   4.762  81.540  1.00  0.00    -0.314 OA
HETATM    5  C8  UNL     1      -1.861   5.654  82.572  1.00  0.00     0.156 C
HETATM    6  C9  UNL     1      -0.718   6.507  82.053  1.00  0.00     0.107 C
HETATM    7  C10 UNL     1       0.596   5.971  82.396  1.00  0.00     0.164 C
HETATM    8  O3  UNL     1       1.590   6.617  82.115  1.00  0.00    -0.295 OA
HETATM    9  C11 UNL     1       0.893   4.670  83.080  1.00  0.00     0.197 C
HETATM   10  C12 UNL     1      -0.331   4.054  83.681  1.00  0.00     0.001 C
HETATM   11  C13 UNL     1      -0.657   2.817  82.936  1.00  0.00     0.019 C
HETATM   12  C14 UNL     1      -0.175   3.635  85.141  1.00  0.00     0.015 C
HETATM   13  C15 UNL     1      -1.652   3.359  85.469  1.00  0.00     0.033 C
HETATM   14  C16 UNL     1      -2.470   4.295  84.621  1.00  0.00     0.129 C
HETATM   15  C17 UNL     1      -1.431   5.053  83.860  1.00  0.00     0.019 C
HETATM   16  C18 UNL     1      -1.003   6.189  84.763  1.00  0.00     0.021 C
ENDROOT
BRANCH   1  17
HETATM   17  C3  UNL     1      -2.281   7.277  80.285  1.00  0.00     0.047 C
BRANCH  17  18
HETATM   18  C2  UNL     1      -2.318   8.547  81.045  1.00  0.00    -0.036 C
HETATM   19  C1  UNL     1      -3.322   9.414  80.967  1.00  0.00     0.007 C
ENDBRANCH  17  18
ENDBRANCH   1  17
BRANCH   1  20
HETATM   20  C5  UNL     1       0.096   6.927  79.692  1.00  0.00     0.016 C
HETATM   21  C6  UNL     1      -0.437   7.478  78.420  1.00  0.00     0.006 C
ENDBRANCH   1  20
BRANCH   9  22
HETATM   22  O4  UNL     1       1.924   4.830  84.018  1.00  0.00    -0.387 OA
ATOM     23  H4  UNL     1       2.614   4.196  83.867  1.00  0.00     0.210 HD
ENDBRANCH   9  22
BRANCH  14  24
HETATM   24  O5  UNL     1      -3.467   3.722  83.895  1.00  0.00    -0.395 OA
ATOM     25  H5  UNL     1      -4.351   3.882  84.205  1.00  0.00     0.210 HD
ENDBRANCH  14  24
TORSDOF 5
ENDMDL