MODEL 5
REMARK VINA RESULT: -6.646935393      3.319      5.191
REMARK  5 active torsions:
REMARK  status: ('A' for Active; 'I' for Inactive)
REMARK    1  A    between atoms: C6_7  and  O1_8
REMARK    2  A    between atoms: N2_10  and  C7_11
REMARK    3  A    between atoms: C7_11  and  C8_12
REMARK    4  A    between atoms: C8_12  and  N3_13
REMARK    5  A    between atoms: C16_22  and  O3_23
ROOT
HETATM    1  C1  UNL     1       1.883   9.882  84.670  1.00  0.00     0.154 C
HETATM    2  N1  UNL     1       1.484   9.017  83.618  1.00  0.00    -0.373 N
HETATM    3  C2  UNL     1       2.469   8.509  82.775  1.00  0.00     0.067 C
HETATM    4  C3  UNL     1       2.406   7.082  82.402  1.00  0.00     0.088 C
HETATM    5  C4  UNL     1       1.405   6.283  83.118  1.00  0.00     0.013 A
HETATM    6  C5  UNL     1       0.361   6.869  83.781  1.00  0.00     0.041 A
HETATM    7  C6  UNL     1      -0.388   5.882  84.341  1.00  0.00     0.156 A
HETATM    8  N2  UNL     1       0.171   4.685  84.038  1.00  0.00    -0.306 N
HETATM    9  C16 UNL     1       1.265   4.932  83.292  1.00  0.00     0.152 A
HETATM   10  C17 UNL     1       0.262   8.347  83.760  1.00  0.00     0.106 C
ENDROOT
BRANCH   8  11
HETATM   11  C7  UNL     1      -0.328   3.386  84.448  1.00  0.00     0.153 C
BRANCH  11  12
HETATM   12  C8  UNL     1      -1.621   3.020  83.771  1.00  0.00     0.146 C
BRANCH  12  13
HETATM   13  N3  UNL     1      -1.349   2.012  82.794  1.00  0.00    -0.345 N
HETATM   14  C9  UNL     1      -1.341   0.606  83.096  1.00  0.00     0.224 C
HETATM   15  O2  UNL     1      -1.672   0.131  84.187  1.00  0.00    -0.273 OA
HETATM   16  C10 UNL     1      -0.882  -0.231  81.930  1.00  0.00     0.078 C
HETATM   17  C11 UNL     1      -1.827   0.045  80.761  1.00  0.00     0.016 C
HETATM   18  C15 UNL     1       0.471   0.320  81.533  1.00  0.00     0.016 C
HETATM   19  C12 UNL     1      -2.079   1.524  80.588  1.00  0.00     0.026 C
HETATM   20  C13 UNL     1      -1.050   2.307  81.389  1.00  0.00     0.087 C
HETATM   21  C14 UNL     1       0.310   1.725  81.002  1.00  0.00     0.026 C
ENDBRANCH  12  13
ENDBRANCH  11  12
ENDBRANCH   8  11
BRANCH   7  22
HETATM   22  O1  UNL     1      -1.536   6.122  85.094  1.00  0.00    -0.345 OA
ATOM     23  H1  UNL     1      -1.572   6.025  86.039  1.00  0.00     0.219 HD
ENDBRANCH   7  22
BRANCH   9  24
HETATM   24  O3  UNL     1       2.079   3.898  82.809  1.00  0.00    -0.345 OA
ATOM     25  H3  UNL     1       2.121   2.993  83.094  1.00  0.00     0.219 HD
ENDBRANCH   9  24
TORSDOF 5
ENDMDL