MODEL 4
REMARK VINA RESULT: -6.935942403      2.531      5.395
REMARK  4 active torsions:
REMARK  status: ('A' for Active; 'I' for Inactive)
REMARK    1  A    between atoms: C5_5  and  C6_6
REMARK    2  A    between atoms: C5_5  and  N5_17
REMARK    3  A    between atoms: C6_6  and  N1_7
REMARK    4  A    between atoms: C8_11  and  N3_12
ROOT
HETATM    1  C1  UNL     1      -3.042   2.236  87.375  1.00  0.00     0.010 C
HETATM    2  C2  UNL     1      -2.812   2.435  85.907  1.00  0.00    -0.019 C
HETATM    3  C3  UNL     1      -1.354   2.141  85.552  1.00  0.00     0.007 C
HETATM    4  C4  UNL     1      -0.671   3.503  85.353  1.00  0.00     0.044 C
HETATM    5  C5  UNL     1      -1.138   3.966  83.960  1.00  0.00     0.179 C
HETATM    6  C15 UNL     1      -2.649   3.958  84.016  1.00  0.00     0.044 C
HETATM    7  C16 UNL     1      -3.194   3.807  85.422  1.00  0.00     0.007 C
ENDROOT
BRANCH   5   8
HETATM    8  C6  UNL     1      -0.654   5.354  83.672  1.00  0.00     0.211 C
BRANCH   8   9
HETATM    9  N1  UNL     1      -1.452   6.082  82.707  1.00  0.00    -0.230 N
HETATM   10  N2  UNL     1      -1.174   6.224  81.408  1.00  0.00    -0.292 N
HETATM   11  C7  UNL     1      -2.110   6.942  80.783  1.00  0.00     0.158 A
ATOM     12  H2  UNL     1      -0.350   5.833  80.951  1.00  0.00     0.188 HD
HETATM   13  C8  UNL     1      -3.032   7.276  81.727  1.00  0.00     0.132 A
HETATM   14  N4  UNL     1      -2.588   6.730  82.884  1.00  0.00    -0.268 N
ATOM     15  H4  UNL     1      -3.071   6.810  83.779  1.00  0.00     0.190 HD
BRANCH  13  16
HETATM   16  N3  UNL     1      -4.110   7.976  81.536  1.00  0.00    -0.383 N
ATOM     17  H32 UNL     1      -4.358   8.535  80.719  1.00  0.00     0.157 HD
ATOM     18  H31 UNL     1      -4.889   8.076  82.187  1.00  0.00     0.157 HD
ENDBRANCH  13  16
ENDBRANCH   8   9
ENDBRANCH   5   8
BRANCH   5  19
HETATM   19  N5  UNL     1      -0.743   3.031  82.961  1.00  0.00     0.105 N
HETATM   20  C9  UNL     1       0.450   3.337  82.230  1.00  0.00     0.280 C
HETATM   21  C10 UNL     1       0.874   2.134  81.455  1.00  0.00     0.089 C
HETATM   22  C11 UNL     1      -0.205   1.298  80.926  1.00  0.00     0.036 A
HETATM   23  N6  UNL     1      -0.178   0.174  80.157  1.00  0.00    -0.354 N
HETATM   24  C13 UNL     1      -1.509   1.597  81.184  1.00  0.00     0.061 A
HETATM   25  C12 UNL     1      -1.458  -0.178  79.968  1.00  0.00     0.180 A
ATOM     26  H6  UNL     1       0.649  -0.304  79.797  1.00  0.00     0.166 HD
HETATM   27  N7  UNL     1      -2.270   0.693  80.598  1.00  0.00    -0.353 N
ATOM     28  H7  UNL     1      -3.289   0.659  80.617  1.00  0.00     0.166 HD
HETATM   29  C14 UNL     1      -1.798   2.809  82.023  1.00  0.00     0.332 C
ENDBRANCH   5  19
TORSDOF 4
ENDMDL