MODEL 3
REMARK VINA RESULT: -7.886291488      2.190      5.371
REMARK  4 active torsions:
REMARK  status: ('A' for Active; 'I' for Inactive)
REMARK    1  A    between atoms: O1_1  and  C1_3
REMARK    2  A    between atoms: C6_8  and  N1_9
REMARK    3  A    between atoms: C14_17  and  O2_18
REMARK    4  A    between atoms: O2_18  and  C15_19
ROOT
HETATM    1  N1  UNL     1      -0.534   3.637  81.899  1.00  0.00     0.096 N
HETATM    2  C7  UNL     1       0.799   3.163  81.660  1.00  0.00     0.273 C
HETATM    3  C8  UNL     1       0.870   1.876  80.911  1.00  0.00     0.037 C
HETATM    4  C9  UNL     1       0.246   0.705  81.590  1.00  0.00     0.017 C
HETATM    5  C10 UNL     1      -0.474  -0.106  80.499  1.00  0.00     0.008 C
HETATM    6  C11 UNL     1      -1.752   0.644  80.322  1.00  0.00     0.009 C
HETATM    7  C12 UNL     1      -1.884   1.629  81.483  1.00  0.00     0.044 C
HETATM    8  C13 UNL     1      -1.527   3.012  81.059  1.00  0.00     0.280 C
HETATM    9  C14 UNL     1      -0.915   1.032  82.471  1.00  0.00     0.140 C
ENDROOT
BRANCH   9  10
HETATM   10  O2  UNL     1      -0.646   1.814  83.574  1.00  0.00    -0.328 OA
BRANCH  10  11
HETATM   11  C15 UNL     1      -1.466   1.822  84.699  1.00  0.00     0.158 A
HETATM   12  C16 UNL     1      -1.476   0.800  85.609  1.00  0.00     0.143 A
HETATM   13  N2  UNL     1      -2.275   0.823  86.693  1.00  0.00    -0.370 N
HETATM   14  C17 UNL     1      -3.095   1.868  86.909  1.00  0.00     0.104 A
ATOM     15  H2  UNL     1      -2.259   0.046  87.353  1.00  0.00     0.164 HD
HETATM   16  C18 UNL     1      -3.097   2.912  85.996  1.00  0.00     0.107 A
HETATM   17  N3  UNL     1      -2.286   2.854  84.926  1.00  0.00    -0.344 N
ATOM     18  H3  UNL     1      -2.296   3.627  84.262  1.00  0.00     0.167 HD
ENDBRANCH  10  11
ENDBRANCH   9  10
BRANCH   1  19
HETATM   19  C6  UNL     1      -0.646   5.091  81.756  1.00  0.00     0.251 C
HETATM   20  C1  UNL     1      -1.435   5.716  82.861  1.00  0.00     0.151 C
HETATM   21  C2  UNL     1      -2.430   6.752  82.402  1.00  0.00     0.034 C
HETATM   22  C3  UNL     1      -1.795   7.582  81.312  1.00  0.00     0.003 C
HETATM   23  C4  UNL     1      -1.550   6.741  80.089  1.00  0.00     0.002 C
HETATM   24  C5  UNL     1      -1.251   5.316  80.391  1.00  0.00     0.038 C
BRANCH  20  25
HETATM   25  O1  UNL     1      -0.572   6.370  83.774  1.00  0.00    -0.393 OA
ATOM     26  H1  UNL     1       0.174   6.670  83.268  1.00  0.00     0.210 HD
ENDBRANCH  20  25
ENDBRANCH   1  19
TORSDOF 4
ENDMDL