MODEL 3
REMARK VINA RESULT: -5.139091077      1.319      2.501
REMARK  0 active torsions:
REMARK  status: ('A' for Active; 'I' for Inactive)
ROOT
HETATM    1  C1  UNL     1      -6.526   1.971  18.352  1.00  0.00     0.071 C
HETATM    2  C2  UNL     1      -6.299   2.712  17.068  1.00  0.00     0.044 A
HETATM    3  N1  UNL     1      -6.761   3.901  16.697  1.00  0.00    -0.303 N
ATOM      4  H1  UNL     1      -7.362   4.493  17.271  1.00  0.00     0.186 HD
HETATM    5  N2  UNL     1      -6.337   4.215  15.479  1.00  0.00    -0.303 N
ATOM      6  H2  UNL     1      -6.560   5.077  14.982  1.00  0.00     0.186 HD
HETATM    7  C3  UNL     1      -5.562   3.215  15.001  1.00  0.00     0.044 A
HETATM    8  C4  UNL     1      -4.877   3.156  13.664  1.00  0.00     0.071 C
HETATM    9  C5  UNL     1      -5.535   2.259  16.004  1.00  0.00     0.091 A
HETATM   10  C6  UNL     1      -4.815   1.021  15.900  1.00  0.00     0.103 C
HETATM   11  N3  UNL     1      -4.222   0.031  15.829  1.00  0.00    -0.191 NA
ENDROOT
TORSDOF 0
ENDMDL