MODEL 1
REMARK VINA RESULT: -5.446500003      0.000      0.000
REMARK  0 active torsions:
REMARK  status: ('A' for Active; 'I' for Inactive)
ROOT
HETATM    1  C1  UNL     1      -4.599   5.738  16.693  1.00  0.00     0.089 C
HETATM    2  C2  UNL     1      -5.029   4.305  16.629  1.00  0.00     0.078 A
HETATM    3  N1  UNL     1      -6.200   3.801  17.048  1.00  0.00    -0.347 N
ATOM      4  H1  UNL     1      -6.952   4.348  17.468  1.00  0.00     0.167 HD
HETATM    5  C3  UNL     1      -6.241   2.473  16.834  1.00  0.00     0.044 A
HETATM    6  C4  UNL     1      -7.324   1.499  17.132  1.00  0.00     0.071 C
HETATM    7  C5  UNL     1      -5.041   2.122  16.254  1.00  0.00     0.137 A
HETATM    8  C6  UNL     1      -4.619   0.796  15.839  1.00  0.00     0.119 C
HETATM    9  N2  UNL     1      -4.281  -0.261  15.504  1.00  0.00    -0.190 NA
HETATM   10  N3  UNL     1      -4.324   3.275  16.145  1.00  0.00    -0.336 N
ATOM     11  H3  UNL     1      -3.385   3.344  15.751  1.00  0.00     0.168 HD
ENDROOT
TORSDOF 0
ENDMDL