MODEL 3
REMARK VINA RESULT: -4.583448127      1.066      1.066
REMARK  1 active torsions:
REMARK  status: ('A' for Active; 'I' for Inactive)
REMARK    1  A    between atoms: N1_2  and  C2_4
ROOT
HETATM    1  C2  UNL     1      -4.515   1.164  14.011  1.00  0.00     0.224 A
HETATM    2  N2  UNL     1      -4.452   2.461  14.361  1.00  0.00    -0.324 N
ATOM      3  H2  UNL     1      -4.089   3.208  13.769  1.00  0.00     0.169 HD
HETATM    4  C3  UNL     1      -4.937   2.628  15.607  1.00  0.00     0.038 A
HETATM    5  C4  UNL     1      -5.065   3.865  16.402  1.00  0.00     0.071 C
HETATM    6  C5  UNL     1      -5.304   1.340  15.999  1.00  0.00     0.075 A
HETATM    7  C6  UNL     1      -5.899   0.923  17.290  1.00  0.00     0.079 C
HETATM    8  O1  UNL     1      -5.032   0.508  15.015  1.00  0.00    -0.282 OA
ENDROOT
BRANCH   1   9
HETATM    9  N1  UNL     1      -4.117   0.703  12.860  1.00  0.00    -0.360 N
HETATM   10  C1  UNL     1      -4.830   0.986  11.650  1.00  0.00     0.150 C
ATOM     11  H1  UNL     1      -3.277   0.126  12.818  1.00  0.00     0.162 HD
ENDBRANCH   1   9
TORSDOF 1
ENDMDL