MODEL 2
REMARK VINA RESULT: -5.717906346      1.552      1.560
REMARK  0 active torsions:
REMARK  status: ('A' for Active; 'I' for Inactive)
ROOT
HETATM    1  C1  UNL     1      -2.710   4.272  15.554  1.00  0.00     0.089 C
HETATM    2  C2  UNL     1      -3.874   3.433  15.993  1.00  0.00     0.080 A
HETATM    3  N1  UNL     1      -3.938   2.121  15.708  1.00  0.00    -0.313 N
ATOM      4  H1  UNL     1      -3.172   1.699  15.181  1.00  0.00     0.170 HD
HETATM    5  C3  UNL     1      -4.965   1.337  16.084  1.00  0.00     0.254 A
HETATM    6  O1  UNL     1      -5.015   0.103  15.811  1.00  0.00    -0.268 OA
HETATM    7  C4  UNL     1      -6.020   1.870  16.798  1.00  0.00     0.028 A
HETATM    8  C5  UNL     1      -7.180   1.040  17.237  1.00  0.00     0.056 C
HETATM    9  C6  UNL     1      -5.940   3.217  17.082  1.00  0.00     0.018 A
HETATM   10  C7  UNL     1      -7.072   3.815  17.854  1.00  0.00     0.069 C
HETATM   11  N2  UNL     1      -4.894   3.965  16.687  1.00  0.00    -0.349 N
ATOM     12  H2  UNL     1      -4.875   4.958  16.920  1.00  0.00     0.167 HD
ENDROOT
TORSDOF 0
ENDMDL