MODEL 3
REMARK VINA RESULT: -5.145236948      1.706      2.200
REMARK  0 active torsions:
REMARK  status: ('A' for Active; 'I' for Inactive)
ROOT
HETATM    1  C1  UNL     1      -3.297   4.234  16.427  1.00  0.00     0.035 C
HETATM    2  C2  UNL     1      -4.203   3.275  15.784  1.00  0.00     0.117 C
HETATM    3  N1  UNL     1      -3.790   1.918  16.134  1.00  0.00    -0.330 N
ATOM      4  H1  UNL     1      -2.890   1.617  16.507  1.00  0.00     0.165 HD
HETATM    5  C3  UNL     1      -4.928   1.110  15.837  1.00  0.00     0.361 C
HETATM    6  O1  UNL     1      -4.899  -0.128  15.517  1.00  0.00    -0.238 OA
HETATM    7  O2  UNL     1      -6.028   1.927  15.964  1.00  0.00    -0.291 OA
HETATM    8  C4  UNL     1      -5.623   3.298  16.074  1.00  0.00     0.085 C
HETATM    9  C5  UNL     1      -6.089   3.800  17.378  1.00  0.00     0.048 C
HETATM   10  C6  UNL     1      -6.357   4.047  14.954  1.00  0.00     0.048 C
ENDROOT
TORSDOF 0
ENDMDL