MODEL 1
REMARK VINA RESULT: -4.600964039      0.000      0.000
REMARK  0 active torsions:
REMARK  status: ('A' for Active; 'I' for Inactive)
ROOT
HETATM    1  C1  UNL     1      -4.903   4.787  14.931  1.00  0.00     0.048 C
HETATM    2  C2  UNL     1      -5.172   3.307  15.088  1.00  0.00     0.143 C
HETATM    3  C3  UNL     1      -4.999   2.667  13.747  1.00  0.00     0.048 C
HETATM    4  C4  UNL     1      -4.256   2.780  16.144  1.00  0.00     0.209 C
HETATM    5  O1  UNL     1      -4.996   1.838  16.875  1.00  0.00    -0.352 OA
HETATM    6  C5  UNL     1      -6.276   2.402  16.901  1.00  0.00     0.219 C
HETATM    7  C6  UNL     1      -7.296   1.297  17.145  1.00  0.00     0.078 C
HETATM    8  C7  UNL     1      -6.441   3.419  17.991  1.00  0.00     0.078 C
HETATM    9  N1  UNL     1      -6.474   3.018  15.599  1.00  0.00    -0.034 N
ATOM     10  H11 UNL     1      -7.041   2.454  14.966  1.00  0.00     0.281 HD
ATOM     11  H12 UNL     1      -7.088   3.832  15.626  1.00  0.00     0.281 HD
ENDROOT
TORSDOF 0
ENDMDL