MODEL 4
REMARK VINA RESULT: -4.575254527      2.273      3.581
REMARK  2 active torsions:
REMARK  status: ('A' for Active; 'I' for Inactive)
REMARK       I    between atoms: N1_2  and  C2_4
REMARK    1  A    between atoms: C2_4  and  O2_6
REMARK    2  A    between atoms: O2_6  and  C3_7
ROOT
HETATM    1  C1  UNL     1      -6.197   0.530  17.645  1.00  0.00     0.151 C
HETATM    2  N1  UNL     1      -5.986   1.374  16.495  1.00  0.00    -0.341 N
ATOM      3  H1  UNL     1      -6.698   2.048  16.216  1.00  0.00     0.164 HD
HETATM    4  C2  UNL     1      -4.793   1.260  15.762  1.00  0.00     0.360 C
HETATM    5  O1  UNL     1      -3.865   0.456  16.036  1.00  0.00    -0.239 OA
ENDROOT
BRANCH   4   6
HETATM    6  O2  UNL     1      -4.619   2.084  14.664  1.00  0.00    -0.294 OA
BRANCH   6   7
HETATM    7  C3  UNL     1      -4.456   3.469  14.715  1.00  0.00     0.061 C
HETATM    8  C4  UNL     1      -3.731   3.878  13.426  1.00  0.00     0.046 C
HETATM    9  C5  UNL     1      -5.785   4.220  14.684  1.00  0.00     0.046 C
HETATM   10  C6  UNL     1      -3.600   3.936  15.851  1.00  0.00     0.046 C
ENDBRANCH   6   7
ENDBRANCH   4   6
TORSDOF 2
ENDMDL