MODEL 1
REMARK VINA RESULT: -4.649021374      0.000      0.000
REMARK  1 active torsions:
REMARK  status: ('A' for Active; 'I' for Inactive)
REMARK    1  A    between atoms: C5_6  and  N1_7
ROOT
HETATM    1  C1  UNL     1      -7.115   1.190  17.364  1.00  0.00     0.040 C
HETATM    2  C2  UNL     1      -5.964   2.100  17.017  1.00  0.00     0.123 C
HETATM    3  O1  UNL     1      -6.351   3.416  16.922  1.00  0.00    -0.379 OA
HETATM    4  C3  UNL     1      -5.479   4.090  16.114  1.00  0.00     0.148 C
HETATM    5  C4  UNL     1      -6.221   4.750  14.944  1.00  0.00     0.042 C
HETATM    6  C5  UNL     1      -4.548   3.081  15.480  1.00  0.00     0.218 C
HETATM    7  C6  UNL     1      -5.416   1.824  15.641  1.00  0.00     0.043 C
HETATM    8  C7  UNL     1      -4.586   0.604  15.538  1.00  0.00     0.015 C
ENDROOT
BRANCH   6   9
HETATM    9  N1  UNL     1      -3.359   2.975  16.295  1.00  0.00    -0.072 N
ATOM     10  H13 UNL     1      -2.541   2.692  15.757  1.00  0.00     0.274 HD
ATOM     11  H12 UNL     1      -3.015   3.884  16.605  1.00  0.00     0.274 HD
ATOM     12  H11 UNL     1      -3.552   2.344  17.073  1.00  0.00     0.274 HD
ENDBRANCH   6   9
TORSDOF 1
ENDMDL