MODEL 1
REMARK VINA RESULT: -5.031179470      0.000      0.000
REMARK  1 active torsions:
REMARK  status: ('A' for Active; 'I' for Inactive)
REMARK    1  A    between atoms: C5_6  and  O2_7
ROOT
HETATM    1  C1  UNL     1      -6.616   3.538  17.623  1.00  0.00     0.046 C
HETATM    2  C2  UNL     1      -6.269   2.211  16.959  1.00  0.00     0.066 C
HETATM    3  C3  UNL     1      -7.396   1.231  17.029  1.00  0.00     0.046 C
HETATM    4  O1  UNL     1      -5.047   1.766  17.473  1.00  0.00    -0.371 OA
HETATM    5  C4  UNL     1      -4.462   2.153  16.271  1.00  0.00     0.166 A
HETATM    6  C5  UNL     1      -4.787   1.289  15.087  1.00  0.00     0.161 A
HETATM    7  C6  UNL     1      -5.729   2.320  15.567  1.00  0.00     0.043 A
HETATM    8  C7  UNL     1      -6.076   3.485  14.716  1.00  0.00     0.024 C
ENDROOT
BRANCH   6   9
HETATM    9  O2  UNL     1      -4.988  -0.061  15.411  1.00  0.00    -0.392 OA
ATOM     10  H2  UNL     1      -4.197  -0.513  15.680  1.00  0.00     0.210 HD
ENDBRANCH   6   9
TORSDOF 1
ENDMDL