MODEL 2
REMARK VINA RESULT: -5.041389546      1.028      3.318
REMARK  1 active torsions:
REMARK  status: ('A' for Active; 'I' for Inactive)
REMARK    1  A    between atoms: N1_2  and  C2_4
ROOT
HETATM    1  C2  UNL     1      -4.696   2.093  16.311  1.00  0.00     0.173 A
HETATM    2  O1  UNL     1      -3.399   1.917  16.344  1.00  0.00    -0.219 OA
HETATM    3  N2  UNL     1      -2.784   3.076  16.321  1.00  0.00    -0.263 N
ATOM      4  H2  UNL     1      -1.772   3.205  16.339  1.00  0.00     0.194 HD
HETATM    5  C3  UNL     1      -3.700   4.074  16.270  1.00  0.00     0.039 A
HETATM    6  C4  UNL     1      -3.463   5.544  16.230  1.00  0.00     0.071 C
HETATM    7  C5  UNL     1      -4.930   3.457  16.264  1.00  0.00     0.015 A
HETATM    8  C6  UNL     1      -6.252   4.124  16.214  1.00  0.00     0.055 C
ENDROOT
BRANCH   1   9
HETATM    9  N1  UNL     1      -5.652   1.224  16.317  1.00  0.00    -0.373 N
HETATM   10  C1  UNL     1      -6.139   0.617  17.537  1.00  0.00     0.148 C
ATOM     11  H1  UNL     1      -6.078   0.956  15.430  1.00  0.00     0.161 HD
ENDBRANCH   1   9
TORSDOF 1
ENDMDL