MODEL 1
REMARK VINA RESULT: -4.913185414      0.000      0.000
REMARK  2 active torsions:
REMARK  status: ('A' for Active; 'I' for Inactive)
REMARK    1  A    between atoms: C2_2  and  N1_3
REMARK    2  A    between atoms: N1_3  and  N3_7
ROOT
HETATM    1  N1  UNL     1      -2.379   4.380  15.816  1.00  0.00    -0.238 N
HETATM    2  N2  UNL     1      -2.501   3.388  16.585  1.00  0.00    -0.328 N
ATOM      3  H21 UNL     1      -1.873   2.596  16.454  1.00  0.00     0.178 HD
ATOM      4  H22 UNL     1      -3.224   3.424  17.303  1.00  0.00     0.178 HD
ENDROOT
BRANCH   1   5
HETATM    5  C2  UNL     1      -3.267   5.500  16.001  1.00  0.00     0.066 C
HETATM    6  C1  UNL     1      -4.493   5.242  15.157  1.00  0.00     0.042 C
HETATM    7  C3  UNL     1      -2.637   6.763  15.524  1.00  0.00     0.034 C
HETATM    8  C4  UNL     1      -1.951   7.374  16.727  1.00  0.00     0.003 C
HETATM    9  C5  UNL     1      -2.727   6.889  17.916  1.00  0.00     0.003 C
HETATM   10  C6  UNL     1      -3.601   5.753  17.446  1.00  0.00     0.034 C
ENDBRANCH   1   5
BRANCH   1  11
HETATM   11  N3  UNL     1      -1.393   4.331  14.836  1.00  0.00    -0.328 N
ATOM     12  H32 UNL     1      -1.082   5.211  14.424  1.00  0.00     0.178 HD
ATOM     13  H31 UNL     1      -0.965   3.466  14.508  1.00  0.00     0.178 HD
ENDBRANCH   1  11
TORSDOF 2
ENDMDL