MODEL 1
REMARK VINA RESULT: -4.712471164      0.000      0.000
REMARK  0 active torsions:
REMARK  status: ('A' for Active; 'I' for Inactive)
ROOT
HETATM    1  N1  UNL     1      -4.266   0.156  15.454  1.00  0.00    -0.380 N
ATOM      2  H11 UNL     1      -4.719  -0.750  15.583  1.00  0.00     0.158 HD
ATOM      3  H12 UNL     1      -3.532   0.372  14.780  1.00  0.00     0.158 HD
HETATM    4  C1  UNL     1      -4.690   1.090  16.237  1.00  0.00     0.133 C
HETATM    5  N2  UNL     1      -4.059   2.354  16.058  1.00  0.00    -0.371 N
ATOM      6  H2  UNL     1      -3.118   2.347  15.665  1.00  0.00     0.161 HD
HETATM    7  C2  UNL     1      -4.624   3.644  16.380  1.00  0.00     0.121 C
HETATM    8  C3  UNL     1      -5.767   3.572  17.331  1.00  0.00     0.020 C
HETATM    9  C4  UNL     1      -7.062   3.140  16.683  1.00  0.00     0.012 C
HETATM   10  C5  UNL     1      -7.438   1.718  17.079  1.00  0.00     0.082 C
HETATM   11  S1  UNL     1      -5.973   0.713  17.415  1.00  0.00    -0.095 SA
ENDROOT
TORSDOF 0
ENDMDL