MODEL 1
REMARK VINA RESULT: -5.122408049      0.000      0.000
REMARK  0 active torsions:
REMARK  status: ('A' for Active; 'I' for Inactive)
ROOT
HETATM    1  C1  UNL     1      -6.786   2.913  17.217  1.00  0.00     0.055 C
HETATM    2  C2  UNL     1      -5.826   2.256  16.303  1.00  0.00     0.020 A
HETATM    3  C3  UNL     1      -5.393   0.946  16.436  1.00  0.00     0.139 A
HETATM    4  N1  UNL     1      -5.788   0.026  17.449  1.00  0.00    -0.081 NA
HETATM    5  N2  UNL     1      -4.541   0.760  15.411  1.00  0.00    -0.286 N
ATOM      6  H2  UNL     1      -4.043  -0.109  15.219  1.00  0.00     0.188 HD
HETATM    7  N3  UNL     1      -4.440   1.863  14.687  1.00  0.00    -0.288 N
ATOM      8  H3  UNL     1      -3.854   1.968  13.859  1.00  0.00     0.188 HD
HETATM    9  C4  UNL     1      -5.232   2.836  15.209  1.00  0.00     0.124 A
HETATM   10  S1  UNL     1      -5.423   4.374  14.636  1.00  0.00    -0.058 SA
ENDROOT
TORSDOF 0
ENDMDL