MODEL 3
REMARK VINA RESULT: -4.840653816      2.481      3.237
REMARK  0 active torsions:
REMARK  status: ('A' for Active; 'I' for Inactive)
ROOT
HETATM    1  C1  UNL     1      -6.159   4.712  15.343  1.00  0.00     0.007 C
HETATM    2  C2  UNL     1      -5.324   3.824  14.435  1.00  0.00     0.045 C
HETATM    3  C3  UNL     1      -3.947   4.401  14.446  1.00  0.00     0.065 C
HETATM    4  N1  UNL     1      -3.365   4.442  15.707  1.00  0.00    -0.352 N
HETATM    5  C4  UNL     1      -1.994   4.717  15.818  1.00  0.00     0.178 C
HETATM    6  N2  UNL     1      -1.553   4.680  17.191  1.00  0.00    -0.386 N
ATOM      7  H2  UNL     1      -0.798   4.075  17.516  1.00  0.00     0.160 HD
HETATM    8  C5  UNL     1      -2.265   5.563  18.054  1.00  0.00     0.122 C
HETATM    9  C6  UNL     1      -3.673   5.848  17.599  1.00  0.00     0.045 C
HETATM   10  C7  UNL     1      -4.151   4.586  16.860  1.00  0.00     0.091 C
HETATM   11  C8  UNL     1      -5.607   4.600  16.719  1.00  0.00     0.026 C
ENDROOT
TORSDOF 0
ENDMDL