MODEL 2
REMARK VINA RESULT: -4.848593315      0.799      3.281
REMARK  0 active torsions:
REMARK  status: ('A' for Active; 'I' for Inactive)
ROOT
HETATM    1  C1  UNL     1      -6.255   3.624  17.926  1.00  0.00     0.002 C
HETATM    2  C2  UNL     1      -6.593   4.230  16.598  1.00  0.00     0.002 C
HETATM    3  C3  UNL     1      -5.306   4.744  15.963  1.00  0.00     0.027 C
HETATM    4  C4  UNL     1      -5.117   4.203  14.565  1.00  0.00     0.232 C
HETATM    5  N1  UNL     1      -4.149   3.133  14.504  1.00  0.00    -0.074 N
ATOM      6  H11 UNL     1      -3.503   3.183  15.292  1.00  0.00     0.277 HD
ATOM      7  H12 UNL     1      -3.493   3.282  13.737  1.00  0.00     0.277 HD
HETATM    8  C5  UNL     1      -4.748   1.826  14.417  1.00  0.00     0.259 C
HETATM    9  C6  UNL     1      -4.755   1.106  15.763  1.00  0.00     0.259 C
HETATM   10  N2  UNL     1      -6.068   1.207  16.340  1.00  0.00    -0.074 N
ATOM     11  H21 UNL     1      -6.679   0.478  15.971  1.00  0.00     0.277 HD
ATOM     12  H22 UNL     1      -6.552   2.032  15.987  1.00  0.00     0.277 HD
HETATM   13  C7  UNL     1      -6.078   1.193  17.775  1.00  0.00     0.232 C
HETATM   14  C8  UNL     1      -6.988   2.348  18.214  1.00  0.00     0.027 C
ENDROOT
TORSDOF 0
ENDMDL