MODEL 3
REMARK VINA RESULT: -5.555815582      2.026      3.108
REMARK  2 active torsions:
REMARK  status: ('A' for Active; 'I' for Inactive)
REMARK    1  A    between atoms: N2_3  and  C2_5
REMARK    2  A    between atoms: C2_5  and  C3_9
ROOT
HETATM    1  N1  UNL     1      -4.430  -0.167  15.050  1.00  0.00    -0.172 NA
HETATM    2  C1  UNL     1      -4.764   0.634  15.828  1.00  0.00     0.183 C
HETATM    3  N2  UNL     1      -5.186   1.599  16.749  1.00  0.00    -0.283 N
ATOM      4  H2  UNL     1      -4.522   1.907  17.460  1.00  0.00     0.179 HD
ENDROOT
BRANCH   3   5
HETATM    5  C2  UNL     1      -6.485   2.174  16.750  1.00  0.00     0.087 C
HETATM    6  N3  UNL     1      -7.466   1.428  17.119  1.00  0.00    -0.388 N
ATOM      7  H32 UNL     1      -7.382   0.454  17.411  1.00  0.00     0.157 HD
ATOM      8  H31 UNL     1      -8.399   1.841  17.120  1.00  0.00     0.157 HD
BRANCH   5   9
HETATM    9  C3  UNL     1      -6.607   3.578  16.329  1.00  0.00     0.053 C
HETATM   10  C4  UNL     1      -5.467   4.346  17.012  1.00  0.00     0.012 C
HETATM   11  C5  UNL     1      -5.126   5.477  16.057  1.00  0.00     0.001 C
HETATM   12  C6  UNL     1      -6.131   5.343  14.919  1.00  0.00     0.001 C
HETATM   13  C7  UNL     1      -6.302   3.819  14.885  1.00  0.00     0.012 C
ENDBRANCH   5   9
ENDBRANCH   3   5
TORSDOF 2
ENDMDL