MODEL 1
REMARK VINA RESULT: -5.851382596      0.000      0.000
REMARK  1 active torsions:
REMARK  status: ('A' for Active; 'I' for Inactive)
REMARK    1  A    between atoms: O1_1  and  N1_3
ROOT
HETATM    1  N1  UNL     1      -4.753   1.466  16.670  1.00  0.00    -0.190 NA
HETATM    2  C1  UNL     1      -5.891   0.773  17.192  1.00  0.00     0.121 C
HETATM    3  C2  UNL     1      -6.729   1.648  18.096  1.00  0.00     0.017 C
HETATM    4  C3  UNL     1      -6.864   3.054  17.592  1.00  0.00     0.003 C
HETATM    5  C4  UNL     1      -6.395   3.225  16.176  1.00  0.00     0.027 C
HETATM    6  C5  UNL     1      -5.052   2.627  15.905  1.00  0.00     0.038 C
HETATM    7  C6  UNL     1      -3.887   3.577  15.871  1.00  0.00     0.027 C
HETATM    8  C7  UNL     1      -3.976   3.677  14.376  1.00  0.00     0.004 C
HETATM    9  C8  UNL     1      -4.873   2.461  14.389  1.00  0.00     0.027 C
ENDROOT
BRANCH   1  10
HETATM   10  O1  UNL     1      -3.952   0.630  16.011  1.00  0.00    -0.312 OA
ATOM     11  H1  UNL     1      -4.100   0.690  15.075  1.00  0.00     0.237 HD
ENDBRANCH   1  10
TORSDOF 1
ENDMDL