MODEL 2
REMARK VINA RESULT: -6.205279028      2.044      3.451
REMARK  0 active torsions:
REMARK  status: ('A' for Active; 'I' for Inactive)
ROOT
HETATM    1  N1  UNL     1      -5.756  -0.024  17.123  1.00  0.00    -0.195 NA
HETATM    2  C1  UNL     1      -5.405   1.031  16.797  1.00  0.00     0.082 C
HETATM    3  C2  UNL     1      -4.951   2.382  16.393  1.00  0.00     0.201 C
HETATM    4  C3  UNL     1      -5.454   2.770  15.042  1.00  0.00     0.037 C
HETATM    5  C4  UNL     1      -6.192   4.044  14.970  1.00  0.00     0.003 C
HETATM    6  C5  UNL     1      -5.720   5.138  15.861  1.00  0.00     0.001 C
HETATM    7  C6  UNL     1      -4.279   5.487  15.716  1.00  0.00     0.017 C
HETATM    8  C7  UNL     1      -3.348   4.657  16.537  1.00  0.00     0.130 C
HETATM    9  N2  UNL     1      -2.910   3.464  15.870  1.00  0.00    -0.147 NA
HETATM   10  N3  UNL     1      -3.505   2.308  16.347  1.00  0.00    -0.129 NA
ENDROOT
TORSDOF 0
ENDMDL