MODEL 4
REMARK VINA RESULT: -4.845900876      1.502      2.559
REMARK  0 active torsions:
REMARK  status: ('A' for Active; 'I' for Inactive)
ROOT
HETATM    1  C1  UNL     1      -6.770   2.377  18.500  1.00  0.00     0.089 C
HETATM    2  C2  UNL     1      -6.080   2.681  17.211  1.00  0.00     0.074 A
HETATM    3  N1  UNL     1      -5.939   3.873  16.763  1.00  0.00    -0.371 N
ATOM      4  H1  UNL     1      -6.328   4.622  17.336  1.00  0.00     0.161 HD
HETATM    5  C3  UNL     1      -5.302   4.265  15.555  1.00  0.00     0.030 A
HETATM    6  C4  UNL     1      -4.198   5.263  15.934  1.00  0.00     0.038 C
HETATM    7  C5  UNL     1      -6.330   5.012  14.692  1.00  0.00     0.038 C
HETATM    8  C6  UNL     1      -4.728   3.182  14.719  1.00  0.00     0.106 A
HETATM    9  C7  UNL     1      -4.910   1.830  15.251  1.00  0.00     0.078 A
HETATM   10  N2  UNL     1      -4.450   0.835  14.575  1.00  0.00    -0.389 N
ATOM     11  H21 UNL     1      -4.576  -0.107  14.946  1.00  0.00     0.157 HD
ATOM     12  H22 UNL     1      -3.974   1.017  13.692  1.00  0.00     0.157 HD
HETATM   13  N3  UNL     1      -5.574   1.575  16.484  1.00  0.00    -0.336 N
ATOM     14  H3  UNL     1      -5.681   0.623  16.834  1.00  0.00     0.168 HD
ENDROOT
TORSDOF 0
ENDMDL