MODEL 4
REMARK VINA RESULT: -4.927916245      1.772      2.309
REMARK  1 active torsions:
REMARK  status: ('A' for Active; 'I' for Inactive)
REMARK    1  A    between atoms: N1_5  and  N2_7
ROOT
HETATM    1  C1  UNL     1      -3.447   4.142  14.887  1.00  0.00     0.038 C
HETATM    2  C2  UNL     1      -4.532   3.825  15.544  1.00  0.00     0.000 C
HETATM    3  C3  UNL     1      -5.383   2.714  14.982  1.00  0.00     0.109 C
HETATM    4  C4  UNL     1      -5.862   1.932  16.152  1.00  0.00     0.009 C
HETATM    5  N1  UNL     1      -5.269   0.844  16.445  1.00  0.00    -0.315 N
ATOM      6  H1  UNL     1      -5.569   0.281  17.241  1.00  0.00     0.185 HD
HETATM    7  C5  UNL     1      -7.004   2.331  17.027  1.00  0.00     0.056 C
HETATM    8  C6  UNL     1      -6.971   3.829  17.249  1.00  0.00     0.025 C
HETATM    9  C7  UNL     1      -5.610   4.169  17.829  1.00  0.00     0.119 C
HETATM   10  N3  UNL     1      -4.768   4.583  16.723  1.00  0.00    -0.393 N
ATOM     11  H3  UNL     1      -4.307   5.490  16.798  1.00  0.00     0.159 HD
ENDROOT
BRANCH   5  12
HETATM   12  N2  UNL     1      -4.196   0.443  15.644  1.00  0.00    -0.345 N
ATOM     13  H22 UNL     1      -3.299   0.209  16.072  1.00  0.00     0.176 HD
ATOM     14  H21 UNL     1      -4.340   0.394  14.635  1.00  0.00     0.176 HD
ENDBRANCH   5  12
TORSDOF 1
ENDMDL