MODEL 5
REMARK VINA RESULT: -8.315579062      5.411      9.835
REMARK  15 active torsions:
REMARK  status: ('A' for Active; 'I' for Inactive)
REMARK    1  A    between atoms: C2_2  and  C3_3
REMARK    2  A    between atoms: C3_3  and  N1_4
REMARK    3  A    between atoms: N1_4  and  C4_5
REMARK    4  A    between atoms: N1_4  and  C7_10
REMARK    5  A    between atoms: C4_5  and  C5_6
REMARK    6  A    between atoms: C5_6  and  C6_7
REMARK    7  A    between atoms: C6_7  and  O1_8
REMARK    8  A    between atoms: C7_10  and  C8_11
REMARK    9  A    between atoms: C8_11  and  C9_12
REMARK   10  A    between atoms: C9_12  and  N2_13
REMARK   11  A    between atoms: N2_13  and  C10_16
REMARK   12  A    between atoms: C10_16  and  C11_17
REMARK   13  A    between atoms: C16_24  and  C17_25
REMARK   14  A    between atoms: C18_26  and  C19_27
REMARK   15  A    between atoms: C25_39  and  O4_40
ROOT
HETATM    1  C11 UNL     1      51.756  18.035  -5.325  1.00  0.00     0.070 A
HETATM    2  N3  UNL     1      51.071  17.158  -6.081  1.00  0.00    -0.355 N
ATOM      3  H3  UNL     1      50.863  16.197  -5.808  1.00  0.00     0.166 HD
HETATM    4  C12 UNL     1      50.697  17.717  -7.244  1.00  0.00     0.046 A
HETATM    5  C13 UNL     1      49.995  17.301  -8.360  1.00  0.00     0.038 A
HETATM    6  C14 UNL     1      49.738  18.098  -9.449  1.00  0.00    -0.050 A
HETATM    7  C15 UNL     1      48.977  17.598 -10.634  1.00  0.00     0.049 C
HETATM    8  C16 UNL     1      50.207  19.416  -9.453  1.00  0.00    -0.029 A
HETATM    9  C23 UNL     1      50.907  19.860  -8.358  1.00  0.00     0.028 A
HETATM   10  C24 UNL     1      51.145  19.026  -7.279  1.00  0.00     0.027 A
HETATM   11  C25 UNL     1      51.805  19.200  -6.066  1.00  0.00     0.102 A
ENDROOT
BRANCH   1  12
HETATM   12  C10 UNL     1      52.354  17.815  -3.957  1.00  0.00     0.292 C
BRANCH  12  13
HETATM   13  N2  UNL     1      51.705  18.628  -2.975  1.00  0.00    -0.070 N
ATOM     14  H22 UNL     1      50.717  18.756  -3.196  1.00  0.00     0.277 HD
ATOM     15  H21 UNL     1      52.011  19.599  -3.038  1.00  0.00     0.277 HD
BRANCH  13  16
HETATM   16  C9  UNL     1      51.877  18.119  -1.659  1.00  0.00     0.234 C
BRANCH  16  17
HETATM   17  C8  UNL     1      52.809  16.941  -1.649  1.00  0.00     0.057 C
BRANCH  17  18
HETATM   18  C7  UNL     1      52.106  15.756  -0.987  1.00  0.00     0.274 C
BRANCH  18  19
HETATM   19  N1  UNL     1      52.681  14.545  -1.497  1.00  0.00     0.088 N
BRANCH  19  20
HETATM   20  C3  UNL     1      53.284  14.687  -2.785  1.00  0.00     0.272 C
BRANCH  20  21
HETATM   21  C2  UNL     1      52.449  14.146  -3.910  1.00  0.00     0.026 C
HETATM   22  C1  UNL     1      53.367  13.437  -4.895  1.00  0.00     0.007 C
ENDBRANCH  20  21
ENDBRANCH  19  20
BRANCH  19  23
HETATM   23  C4  UNL     1      51.874  13.386  -1.329  1.00  0.00     0.274 C
BRANCH  23  24
HETATM   24  C5  UNL     1      52.658  12.253  -0.753  1.00  0.00     0.056 C
BRANCH  24  25
HETATM   25  C6  UNL     1      51.785  11.048  -0.446  1.00  0.00     0.165 C
BRANCH  25  26
HETATM   26  O1  UNL     1      50.478  11.514  -0.302  1.00  0.00    -0.401 OA
ATOM     27  H1  UNL     1      50.182  11.789  -1.162  1.00  0.00     0.209 HD
ENDBRANCH  25  26
ENDBRANCH  24  25
ENDBRANCH  23  24
ENDBRANCH  19  23
ENDBRANCH  18  19
ENDBRANCH  17  18
ENDBRANCH  16  17
ENDBRANCH  13  16
ENDBRANCH  12  13
ENDBRANCH   1  12
BRANCH  11  28
HETATM   28  O4  UNL     1      52.428  20.365  -5.642  1.00  0.00    -0.358 OA
ATOM     29  H4  UNL     1      52.294  20.758  -4.787  1.00  0.00     0.217 HD
ENDBRANCH  11  28
BRANCH   8  30
HETATM   30  C17 UNL     1      49.927  20.266 -10.605  1.00  0.00     0.014 C
HETATM   31  C18 UNL     1      50.846  20.870 -11.297  1.00  0.00     0.030 C
BRANCH  31  32
HETATM   32  C19 UNL     1      50.515  21.706 -12.435  1.00  0.00     0.041 A
HETATM   33  C20 UNL     1      49.291  22.302 -12.621  1.00  0.00     0.104 A
HETATM   34  C21 UNL     1      49.058  23.093 -13.748  1.00  0.00     0.251 A
HETATM   35  O2  UNL     1      47.927  23.632 -13.904  1.00  0.00    -0.268 OA
HETATM   36  N4  UNL     1      50.033  23.267 -14.647  1.00  0.00    -0.275 N
HETATM   37  C22 UNL     1      51.231  22.684 -14.465  1.00  0.00     0.327 A
ATOM     38  H4  UNL     1      49.867  23.843 -15.471  1.00  0.00     0.173 HD
HETATM   39  O3  UNL     1      52.156  22.852 -15.324  1.00  0.00    -0.247 OA
HETATM   40  N5  UNL     1      51.447  21.933 -13.391  1.00  0.00    -0.308 N
ATOM     41  H5  UNL     1      52.365  21.504 -13.280  1.00  0.00     0.170 HD
ENDBRANCH  31  32
ENDBRANCH   8  30
TORSDOF 15
ENDMDL