MODEL 1
REMARK VINA RESULT: -7.661219478      0.000      0.000
REMARK  19 active torsions:
REMARK  status: ('A' for Active; 'I' for Inactive)
REMARK    1  A    between atoms: N1_1  and  C1_4
REMARK    2  A    between atoms: N4_12  and  C5_13
REMARK    3  A    between atoms: C8_16  and  O1_17
REMARK    4  A    between atoms: C10_20  and  N5_21
REMARK    5  A    between atoms: N5_21  and  C11_23
REMARK    6  A    between atoms: C11_23  and  C12_24
REMARK    7  A    between atoms: C12_24  and  C13_25
REMARK    8  A    between atoms: C13_25  and  C14_26
REMARK    9  A    between atoms: C14_26  and  C15_27
REMARK   10  A    between atoms: C15_27  and  C16_28
REMARK   11  A    between atoms: C16_28  and  C17_29
REMARK   12  A    between atoms: C17_29  and  C18_30
REMARK   13  A    between atoms: C18_30  and  C19_31
REMARK   14  A    between atoms: C19_31  and  N6_32
REMARK   15  A    between atoms: N6_32  and  C20_34
REMARK   16  A    between atoms: C20_34  and  N7_36
REMARK   17  A    between atoms: N7_36  and  C21_38
REMARK   18  A    between atoms: C21_38  and  C22_39
REMARK   19  A    between atoms: C22_39  and  O2_40
ROOT
HETATM    1  C1  UNL     1      50.729  19.464  -7.277  1.00  0.00     0.225 A
HETATM    2  N2  UNL     1      50.846  20.188  -8.397  1.00  0.00    -0.306 N
ATOM      3  H2  UNL     1      51.385  21.054  -8.407  1.00  0.00     0.171 HD
HETATM    4  C2  UNL     1      50.236  19.745  -9.504  1.00  0.00     0.143 A
HETATM    5  C3  UNL     1      49.509  18.546  -9.424  1.00  0.00     0.130 A
HETATM    6  N3  UNL     1      49.028  18.357 -10.635  1.00  0.00    -0.346 N
ATOM      7  H3  UNL     1      48.448  17.566 -10.914  1.00  0.00     0.167 HD
HETATM    8  C4  UNL     1      49.405  19.349 -11.445  1.00  0.00     0.185 A
HETATM    9  N4  UNL     1      50.174  20.236 -10.737  1.00  0.00    -0.322 N
HETATM   10  C10 UNL     1      49.419  17.839  -8.249  1.00  0.00     0.181 A
HETATM   11  O3  UNL     1      50.056  18.360  -7.210  1.00  0.00    -0.260 OA
ENDROOT
BRANCH  10  12
HETATM   12  N5  UNL     1      48.803  16.768  -8.065  1.00  0.00    -0.348 N
ATOM     13  H5  UNL     1      49.310  15.955  -8.416  1.00  0.00     0.167 HD
BRANCH  12  14
HETATM   14  C11 UNL     1      47.566  16.431  -7.484  1.00  0.00     0.063 C
BRANCH  14  15
HETATM   15  C12 UNL     1      46.366  16.902  -8.282  1.00  0.00     0.044 C
BRANCH  15  16
HETATM   16  C13 UNL     1      45.197  16.010  -8.255  1.00  0.00     0.005 C
BRANCH  16  17
HETATM   17  C14 UNL     1      43.824  16.536  -8.146  1.00  0.00     0.000 C
BRANCH  17  18
HETATM   18  C15 UNL     1      42.862  16.330  -9.247  1.00  0.00     0.000 C
BRANCH  18  19
HETATM   19  C16 UNL     1      41.771  17.306  -9.487  1.00  0.00     0.000 C
BRANCH  19  20
HETATM   20  C17 UNL     1      41.941  17.993 -10.853  1.00  0.00     0.002 C
BRANCH  20  21
HETATM   21  C18 UNL     1      42.443  19.392 -10.743  1.00  0.00     0.020 C
BRANCH  21  22
HETATM   22  C19 UNL     1      43.947  19.393 -10.943  1.00  0.00     0.122 C
BRANCH  22  23
HETATM   23  N6  UNL     1      44.394  20.557 -11.665  1.00  0.00    -0.367 N
ATOM     24  H6  UNL     1      44.001  21.475 -11.453  1.00  0.00     0.161 HD
BRANCH  23  25
HETATM   25  C20 UNL     1      45.387  20.419 -12.676  1.00  0.00     0.167 C
HETATM   26  S1  UNL     1      45.944  18.937 -13.060  1.00  0.00    -0.041 SA
BRANCH  25  27
HETATM   27  N7  UNL     1      45.877  21.546 -13.355  1.00  0.00    -0.365 N
ATOM     28  H7  UNL     1      45.275  22.012 -14.034  1.00  0.00     0.161 HD
BRANCH  27  29
HETATM   29  C21 UNL     1      47.195  22.066 -13.125  1.00  0.00     0.148 C
BRANCH  29  30
HETATM   30  C22 UNL     1      47.364  23.513 -13.477  1.00  0.00     0.183 C
BRANCH  30  31
HETATM   31  O2  UNL     1      48.080  23.572 -14.697  1.00  0.00    -0.399 OA
ATOM     32  H2  UNL     1      47.443  23.574 -15.401  1.00  0.00     0.209 HD
ENDBRANCH  30  31
ENDBRANCH  29  30
ENDBRANCH  27  29
ENDBRANCH  25  27
ENDBRANCH  23  25
ENDBRANCH  22  23
ENDBRANCH  21  22
ENDBRANCH  20  21
ENDBRANCH  19  20
ENDBRANCH  18  19
ENDBRANCH  17  18
ENDBRANCH  16  17
ENDBRANCH  15  16
ENDBRANCH  14  15
ENDBRANCH  12  14
ENDBRANCH  10  12
BRANCH   1  33
HETATM   33  N1  UNL     1      51.321  19.891  -6.195  1.00  0.00    -0.365 N
ATOM     34  H12 UNL     1      52.195  19.445  -5.916  1.00  0.00     0.159 HD
ATOM     35  H11 UNL     1      50.888  20.652  -5.670  1.00  0.00     0.159 HD
ENDBRANCH   1  33
BRANCH   9  36
HETATM   36  C5  UNL     1      50.701  21.370 -11.349  1.00  0.00     0.095 C
HETATM   37  C6  UNL     1      50.176  22.704 -11.185  1.00  0.00     0.028 C
HETATM   38  C7  UNL     1      51.175  23.518 -12.035  1.00  0.00     0.034 C
HETATM   39  C8  UNL     1      51.371  22.611 -13.239  1.00  0.00     0.120 C
HETATM   40  C9  UNL     1      50.756  21.266 -12.887  1.00  0.00     0.057 C
BRANCH  39  41
HETATM   41  O1  UNL     1      50.852  23.150 -14.395  1.00  0.00    -0.396 OA
ATOM     42  H1  UNL     1      50.578  22.485 -15.016  1.00  0.00     0.210 HD
ENDBRANCH  39  41
ENDBRANCH   9  36
TORSDOF 19
ENDMDL