MODEL 3
REMARK VINA RESULT: -8.277453888      0.955      1.445
REMARK  18 active torsions:
REMARK  status: ('A' for Active; 'I' for Inactive)
REMARK    1  A    between atoms: C2_2  and  N1_3
REMARK    2  A    between atoms: N1_3  and  C3_4
REMARK    3  A    between atoms: N1_3  and  C12_13
REMARK    4  A    between atoms: C3_4  and  C4_5
REMARK    5  A    between atoms: C4_5  and  C5_6
REMARK    6  A    between atoms: C12_13  and  C13_14
REMARK    7  A    between atoms: C13_14  and  C14_15
REMARK    8  A    between atoms: C14_15  and  C16_17
REMARK    9  A    between atoms: N2_18  and  C17_20
REMARK   10  A    between atoms: C17_20  and  C18_21
REMARK   11  A    between atoms: C17_20  and  C19_24
REMARK   12  A    between atoms: C18_21  and  O1_22
REMARK   13  A    between atoms: C19_24  and  C20_25
REMARK   14  A    between atoms: C22_27  and  O2_28
REMARK   15  A    between atoms: C23_30  and  O3_31
REMARK   16  A    between atoms: C24_33  and  O4_34
REMARK   17  A    between atoms: C25_36  and  C26_37
REMARK   18  A    between atoms: C26_37  and  O5_38
ROOT
HETATM    1  C17 UNL     1      49.420  19.745 -16.351  1.00  0.00     0.010 C
ENDROOT
BRANCH   1   2
HETATM    2  N2  UNL     1      48.327  18.976 -16.001  1.00  0.00    -0.374 N
HETATM    3  C16 UNL     1      48.039  18.073 -15.037  1.00  0.00     0.065 C
ATOM      4  H2  UNL     1      47.537  19.130 -16.627  1.00  0.00     0.164 HD
BRANCH   3   5
HETATM    5  C14 UNL     1      48.503  16.687 -14.882  1.00  0.00     0.021 C
HETATM    6  C15 UNL     1      49.639  16.174 -15.698  1.00  0.00     0.015 C
BRANCH   5   7
HETATM    7  C13 UNL     1      48.814  16.392 -13.384  1.00  0.00     0.029 C
BRANCH   7   8
HETATM    8  C12 UNL     1      48.173  17.383 -12.474  1.00  0.00     0.117 C
BRANCH   8   9
HETATM    9  N1  UNL     1      48.783  17.362 -11.193  1.00  0.00    -0.412 N
BRANCH   9  10
HETATM   10  C2  UNL     1      49.070  16.048 -10.676  1.00  0.00     0.112 C
HETATM   11  C1  UNL     1      49.848  16.223  -9.372  1.00  0.00     0.026 C
ENDBRANCH   9  10
BRANCH   9  12
HETATM   12  C3  UNL     1      48.291  18.258 -10.205  1.00  0.00     0.120 C
BRANCH  12  13
HETATM   13  C4  UNL     1      46.926  18.834 -10.528  1.00  0.00     0.047 C
BRANCH  13  14
HETATM   14  C5  UNL     1      45.849  18.034  -9.855  1.00  0.00    -0.022 C
HETATM   15  C6  UNL     1      44.569  18.144 -10.160  1.00  0.00    -0.084 C
HETATM   16  C7  UNL     1      43.982  19.027 -11.167  1.00  0.00     0.034 C
HETATM   17  C11 UNL     1      43.596  17.275  -9.397  1.00  0.00     0.034 C
HETATM   18  C8  UNL     1      42.577  19.501 -10.841  1.00  0.00     0.004 C
HETATM   19  C9  UNL     1      41.670  18.448 -10.321  1.00  0.00     0.001 C
HETATM   20  C10 UNL     1      42.334  17.110 -10.217  1.00  0.00     0.004 C
ENDBRANCH  13  14
ENDBRANCH  12  13
ENDBRANCH   9  12
ENDBRANCH   8   9
ENDBRANCH   7   8
ENDBRANCH   5   7
ENDBRANCH   3   5
ENDBRANCH   1   2
BRANCH   1  21
HETATM   21  C18 UNL     1      49.909  19.798 -17.719  1.00  0.00     0.216 C
BRANCH  21  22
HETATM   22  O1  UNL     1      51.070  20.673 -17.738  1.00  0.00    -0.395 OA
ATOM     23  H1  UNL     1      51.845  20.123 -17.732  1.00  0.00     0.209 HD
ENDBRANCH  21  22
ENDBRANCH   1  21
BRANCH   1  24
HETATM   24  C19 UNL     1      49.501  21.052 -15.570  1.00  0.00     0.060 C
BRANCH  24  25
HETATM   25  C20 UNL     1      50.268  21.056 -14.312  1.00  0.00     0.002 C
HETATM   26  C21 UNL     1      49.528  20.646 -13.098  1.00  0.00     0.039 C
HETATM   27  C22 UNL     1      49.585  21.607 -11.923  1.00  0.00     0.149 C
HETATM   28  C23 UNL     1      50.961  22.081 -11.583  1.00  0.00     0.176 C
HETATM   29  C24 UNL     1      51.786  22.289 -12.837  1.00  0.00     0.155 C
HETATM   30  C25 UNL     1      50.864  22.444 -14.030  1.00  0.00     0.045 C
BRANCH  27  31
HETATM   31  O2  UNL     1      48.681  22.656 -12.028  1.00  0.00    -0.393 OA
ATOM     32  H2  UNL     1      49.098  23.497 -12.176  1.00  0.00     0.210 HD
ENDBRANCH  27  31
BRANCH  28  33
HETATM   33  O3  UNL     1      51.587  21.296 -10.630  1.00  0.00    -0.390 OA
ATOM     34  H3  UNL     1      52.486  21.557 -10.463  1.00  0.00     0.210 HD
ENDBRANCH  28  33
BRANCH  29  35
HETATM   35  O4  UNL     1      52.591  23.415 -12.742  1.00  0.00    -0.392 OA
ATOM     36  H4  UNL     1      52.750  23.807 -13.593  1.00  0.00     0.210 HD
ENDBRANCH  29  35
BRANCH  30  37
HETATM   37  C26 UNL     1      51.755  22.891 -15.169  1.00  0.00     0.171 C
BRANCH  37  38
HETATM   38  O5  UNL     1      52.765  22.002 -15.462  1.00  0.00    -0.400 OA
ATOM     39  H5  UNL     1      52.956  21.932 -16.390  1.00  0.00     0.209 HD
ENDBRANCH  37  38
ENDBRANCH  30  37
ENDBRANCH  24  25
ENDBRANCH   1  24
TORSDOF 18
ENDMDL