MODEL 4
REMARK VINA RESULT: -7.596882531      2.642      5.290
REMARK  17 active torsions:
REMARK  status: ('A' for Active; 'I' for Inactive)
REMARK    1  A    between atoms: C1_2  and  C2_3
REMARK    2  A    between atoms: C1_2  and  N6_37
REMARK    3  A    between atoms: C2_3  and  C3_4
REMARK    4  A    between atoms: C3_4  and  C4_5
REMARK    5  A    between atoms: C4_5  and  C5_6
REMARK    6  A    between atoms: C5_6  and  C6_7
REMARK    7  A    between atoms: C6_7  and  C7_8
REMARK    8  A    between atoms: C7_8  and  C8_9
REMARK    9  A    between atoms: C8_9  and  C9_10
REMARK   10  A    between atoms: C9_10  and  N2_11
REMARK   11  A    between atoms: N2_11  and  C10_14
REMARK   12  A    between atoms: C10_14  and  C11_15
REMARK   13  A    between atoms: C11_15  and  C12_16
REMARK   14  A    between atoms: C13_18  and  C14_19
REMARK   15  A    between atoms: C14_19  and  O2_20
REMARK   16  A    between atoms: C15_22  and  N3_23
REMARK   17  A    between atoms: C20_34  and  O4_35
ROOT
HETATM    1  C12 UNL     1      47.234  19.512 -11.374  1.00  0.00     0.154 C
HETATM    2  O1  UNL     1      46.283  20.177 -12.130  1.00  0.00    -0.374 OA
HETATM    3  C13 UNL     1      46.976  20.797 -13.202  1.00  0.00     0.171 C
HETATM    4  C15 UNL     1      48.410  20.577 -12.946  1.00  0.00     0.156 C
HETATM    5  C20 UNL     1      48.436  20.434 -11.460  1.00  0.00     0.173 C
ENDROOT
BRANCH   1   6
HETATM    6  C11 UNL     1      46.902  19.101 -10.048  1.00  0.00     0.062 C
BRANCH   6   7
HETATM    7  C10 UNL     1      47.265  17.847  -9.370  1.00  0.00     0.235 C
BRANCH   7   8
HETATM    8  N2  UNL     1      46.321  16.781  -9.570  1.00  0.00    -0.075 N
ATOM      9  H22 UNL     1      46.762  15.867  -9.470  1.00  0.00     0.277 HD
ATOM     10  H21 UNL     1      46.037  16.712 -10.547  1.00  0.00     0.277 HD
BRANCH   8  11
HETATM   11  C9  UNL     1      45.173  16.919  -8.688  1.00  0.00     0.232 C
BRANCH  11  12
HETATM   12  C8  UNL     1      43.940  16.451  -9.366  1.00  0.00     0.027 C
BRANCH  12  13
HETATM   13  C7  UNL     1      43.044  17.656  -9.646  1.00  0.00     0.002 C
BRANCH  13  14
HETATM   14  C6  UNL     1      43.379  18.183 -11.046  1.00  0.00     0.000 C
BRANCH  14  15
HETATM   15  C5  UNL     1      43.479  17.031 -12.017  1.00  0.00     0.000 C
BRANCH  15  16
HETATM   16  C4  UNL     1      44.562  17.232 -13.040  1.00  0.00     0.000 C
BRANCH  16  17
HETATM   17  C3  UNL     1      44.685  15.977 -13.864  1.00  0.00     0.007 C
BRANCH  17  18
HETATM   18  C2  UNL     1      45.627  14.977 -13.243  1.00  0.00     0.073 C
BRANCH  18  19
HETATM   19  C1  UNL     1      47.003  15.341 -13.210  1.00  0.00     0.091 C
HETATM   20  N1  UNL     1      47.793  15.462 -11.968  1.00  0.00    -0.088 NA
BRANCH  19  21
HETATM   21  N6  UNL     1      47.814  15.800 -14.267  1.00  0.00    -0.373 N
HETATM   22  C21 UNL     1      48.548  15.091 -15.261  1.00  0.00     0.123 C
HETATM   23  C22 UNL     1      49.579  16.091 -15.770  1.00  0.00     0.021 C
HETATM   24  C23 UNL     1      49.086  17.444 -15.376  1.00  0.00     0.021 C
HETATM   25  C24 UNL     1      48.039  17.268 -14.361  1.00  0.00     0.123 C
ENDBRANCH  19  21
ENDBRANCH  18  19
ENDBRANCH  17  18
ENDBRANCH  16  17
ENDBRANCH  15  16
ENDBRANCH  14  15
ENDBRANCH  13  14
ENDBRANCH  12  13
ENDBRANCH  11  12
ENDBRANCH   8  11
ENDBRANCH   7   8
ENDBRANCH   6   7
ENDBRANCH   1   6
BRANCH   5  26
HETATM   26  O4  UNL     1      49.584  19.681 -11.092  1.00  0.00    -0.391 OA
ATOM     27  H4  UNL     1      50.315  20.284 -11.025  1.00  0.00     0.210 HD
ENDBRANCH   5  26
BRANCH   3  28
HETATM   28  C14 UNL     1      46.504  22.206 -13.161  1.00  0.00     0.198 C
BRANCH  28  29
HETATM   29  O2  UNL     1      45.381  22.511 -13.937  1.00  0.00    -0.398 OA
ATOM     30  H2  UNL     1      44.550  22.567 -13.478  1.00  0.00     0.209 HD
ENDBRANCH  28  29
ENDBRANCH   3  28
BRANCH   4  31
HETATM   31  N3  UNL     1      49.390  21.353 -13.616  1.00  0.00    -0.300 N
HETATM   32  C16 UNL     1      49.666  20.954 -14.908  1.00  0.00     0.100 A
HETATM   33  C17 UNL     1      50.584  21.613 -15.665  1.00  0.00     0.065 A
HETATM   34  C18 UNL     1      51.305  22.695 -15.155  1.00  0.00     0.103 A
HETATM   35  N4  UNL     1      52.108  23.354 -15.762  1.00  0.00    -0.385 N
HETATM   36  N5  UNL     1      51.031  23.077 -13.866  1.00  0.00    -0.295 N
ATOM     37  H42 UNL     1      52.311  23.068 -16.721  1.00  0.00     0.157 HD
ATOM     38  H41 UNL     1      52.635  24.144 -15.389  1.00  0.00     0.157 HD
HETATM   39  C19 UNL     1      50.094  22.398 -13.152  1.00  0.00     0.328 A
ATOM     40  H5  UNL     1      51.526  23.864 -13.447  1.00  0.00     0.172 HD
HETATM   41  O3  UNL     1      49.840  22.735 -11.976  1.00  0.00    -0.246 OA
ENDBRANCH   4  31
TORSDOF 17
ENDMDL