MODEL 1
REMARK VINA RESULT: -8.681053764      0.000      0.000
REMARK  15 active torsions:
REMARK  status: ('A' for Active; 'I' for Inactive)
REMARK    1  A    between atoms: N1_1  and  C1_5
REMARK    2  A    between atoms: C1_5  and  C2_6
REMARK    3  A    between atoms: C2_6  and  C3_7
REMARK    4  A    between atoms: C3_7  and  C4_8
REMARK    5  A    between atoms: C4_8  and  N2_9
REMARK    6  A    between atoms: N2_9  and  C5_11
REMARK    7  A    between atoms: C6_14  and  C7_15
REMARK       I    between atoms: C7_15  and  N4_17
REMARK    8  A    between atoms: N4_17  and  C8_19
REMARK    9  A    between atoms: C11_22  and  N5_23
REMARK   10  A    between atoms: N5_23  and  C12_25
REMARK   11  A    between atoms: C12_25  and  C13_26
REMARK   12  A    between atoms: C13_26  and  C14_27
REMARK   13  A    between atoms: C14_27  and  C15_28
REMARK   14  A    between atoms: C15_28  and  C16_29
REMARK   15  A    between atoms: C16_29  and  C17_30
ROOT
HETATM    1  C5  UNL     1      51.683  19.048  -5.622  1.00  0.00     0.147 A
HETATM    2  N3  UNL     1      51.339  19.981  -6.502  1.00  0.00    -0.330 N
ATOM      3  H3  UNL     1      51.458  20.969  -6.278  1.00  0.00     0.168 HD
HETATM    4  C6  UNL     1      50.846  19.619  -7.663  1.00  0.00     0.136 A
HETATM    5  C11 UNL     1      50.714  18.276  -7.897  1.00  0.00     0.106 A
HETATM    6  S1  UNL     1      51.311  17.601  -6.428  1.00  0.00    -0.034 SA
ENDROOT
BRANCH   5   7
HETATM    7  N5  UNL     1      50.189  17.560  -9.024  1.00  0.00    -0.382 N
ATOM      8  H5  UNL     1      50.802  17.117  -9.708  1.00  0.00     0.160 HD
BRANCH   7   9
HETATM    9  C12 UNL     1      48.716  17.494  -9.145  1.00  0.00     0.120 C
BRANCH   9  10
HETATM   10  C13 UNL     1      48.320  18.113 -10.481  1.00  0.00     0.020 C
BRANCH  10  11
HETATM   11  C14 UNL     1      47.279  19.173 -10.163  1.00  0.00     0.002 C
BRANCH  11  12
HETATM   12  C15 UNL     1      46.821  19.910 -11.374  1.00  0.00     0.005 C
BRANCH  12  13
HETATM   13  C16 UNL     1      45.398  19.613 -11.761  1.00  0.00     0.041 C
BRANCH  13  14
HETATM   14  C17 UNL     1      45.436  18.529 -12.775  1.00  0.00    -0.030 A
HETATM   15  C18 UNL     1      46.284  18.426 -13.854  1.00  0.00     0.096 A
HETATM   16  N6  UNL     1      45.996  17.297 -14.535  1.00  0.00    -0.360 N
HETATM   17  C19 UNL     1      44.982  16.647 -13.942  1.00  0.00     0.111 A
ATOM     18  H6  UNL     1      46.477  16.984 -15.377  1.00  0.00     0.165 HD
HETATM   19  C20 UNL     1      44.311  15.475 -14.217  1.00  0.00     0.273 A
HETATM   20  C23 UNL     1      44.627  17.407 -12.844  1.00  0.00     0.005 A
HETATM   21  O2  UNL     1      44.603  14.756 -15.204  1.00  0.00    -0.266 OA
HETATM   22  N7  UNL     1      43.310  15.065 -13.420  1.00  0.00    -0.332 N
HETATM   23  C21 UNL     1      42.936  15.777 -12.345  1.00  0.00     0.092 A
ATOM     24  H7  UNL     1      42.823  14.195 -13.636  1.00  0.00     0.168 HD
HETATM   25  C22 UNL     1      43.583  16.969 -12.025  1.00  0.00     0.031 A
ENDBRANCH  13  14
ENDBRANCH  12  13
ENDBRANCH  11  12
ENDBRANCH  10  11
ENDBRANCH   9  10
ENDBRANCH   7   9
ENDBRANCH   5   7
BRANCH   4  26
HETATM   26  C7  UNL     1      50.439  20.599  -8.721  1.00  0.00     0.271 C
HETATM   27  O1  UNL     1      49.591  21.493  -8.503  1.00  0.00    -0.266 OA
HETATM   28  N4  UNL     1      51.040  20.501 -10.003  1.00  0.00    -0.351 N
ATOM     29  H4  UNL     1      51.734  19.782 -10.210  1.00  0.00     0.163 HD
BRANCH  28  30
HETATM   30  C8  UNL     1      50.623  21.473 -11.020  1.00  0.00     0.085 A
HETATM   31  C9  UNL     1      51.658  21.749 -12.057  1.00  0.00     0.027 A
HETATM   32  C10 UNL     1      50.354  21.008 -12.403  1.00  0.00     0.027 A
ENDBRANCH  28  30
ENDBRANCH   4  26
BRANCH   1  33
HETATM   33  N2  UNL     1      52.186  19.200  -4.423  1.00  0.00    -0.370 N
ATOM     34  H2  UNL     1      52.237  20.125  -3.996  1.00  0.00     0.161 HD
BRANCH  33  35
HETATM   35  C4  UNL     1      52.663  18.051  -3.726  1.00  0.00     0.121 C
BRANCH  35  36
HETATM   36  C3  UNL     1      54.061  18.313  -3.281  1.00  0.00     0.021 C
BRANCH  36  37
HETATM   37  C2  UNL     1      54.207  18.355  -1.791  1.00  0.00     0.029 C
BRANCH  37  38
HETATM   38  C1  UNL     1      54.760  19.682  -1.361  1.00  0.00     0.229 C
BRANCH  38  39
HETATM   39  N1  UNL     1      53.692  20.674  -1.430  1.00  0.00    -0.079 N
ATOM     40  H13 UNL     1      54.019  21.578  -1.772  1.00  0.00     0.274 HD
ATOM     41  H12 UNL     1      53.023  20.478  -2.174  1.00  0.00     0.274 HD
ATOM     42  H11 UNL     1      53.250  20.740  -0.514  1.00  0.00     0.274 HD
ENDBRANCH  38  39
ENDBRANCH  37  38
ENDBRANCH  36  37
ENDBRANCH  35  36
ENDBRANCH  33  35
ENDBRANCH   1  33
TORSDOF 15
ENDMDL