MODEL 2
REMARK VINA RESULT: -8.068341007      1.686      2.300
REMARK  17 active torsions:
REMARK  status: ('A' for Active; 'I' for Inactive)
REMARK    1  A    between atoms: C2_2  and  C3_3
REMARK    2  A    between atoms: C3_3  and  C4_4
REMARK    3  A    between atoms: C4_4  and  C5_5
REMARK    4  A    between atoms: C5_5  and  C6_6
REMARK    5  A    between atoms: C6_6  and  C7_7
REMARK    6  A    between atoms: C7_7  and  C8_8
REMARK    7  A    between atoms: C8_8  and  C9_9
REMARK    8  A    between atoms: C9_9  and  C10_10
REMARK    9  A    between atoms: C10_10  and  N1_11
REMARK   10  A    between atoms: N1_11  and  C11_13
REMARK   11  A    between atoms: C12_16  and  N3_17
REMARK   12  A    between atoms: N3_17  and  C13_19
REMARK   13  A    between atoms: C13_19  and  C14_20
REMARK   14  A    between atoms: N5_24  and  C16_25
REMARK   15  A    between atoms: C16_25  and  C17_26
REMARK   16  A    between atoms: C17_26  and  O1_27
REMARK   17  A    between atoms: C20_33  and  N7_34
ROOT
HETATM    1  C11 UNL     1      46.437  20.625 -11.415  1.00  0.00     0.680 A
HETATM    2  N2  UNL     1      47.612  20.106 -11.034  1.00  0.00    -0.175 N
ATOM      3  H2  UNL     1      47.605  19.380 -10.318  1.00  0.00     0.186 HD
HETATM    4  C12 UNL     1      48.794  20.485 -11.537  1.00  0.00     0.147 A
HETATM    5  C19 UNL     1      48.834  21.467 -12.510  1.00  0.00     0.124 A
HETATM    6  N6  UNL     1      50.006  21.877 -13.043  1.00  0.00    -0.186 N
ATOM      7  H6  UNL     1      50.872  21.449 -12.717  1.00  0.00     0.184 HD
HETATM    8  C20 UNL     1      50.069  22.826 -13.983  1.00  0.00     0.679 A
HETATM    9  N8  UNL     1      48.914  23.367 -14.389  1.00  0.00    -0.175 N
ATOM     10  H8  UNL     1      48.944  24.092 -15.107  1.00  0.00     0.186 HD
HETATM   11  C22 UNL     1      47.692  22.994 -13.889  1.00  0.00     0.144 A
HETATM   12  N9  UNL     1      46.645  23.567 -14.334  1.00  0.00    -0.383 N
ATOM     13  H91 UNL     1      45.737  23.291 -13.962  1.00  0.00     0.157 HD
ATOM     14  H92 UNL     1      46.686  24.291 -15.052  1.00  0.00     0.157 HD
HETATM   15  C23 UNL     1      47.637  22.015 -12.920  1.00  0.00     0.124 A
HETATM   16  N10 UNL     1      46.482  21.594 -12.376  1.00  0.00    -0.186 N
ATOM     17  H10 UNL     1      45.608  22.014 -12.692  1.00  0.00     0.184 HD
ENDROOT
BRANCH   4  18
HETATM   18  N3  UNL     1      49.924  20.001 -11.179  1.00  0.00    -0.370 N
ATOM     19  H3  UNL     1      50.400  19.312 -11.763  1.00  0.00     0.161 HD
BRANCH  18  20
HETATM   20  C13 UNL     1      50.519  20.441  -9.935  1.00  0.00     0.162 C
BRANCH  20  21
HETATM   21  C14 UNL     1      50.571  19.341  -8.936  1.00  0.00    -0.007 A
HETATM   22  C15 UNL     1      49.981  18.111  -9.118  1.00  0.00     0.117 A
HETATM   23  N4  UNL     1      50.260  17.416  -7.994  1.00  0.00    -0.309 N
HETATM   24  N5  UNL     1      50.988  18.169  -7.154  1.00  0.00    -0.301 N
ATOM     25  H4  UNL     1      49.962  16.458  -7.810  1.00  0.00     0.186 HD
HETATM   26  C18 UNL     1      51.196  19.372  -7.714  1.00  0.00     0.120 A
BRANCH  24  27
HETATM   27  C16 UNL     1      51.454  17.714  -5.856  1.00  0.00     0.174 C
BRANCH  27  28
HETATM   28  C17 UNL     1      52.370  18.788  -5.259  1.00  0.00     0.185 C
BRANCH  28  29
HETATM   29  O1  UNL     1      53.706  18.457  -5.490  1.00  0.00    -0.399 OA
ATOM     30  H1  UNL     1      54.035  17.919  -4.780  1.00  0.00     0.209 HD
ENDBRANCH  28  29
ENDBRANCH  27  28
ENDBRANCH  24  27
ENDBRANCH  20  21
ENDBRANCH  18  20
ENDBRANCH   4  18
BRANCH   1  31
HETATM   31  N1  UNL     1      45.293  20.278 -10.936  1.00  0.00    -0.226 N
ATOM     32  H1  UNL     1      45.267  19.929  -9.977  1.00  0.00     0.177 HD
BRANCH  31  33
HETATM   33  C10 UNL     1      44.047  20.346 -11.657  1.00  0.00     0.138 C
BRANCH  33  34
HETATM   34  C9  UNL     1      42.852  19.878 -10.927  1.00  0.00     0.020 C
BRANCH  34  35
HETATM   35  C8  UNL     1      42.728  18.448 -10.599  1.00  0.00     0.002 C
BRANCH  35  36
HETATM   36  C7  UNL     1      41.473  17.747 -10.951  1.00  0.00     0.000 C
BRANCH  36  37
HETATM   37  C6  UNL     1      41.836  16.489 -11.725  1.00  0.00     0.000 C
BRANCH  37  38
HETATM   38  C5  UNL     1      43.321  16.307 -11.897  1.00  0.00     0.000 C
BRANCH  38  39
HETATM   39  C4  UNL     1      43.561  15.609 -13.213  1.00  0.00     0.000 C
BRANCH  39  40
HETATM   40  C3  UNL     1      44.718  16.201 -13.975  1.00  0.00    -0.000 C
BRANCH  40  41
HETATM   41  C2  UNL     1      45.308  17.406 -13.299  1.00  0.00    -0.005 C
HETATM   42  C1  UNL     1      46.248  18.171 -14.187  1.00  0.00     0.005 C
ENDBRANCH  40  41
ENDBRANCH  39  40
ENDBRANCH  38  39
ENDBRANCH  37  38
ENDBRANCH  36  37
ENDBRANCH  35  36
ENDBRANCH  34  35
ENDBRANCH  33  34
ENDBRANCH  31  33
ENDBRANCH   1  31
BRANCH   8  43
HETATM   43  N7  UNL     1      51.204  23.195 -14.470  1.00  0.00    -0.230 N
HETATM   44  C21 UNL     1      51.889  22.439 -15.492  1.00  0.00     0.165 C
ATOM     45  H7  UNL     1      51.634  24.051 -14.121  1.00  0.00     0.177 HD
ENDBRANCH   8  43
TORSDOF 17
ENDMDL