MODEL 3
REMARK VINA RESULT: -8.301531955      6.089      9.952
REMARK  16 active torsions:
REMARK  status: ('A' for Active; 'I' for Inactive)
REMARK    1  A    between atoms: C3_3  and  C4_4
REMARK    2  A    between atoms: C4_4  and  C5_5
REMARK    3  A    between atoms: C5_5  and  C6_6
REMARK    4  A    between atoms: C6_6  and  N1_7
REMARK    5  A    between atoms: N1_7  and  C7_10
REMARK    6  A    between atoms: C7_10  and  C8_11
REMARK    7  A    between atoms: C10_14  and  O2_15
REMARK    8  A    between atoms: C11_17  and  C12_18
REMARK    9  A    between atoms: C14_20  and  C15_21
REMARK   10  A    between atoms: C16_22  and  C17_23
REMARK   11  A    between atoms: C18_25  and  C19_26
REMARK   12  A    between atoms: C19_26  and  C20_27
REMARK   13  A    between atoms: C20_27  and  N2_28
REMARK   14  A    between atoms: N2_28  and  C21_31
REMARK   15  A    between atoms: C23_33  and  O4_34
REMARK   16  A    between atoms: C24_36  and  O5_37
ROOT
HETATM    1  C12 UNL     1      45.364  17.694 -13.324  1.00  0.00    -0.057 C
HETATM    2  C13 UNL     1      45.535  16.351 -13.966  1.00  0.00     0.048 C
HETATM    3  C14 UNL     1      44.584  17.805 -12.298  1.00  0.00     0.007 C
ENDROOT
BRANCH   1   4
HETATM    4  C11 UNL     1      46.115  18.820 -13.904  1.00  0.00    -0.043 C
HETATM    5  C10 UNL     1      46.313  20.017 -13.076  1.00  0.00     0.177 C
HETATM    6  C9  UNL     1      47.655  20.303 -12.525  1.00  0.00     0.161 C
HETATM    7  O1  UNL     1      48.142  21.541 -13.041  1.00  0.00    -0.375 OA
HETATM    8  C27 UNL     1      48.816  19.672 -13.226  1.00  0.00     0.048 C
HETATM    9  C8  UNL     1      48.665  20.850 -14.132  1.00  0.00     0.154 C
HETATM   10  C26 UNL     1      48.503  18.316 -13.785  1.00  0.00     0.014 C
HETATM   11  C25 UNL     1      47.313  18.308 -14.671  1.00  0.00     0.038 C
BRANCH   5  12
HETATM   12  O2  UNL     1      45.779  21.184 -13.715  1.00  0.00    -0.389 OA
ATOM     13  H2  UNL     1      46.340  21.454 -14.432  1.00  0.00     0.210 HD
ENDBRANCH   5  12
BRANCH   9  14
HETATM   14  C7  UNL     1      49.892  21.397 -14.778  1.00  0.00     0.264 C
BRANCH  14  15
HETATM   15  N1  UNL     1      50.320  22.683 -14.333  1.00  0.00    -0.073 N
ATOM     16  H12 UNL     1      49.570  23.204 -13.879  1.00  0.00     0.277 HD
ATOM     17  H11 UNL     1      50.491  23.323 -15.108  1.00  0.00     0.277 HD
BRANCH  15  18
HETATM   18  C6  UNL     1      51.474  22.533 -13.482  1.00  0.00     0.232 C
BRANCH  18  19
HETATM   19  C5  UNL     1      51.332  23.354 -12.245  1.00  0.00     0.031 C
BRANCH  19  20
HETATM   20  C4  UNL     1      50.543  22.580 -11.206  1.00  0.00     0.028 C
BRANCH  20  21
HETATM   21  C3  UNL     1      51.129  21.251 -11.022  1.00  0.00    -0.031 C
HETATM   22  C2  UNL     1      50.857  20.517  -9.964  1.00  0.00    -0.035 C
HETATM   23  C1  UNL     1      49.950  21.008  -8.920  1.00  0.00     0.036 C
ENDBRANCH  20  21
ENDBRANCH  19  20
ENDBRANCH  18  19
ENDBRANCH  15  18
ENDBRANCH  14  15
ENDBRANCH   9  14
ENDBRANCH   1   4
BRANCH   3  24
HETATM   24  C15 UNL     1      43.867  16.636 -11.775  1.00  0.00    -0.001 C
HETATM   25  C16 UNL     1      42.565  16.636 -11.739  1.00  0.00     0.007 C
BRANCH  25  26
HETATM   26  C17 UNL     1      41.753  15.494 -11.228  1.00  0.00     0.176 C
HETATM   27  O3  UNL     1      40.568  16.010 -10.789  1.00  0.00    -0.371 OA
HETATM   28  C18 UNL     1      39.710  14.944 -10.621  1.00  0.00     0.155 C
HETATM   29  C23 UNL     1      40.017  14.044 -11.787  1.00  0.00     0.178 C
HETATM   30  C24 UNL     1      41.345  14.544 -12.315  1.00  0.00     0.182 C
BRANCH  28  31
HETATM   31  C19 UNL     1      39.954  14.272  -9.278  1.00  0.00     0.062 C
BRANCH  31  32
HETATM   32  C20 UNL     1      39.531  15.169  -8.137  1.00  0.00     0.235 C
BRANCH  32  33
HETATM   33  N2  UNL     1      40.608  16.068  -7.825  1.00  0.00    -0.075 N
ATOM     34  H22 UNL     1      40.812  16.669  -8.623  1.00  0.00     0.277 HD
ATOM     35  H21 UNL     1      40.303  16.769  -7.150  1.00  0.00     0.277 HD
BRANCH  33  36
HETATM   36  C21 UNL     1      41.795  15.424  -7.371  1.00  0.00     0.228 C
HETATM   37  C22 UNL     1      43.053  16.133  -7.835  1.00  0.00     0.034 C
ENDBRANCH  33  36
ENDBRANCH  32  33
ENDBRANCH  31  32
ENDBRANCH  28  31
BRANCH  29  38
HETATM   38  O4  UNL     1      39.059  14.263 -12.777  1.00  0.00    -0.390 OA
ATOM     39  H4  UNL     1      39.349  14.987 -13.320  1.00  0.00     0.210 HD
ENDBRANCH  29  38
BRANCH  30  40
HETATM   40  O5  UNL     1      42.200  13.428 -12.400  1.00  0.00    -0.390 OA
ATOM     41  H5  UNL     1      41.753  12.614 -12.198  1.00  0.00     0.210 HD
ENDBRANCH  30  40
ENDBRANCH  25  26
ENDBRANCH   3  24
TORSDOF 16
ENDMDL