MODEL 3
REMARK VINA RESULT: -8.269401159      3.136      8.647
REMARK  20 active torsions:
REMARK  status: ('A' for Active; 'I' for Inactive)
REMARK    1  A    between atoms: N1_1  and  C1_4
REMARK    2  A    between atoms: C2_7  and  N3_8
REMARK    3  A    between atoms: N3_8  and  C3_10
REMARK    4  A    between atoms: C3_10  and  C4_11
REMARK    5  A    between atoms: C4_11  and  C5_12
REMARK    6  A    between atoms: C5_12  and  C6_13
REMARK    7  A    between atoms: C6_13  and  C7_14
REMARK    8  A    between atoms: C7_14  and  C8_15
REMARK    9  A    between atoms: C8_15  and  C9_16
REMARK   10  A    between atoms: C9_16  and  C10_17
REMARK   11  A    between atoms: C10_17  and  O1_18
REMARK   12  A    between atoms: N4_20  and  O2_22
REMARK   13  A    between atoms: C11_26  and  C12_27
REMARK   14  A    between atoms: C12_27  and  C13_28
REMARK   15  A    between atoms: C13_28  and  C14_29
REMARK   16  A    between atoms: C14_29  and  C15_30
REMARK       I    between atoms: C15_30  and  N6_32
REMARK   17  A    between atoms: C20_37  and  C21_38
REMARK   18  A    between atoms: C22_39  and  C23_40
REMARK   19  A    between atoms: C23_40  and  C24_41
REMARK   20  A    between atoms: C24_41  and  O4_42
ROOT
HETATM    1  C1  UNL     1      49.213  17.997  -9.998  1.00  0.00     0.135 A
HETATM    2  N2  UNL     1      48.633  17.752 -11.201  1.00  0.00    -0.176 N
ATOM      3  H2  UNL     1      48.086  16.907 -11.361  1.00  0.00     0.186 HD
HETATM    4  C2  UNL     1      48.807  18.661 -12.168  1.00  0.00     0.679 A
HETATM    5  N5  UNL     1      49.521  19.794 -12.011  1.00  0.00    -0.194 N
ATOM      6  H5  UNL     1      49.619  20.449 -12.788  1.00  0.00     0.184 HD
HETATM    7  C11 UNL     1      50.109  20.060 -10.819  1.00  0.00     0.049 A
HETATM    8  C20 UNL     1      49.948  19.148  -9.809  1.00  0.00     0.085 A
ENDROOT
BRANCH   4   9
HETATM    9  N3  UNL     1      48.273  18.473 -13.346  1.00  0.00    -0.226 N
ATOM     10  H3  UNL     1      48.380  19.201 -14.052  1.00  0.00     0.177 HD
BRANCH   9  11
HETATM   11  C3  UNL     1      47.544  17.290 -13.687  1.00  0.00     0.138 C
BRANCH  11  12
HETATM   12  C4  UNL     1      46.101  17.669 -13.963  1.00  0.00     0.020 C
BRANCH  12  13
HETATM   13  C5  UNL     1      45.151  16.894 -13.079  1.00  0.00     0.002 C
BRANCH  13  14
HETATM   14  C6  UNL     1      44.310  17.905 -12.319  1.00  0.00     0.000 C
BRANCH  14  15
HETATM   15  C7  UNL     1      45.070  18.278 -11.082  1.00  0.00     0.000 C
BRANCH  15  16
HETATM   16  C8  UNL     1      45.264  19.785 -10.939  1.00  0.00     0.008 C
BRANCH  16  17
HETATM   17  C9  UNL     1      44.770  20.532 -12.118  1.00  0.00     0.086 C
BRANCH  17  18
HETATM   18  C10 UNL     1      45.814  21.393 -12.695  1.00  0.00     0.135 C
HETATM   19  N4  UNL     1      45.689  22.211 -13.647  1.00  0.00    -0.251 N
ATOM     20  H4  UNL     1      46.545  22.709 -13.889  1.00  0.00     0.196 HD
BRANCH  18  21
HETATM   21  O1  UNL     1      47.137  21.339 -12.157  1.00  0.00    -0.348 OA
ATOM     22  H1  UNL     1      47.523  20.494 -11.959  1.00  0.00     0.219 HD
ENDBRANCH  18  21
BRANCH  19  23
HETATM   23  O2  UNL     1      44.631  22.537 -14.393  1.00  0.00    -0.288 OA
ATOM     24  H2  UNL     1      44.301  22.171 -15.204  1.00  0.00     0.244 HD
ENDBRANCH  19  23
ENDBRANCH  17  18
ENDBRANCH  16  17
ENDBRANCH  15  16
ENDBRANCH  14  15
ENDBRANCH  13  14
ENDBRANCH  12  13
ENDBRANCH  11  12
ENDBRANCH   9  11
ENDBRANCH   4   9
BRANCH   1  25
HETATM   25  N1  UNL     1      49.062  17.132  -9.031  1.00  0.00    -0.384 N
ATOM     26  H12 UNL     1      49.802  16.977  -8.347  1.00  0.00     0.157 HD
ATOM     27  H11 UNL     1      48.188  16.609  -8.965  1.00  0.00     0.157 HD
ENDBRANCH   1  25
BRANCH   7  28
HETATM   28  C12 UNL     1      50.886  21.309 -10.679  1.00  0.00     0.060 C
BRANCH  28  29
HETATM   29  C13 UNL     1      49.985  22.526 -10.701  1.00  0.00     0.015 C
BRANCH  29  30
HETATM   30  C14 UNL     1      50.631  23.630 -11.495  1.00  0.00     0.103 C
BRANCH  30  31
HETATM   31  C15 UNL     1      51.495  23.076 -12.564  1.00  0.00     0.219 C
HETATM   32  O3  UNL     1      52.730  22.958 -12.341  1.00  0.00    -0.273 OA
HETATM   33  N6  UNL     1      50.907  22.700 -13.791  1.00  0.00    -0.352 N
HETATM   34  C16 UNL     1      51.640  22.149 -14.912  1.00  0.00     0.126 C
HETATM   35  C19 UNL     1      49.503  22.787 -14.150  1.00  0.00     0.126 C
HETATM   36  C17 UNL     1      50.647  21.537 -15.843  1.00  0.00     0.021 C
HETATM   37  C18 UNL     1      49.340  21.618 -15.109  1.00  0.00     0.021 C
ENDBRANCH  30  31
ENDBRANCH  29  30
ENDBRANCH  28  29
ENDBRANCH   7  28
BRANCH   8  38
HETATM   38  C21 UNL     1      50.540  19.378  -8.539  1.00  0.00    -0.061 C
HETATM   39  C22 UNL     1      51.034  19.562  -7.451  1.00  0.00    -0.099 C
BRANCH  39  40
HETATM   40  C23 UNL     1      51.646  19.768  -6.152  1.00  0.00     0.120 C
BRANCH  40  41
HETATM   41  C24 UNL     1      51.972  18.446  -5.485  1.00  0.00     0.176 C
BRANCH  41  42
HETATM   42  O4  UNL     1      51.612  18.560  -4.146  1.00  0.00    -0.400 OA
ATOM     43  H4  UNL     1      51.281  17.713  -3.871  1.00  0.00     0.209 HD
ENDBRANCH  41  42
ENDBRANCH  40  41
ENDBRANCH  39  40
ENDBRANCH   8  38
TORSDOF 20
ENDMDL