MODEL 1
REMARK VINA RESULT: -8.358097524      0.000      0.000
REMARK  15 active torsions:
REMARK  status: ('A' for Active; 'I' for Inactive)
REMARK    1  A    between atoms: C2_2  and  C3_3
REMARK    2  A    between atoms: C3_3  and  C4_4
REMARK    3  A    between atoms: C4_4  and  C5_5
REMARK    4  A    between atoms: C19_24  and  C20_25
REMARK    5  A    between atoms: C20_25  and  N2_26
REMARK    6  A    between atoms: C20_25  and  C21_30
REMARK    7  A    between atoms: C21_30  and  N3_31
REMARK    8  A    between atoms: N3_31  and  C22_33
REMARK    9  A    between atoms: C22_33  and  C23_34
REMARK   10  A    between atoms: C23_34  and  C24_35
REMARK   11  A    between atoms: C24_35  and  C25_36
REMARK   12  A    between atoms: C25_36  and  N4_37
REMARK   13  A    between atoms: N4_37  and  C26_40
REMARK   14  A    between atoms: C26_40  and  C27_41
REMARK   15  A    between atoms: C27_41  and  N5_42
ROOT
HETATM    1  C5  UNL     1      48.365  20.411 -12.169  1.00  0.00    -0.031 A
HETATM    2  C6  UNL     1      48.465  21.400 -13.158  1.00  0.00     0.099 A
HETATM    3  N1  UNL     1      47.352  21.934 -13.678  1.00  0.00    -0.332 N
ATOM      4  H1  UNL     1      47.446  22.654 -14.394  1.00  0.00     0.168 HD
HETATM    5  C7  UNL     1      46.117  21.565 -13.297  1.00  0.00     0.256 A
HETATM    6  O1  UNL     1      45.077  22.074 -13.790  1.00  0.00    -0.267 OA
HETATM    7  C8  UNL     1      45.963  20.607 -12.340  1.00  0.00     0.044 A
HETATM    8  C9  UNL     1      44.708  20.192 -11.939  1.00  0.00     0.030 A
HETATM    9  C10 UNL     1      44.549  19.209 -10.989  1.00  0.00    -0.024 A
HETATM   10  C11 UNL     1      43.289  18.787 -10.598  1.00  0.00     0.023 A
HETATM   11  C12 UNL     1      43.179  17.778  -9.646  1.00  0.00    -0.009 A
HETATM   12  C13 UNL     1      44.315  17.231  -9.122  1.00  0.00     0.049 A
HETATM   13  C14 UNL     1      45.597  17.646  -9.501  1.00  0.00     0.030 A
HETATM   14  C15 UNL     1      45.692  18.639 -10.439  1.00  0.00    -0.024 A
HETATM   15  C16 UNL     1      46.947  19.051 -10.833  1.00  0.00     0.025 A
HETATM   16  C17 UNL     1      47.105  20.034 -11.782  1.00  0.00    -0.012 A
HETATM   17  C18 UNL     1      43.954  16.154  -8.184  1.00  0.00     0.294 A
HETATM   18  O2  UNL     1      44.773  15.442  -7.525  1.00  0.00    -0.259 OA
HETATM   19  O3  UNL     1      42.589  16.113  -8.201  1.00  0.00    -0.305 OA
HETATM   20  C19 UNL     1      42.000  17.111  -8.997  1.00  0.00     0.201 A
ENDROOT
BRANCH  20  21
HETATM   21  C20 UNL     1      41.108  16.523 -10.060  1.00  0.00     0.255 C
BRANCH  21  22
HETATM   22  N2  UNL     1      39.817  17.109 -10.031  1.00  0.00    -0.068 N
ATOM     23  H23 UNL     1      39.128  16.475  -9.627  1.00  0.00     0.275 HD
ATOM     24  H22 UNL     1      39.763  17.860  -9.343  1.00  0.00     0.275 HD
ATOM     25  H21 UNL     1      39.535  17.429 -10.957  1.00  0.00     0.275 HD
ENDBRANCH  21  22
BRANCH  21  26
HETATM   26  C21 UNL     1      41.079  15.022  -9.973  1.00  0.00     0.095 C
BRANCH  26  27
HETATM   27  N3  UNL     1      42.040  14.297 -10.656  1.00  0.00    -0.380 N
ATOM     28  H3  UNL     1      42.462  13.503 -10.175  1.00  0.00     0.164 HD
BRANCH  27  29
HETATM   29  C22 UNL     1      42.470  14.569 -11.943  1.00  0.00     0.060 C
BRANCH  29  30
HETATM   30  C23 UNL     1      43.877  15.100 -12.136  1.00  0.00     0.046 C
BRANCH  30  31
HETATM   31  C24 UNL     1      43.945  16.256 -13.081  1.00  0.00     0.032 C
BRANCH  31  32
HETATM   32  C25 UNL     1      45.089  16.073 -14.040  1.00  0.00     0.232 C
BRANCH  32  33
HETATM   33  N4  UNL     1      45.800  17.305 -14.203  1.00  0.00    -0.074 N
ATOM     34  H42 UNL     1      45.605  17.742 -15.104  1.00  0.00     0.277 HD
ATOM     35  H41 UNL     1      45.435  18.040 -13.598  1.00  0.00     0.277 HD
BRANCH  33  36
HETATM   36  C26 UNL     1      47.216  17.091 -14.000  1.00  0.00     0.259 C
BRANCH  36  37
HETATM   37  C27 UNL     1      47.993  17.987 -14.914  1.00  0.00     0.257 C
BRANCH  37  38
HETATM   38  N5  UNL     1      47.043  18.820 -15.636  1.00  0.00    -0.078 N
ATOM     39  H53 UNL     1      47.332  19.008 -16.596  1.00  0.00     0.274 HD
ATOM     40  H52 UNL     1      46.172  18.333 -15.848  1.00  0.00     0.274 HD
ATOM     41  H51 UNL     1      46.898  19.671 -15.092  1.00  0.00     0.274 HD
ENDBRANCH  37  38
ENDBRANCH  36  37
ENDBRANCH  33  36
ENDBRANCH  32  33
ENDBRANCH  31  32
ENDBRANCH  30  31
ENDBRANCH  29  30
ENDBRANCH  27  29
ENDBRANCH  26  27
ENDBRANCH  21  26
ENDBRANCH  20  21
BRANCH   1  42
HETATM   42  C4  UNL     1      49.569  19.849 -11.559  1.00  0.00     0.041 C
BRANCH  42  43
HETATM   43  C3  UNL     1      50.543  20.981 -11.350  1.00  0.00     0.004 C
BRANCH  43  44
HETATM   44  C2  UNL     1      50.322  21.717 -10.064  1.00  0.00    -0.004 C
HETATM   45  C1  UNL     1      50.019  20.809  -8.907  1.00  0.00     0.005 C
ENDBRANCH  43  44
ENDBRANCH  42  43
ENDBRANCH   1  42
TORSDOF 15
ENDMDL