MODEL 2
REMARK VINA RESULT: -7.524194718      2.958      6.937
REMARK  16 active torsions:
REMARK  status: ('A' for Active; 'I' for Inactive)
REMARK    1  A    between atoms: C2_2  and  C3_3
REMARK    2  A    between atoms: C2_2  and  C13_29
REMARK    3  A    between atoms: C3_3  and  N1_4
REMARK    4  A    between atoms: N1_4  and  C4_6
REMARK    5  A    between atoms: C4_6  and  C5_7
REMARK    6  A    between atoms: C5_7  and  C6_8
REMARK    7  A    between atoms: C6_8  and  C7_9
REMARK    8  A    between atoms: C7_9  and  C8_10
REMARK    9  A    between atoms: C8_10  and  C9_11
REMARK   10  A    between atoms: C9_11  and  N2_12
REMARK   11  A    between atoms: N2_12  and  C10_14
REMARK   12  A    between atoms: C11_17  and  N4_18
REMARK   13  A    between atoms: C12_23  and  N6_24
REMARK   14  A    between atoms: C13_29  and  O1_30
REMARK   15  A    between atoms: O1_30  and  C14_31
REMARK   16  A    between atoms: C20_38  and  C21_39
ROOT
HETATM    1  C14 UNL     1      44.458  18.836 -10.603  1.00  0.00     0.077 A
HETATM    2  C15 UNL     1      43.239  19.350 -11.096  1.00  0.00     0.039 A
HETATM    3  C16 UNL     1      42.062  18.772 -10.705  1.00  0.00     0.025 A
HETATM    4  C17 UNL     1      42.012  17.700  -9.843  1.00  0.00     0.045 A
HETATM    5  C18 UNL     1      40.758  17.135  -9.469  1.00  0.00     0.099 C
HETATM    6  N8  UNL     1      39.762  16.687  -9.168  1.00  0.00    -0.191 NA
HETATM    7  C19 UNL     1      43.203  17.203  -9.364  1.00  0.00     0.035 A
HETATM    8  C20 UNL     1      44.416  17.733  -9.715  1.00  0.00     0.005 A
ENDROOT
BRANCH   8   9
HETATM    9  C21 UNL     1      45.688  17.219  -9.218  1.00  0.00     0.157 C
HETATM   10  C22 UNL     1      45.431  16.498  -7.887  1.00  0.00     0.039 C
HETATM   11  C23 UNL     1      46.813  15.854  -7.705  1.00  0.00     0.029 C
HETATM   12  C24 UNL     1      47.166  15.555  -9.150  1.00  0.00     0.168 C
HETATM   13  O2  UNL     1      46.235  16.184  -9.954  1.00  0.00    -0.381 OA
ENDBRANCH   8   9
BRANCH   1  14
HETATM   14  O1  UNL     1      45.622  19.329 -10.926  1.00  0.00    -0.350 OA
BRANCH  14  15
HETATM   15  C13 UNL     1      46.681  19.872 -11.412  1.00  0.00     0.185 C
BRANCH  15  16
HETATM   16  C2  UNL     1      46.660  20.455 -12.822  1.00  0.00     0.044 C
HETATM   17  C1  UNL     1      45.554  21.387 -13.101  1.00  0.00     0.017 C
BRANCH  16  18
HETATM   18  C3  UNL     1      47.984  20.978 -13.257  1.00  0.00     0.061 C
BRANCH  18  19
HETATM   19  N1  UNL     1      48.066  22.222 -13.879  1.00  0.00    -0.402 N
ATOM     20  H1  UNL     1      47.201  22.731 -14.063  1.00  0.00     0.158 HD
BRANCH  19  21
HETATM   21  C4  UNL     1      49.279  22.808 -14.265  1.00  0.00     0.118 C
BRANCH  21  22
HETATM   22  C5  UNL     1      50.363  21.721 -14.451  1.00  0.00     0.020 C
BRANCH  22  23
HETATM   23  C6  UNL     1      51.600  22.083 -13.682  1.00  0.00     0.002 C
BRANCH  23  24
HETATM   24  C7  UNL     1      51.311  22.655 -12.338  1.00  0.00     0.005 C
BRANCH  24  25
HETATM   25  C8  UNL     1      51.100  21.525 -11.343  1.00  0.00     0.045 C
BRANCH  25  26
HETATM   26  C9  UNL     1      50.192  21.967 -10.215  1.00  0.00     0.079 C
BRANCH  26  27
HETATM   27  N2  UNL     1      49.866  21.005  -9.321  1.00  0.00    -0.204 N
ATOM     28  H2  UNL     1      48.847  20.975  -9.280  1.00  0.00     0.183 HD
BRANCH  27  29
HETATM   29  C10 UNL     1      50.276  20.160  -8.545  1.00  0.00     0.710 A
HETATM   30  N3  UNL     1      50.273  18.831  -8.955  1.00  0.00    -0.021 N
HETATM   31  C11 UNL     1      50.692  17.827  -8.215  1.00  0.00     0.705 A
ATOM     32  H3  UNL     1      49.923  18.622  -9.890  1.00  0.00     0.203 HD
HETATM   33  N5  UNL     1      51.156  18.081  -6.979  1.00  0.00    -0.022 N
HETATM   34  C12 UNL     1      51.193  19.325  -6.508  1.00  0.00     0.705 A
ATOM     35  H5  UNL     1      51.483  17.311  -6.395  1.00  0.00     0.203 HD
HETATM   36  N7  UNL     1      50.760  20.328  -7.285  1.00  0.00    -0.021 N
ATOM     37  H7  UNL     1      50.795  21.275  -6.908  1.00  0.00     0.203 HD
BRANCH  31  38
HETATM   38  N4  UNL     1      50.662  16.602  -8.653  1.00  0.00    -0.234 N
ATOM     39  H42 UNL     1      51.097  16.375  -9.548  1.00  0.00     0.174 HD
ATOM     40  H41 UNL     1      50.214  15.857  -8.120  1.00  0.00     0.174 HD
ENDBRANCH  31  38
BRANCH  34  41
HETATM   41  N6  UNL     1      51.646  19.592  -5.305  1.00  0.00    -0.234 N
ATOM     42  H62 UNL     1      51.494  18.920  -4.553  1.00  0.00     0.174 HD
ATOM     43  H61 UNL     1      52.145  20.457  -5.101  1.00  0.00     0.174 HD
ENDBRANCH  34  41
ENDBRANCH  27  29
ENDBRANCH  26  27
ENDBRANCH  25  26
ENDBRANCH  24  25
ENDBRANCH  23  24
ENDBRANCH  22  23
ENDBRANCH  21  22
ENDBRANCH  19  21
ENDBRANCH  18  19
ENDBRANCH  16  18
ENDBRANCH  15  16
ENDBRANCH  14  15
ENDBRANCH   1  14
TORSDOF 16
ENDMDL