MODEL 2
REMARK VINA RESULT: -7.505735114      1.527      1.997
REMARK  5 active torsions:
REMARK  status: ('A' for Active; 'I' for Inactive)
REMARK    1  A    between atoms: C1_2  and  C2_3
REMARK       I    between atoms: C1_2  and  N4_21
REMARK    2  A    between atoms: C2_3  and  S1_4
REMARK    3  A    between atoms: S1_4  and  C3_5
REMARK       I    between atoms: N3_11  and  C5_13
REMARK    4  A    between atoms: C5_13  and  C6_15
REMARK    5  A    between atoms: N4_21  and  C11_23
ROOT
HETATM    1  C3  UNL     1      28.052  75.412  50.140  1.00  0.00     0.205 A
HETATM    2  N1  UNL     1      27.747  75.920  51.337  1.00  0.00    -0.271 N
ATOM      3  H1  UNL     1      27.555  76.900  51.547  1.00  0.00     0.189 HD
HETATM    4  N2  UNL     1      27.740  74.905  52.207  1.00  0.00    -0.262 N
ATOM      5  H2  UNL     1      27.540  74.978  53.204  1.00  0.00     0.190 HD
HETATM    6  C4  UNL     1      28.040  73.770  51.548  1.00  0.00     0.248 A
HETATM    7  N3  UNL     1      28.139  72.557  52.020  1.00  0.00    -0.291 N
ATOM      8  H3  UNL     1      28.377  71.802  51.377  1.00  0.00     0.172 HD
HETATM    9  C5  UNL     1      27.933  72.249  53.361  1.00  0.00     0.229 C
HETATM   10  O2  UNL     1      26.808  72.387  53.889  1.00  0.00    -0.273 OA
HETATM   11  O3  UNL     1      28.222  74.121  50.298  1.00  0.00    -0.253 OA
ENDROOT
BRANCH   1  12
HETATM   12  S1  UNL     1      28.219  76.258  48.564  1.00  0.00    -0.075 SA
BRANCH  12  13
HETATM   13  C2  UNL     1      26.601  76.893  48.091  1.00  0.00     0.185 C
BRANCH  13  14
HETATM   14  C1  UNL     1      26.774  78.249  47.516  1.00  0.00     0.227 C
HETATM   15  O1  UNL     1      27.365  79.168  48.178  1.00  0.00    -0.273 OA
HETATM   16  N4  UNL     1      26.270  78.503  46.219  1.00  0.00    -0.356 N
ATOM     17  H4  UNL     1      25.798  77.767  45.694  1.00  0.00     0.162 HD
BRANCH  16  18
HETATM   18  C11 UNL     1      26.433  79.827  45.646  1.00  0.00     0.084 C
HETATM   19  C12 UNL     1      25.210  80.682  45.902  1.00  0.00     0.025 C
HETATM   20  C13 UNL     1      25.604  82.108  45.500  1.00  0.00     0.002 C
HETATM   21  C14 UNL     1      26.139  82.142  44.098  1.00  0.00     0.000 C
HETATM   22  C15 UNL     1      25.988  80.823  43.383  1.00  0.00     0.002 C
HETATM   23  C16 UNL     1      26.583  79.669  44.155  1.00  0.00     0.025 C
ENDBRANCH  16  18
ENDBRANCH  13  14
ENDBRANCH  12  13
ENDBRANCH   1  12
BRANCH   9  24
HETATM   24  C6  UNL     1      29.047  71.748  54.195  1.00  0.00     0.078 C
HETATM   25  C7  UNL     1      28.857  72.058  55.654  1.00  0.00     0.014 C
HETATM   26  C8  UNL     1      29.435  73.430  55.891  1.00  0.00     0.001 C
HETATM   27  C9  UNL     1      30.276  73.725  54.674  1.00  0.00     0.001 C
HETATM   28  C10 UNL     1      30.332  72.471  53.862  1.00  0.00     0.014 C
ENDBRANCH   9  24
TORSDOF 5
ENDMDL