MODEL 4
REMARK VINA RESULT: -5.238017316      2.656      6.535
REMARK  7 active torsions:
REMARK  status: ('A' for Active; 'I' for Inactive)
REMARK    1  A    between atoms: C7_7  and  O1_8
REMARK    2  A    between atoms: C14_17  and  C15_18
REMARK    3  A    between atoms: C15_18  and  O4_20
REMARK    4  A    between atoms: O4_20  and  C16_21
REMARK    5  A    between atoms: C16_21  and  C17_22
REMARK    6  A    between atoms: C17_22  and  C18_23
REMARK    7  A    between atoms: C18_23  and  O5_24
ROOT
HETATM    1  C1  UNL     1      28.145  70.011  51.854  1.00  0.00     0.019 C
HETATM    2  C2  UNL     1      28.351  71.195  51.313  1.00  0.00    -0.055 C
HETATM    3  C3  UNL     1      27.454  72.139  50.573  1.00  0.00     0.081 C
HETATM    4  C4  UNL     1      28.673  72.913  50.121  1.00  0.00     0.093 C
HETATM    5  C5  UNL     1      29.032  72.552  48.710  1.00  0.00     0.051 C
HETATM    6  C6  UNL     1      28.679  73.674  47.734  1.00  0.00     0.025 C
HETATM    7  C7  UNL     1      29.794  74.702  47.871  1.00  0.00     0.130 C
HETATM    8  C8  UNL     1      29.192  75.838  48.650  1.00  0.00     0.059 C
HETATM    9  C9  UNL     1      28.154  75.087  49.499  1.00  0.00     0.135 C
HETATM   10  O2  UNL     1      28.694  74.247  50.399  1.00  0.00    -0.369 OA
HETATM   11  C10 UNL     1      27.485  74.383  48.309  1.00  0.00     0.030 C
HETATM   12  C11 UNL     1      27.115  75.621  47.504  1.00  0.00    -0.028 C
HETATM   13  C12 UNL     1      26.988  75.217  46.064  1.00  0.00     0.016 C
HETATM   14  C13 UNL     1      25.826  76.167  48.014  1.00  0.00     0.016 C
HETATM   15  C14 UNL     1      28.281  76.593  47.714  1.00  0.00     0.103 C
HETATM   16  C19 UNL     1      29.431  72.152  51.144  1.00  0.00    -0.022 C
HETATM   17  C20 UNL     1      30.618  72.269  51.704  1.00  0.00    -0.020 C
HETATM   18  C21 UNL     1      31.111  71.330  52.726  1.00  0.00     0.036 C
ENDROOT
BRANCH  15  19
HETATM   19  C15 UNL     1      27.848  77.871  48.272  1.00  0.00     0.264 C
HETATM   20  O3  UNL     1      28.491  78.390  49.215  1.00  0.00    -0.265 OA
BRANCH  19  21
HETATM   21  O4  UNL     1      26.744  78.566  47.811  1.00  0.00    -0.321 OA
BRANCH  21  22
HETATM   22  C16 UNL     1      26.704  79.198  46.548  1.00  0.00     0.180 C
BRANCH  22  23
HETATM   23  C17 UNL     1      25.560  80.189  46.538  1.00  0.00     0.053 C
BRANCH  23  24
HETATM   24  C18 UNL     1      25.424  80.843  45.180  1.00  0.00     0.166 C
BRANCH  24  25
HETATM   25  O5  UNL     1      24.598  81.986  45.279  1.00  0.00    -0.401 OA
ATOM     26  H5  UNL     1      24.662  82.499  44.483  1.00  0.00     0.209 HD
ENDBRANCH  24  25
ENDBRANCH  23  24
ENDBRANCH  22  23
ENDBRANCH  21  22
ENDBRANCH  19  21
ENDBRANCH  15  19
BRANCH   7  27
HETATM   27  O1  UNL     1      30.936  74.185  48.423  1.00  0.00    -0.395 OA
ATOM     28  H1  UNL     1      31.601  73.977  47.777  1.00  0.00     0.210 HD
ENDBRANCH   7  27
TORSDOF 7
ENDMDL