MODEL 1
REMARK VINA RESULT: -6.828133084      0.000      0.000
REMARK  5 active torsions:
REMARK  status: ('A' for Active; 'I' for Inactive)
REMARK    1  A    between atoms: C2_2  and  C3_3
REMARK    2  A    between atoms: C3_3  and  C4_4
REMARK    3  A    between atoms: C11_11  and  C12_12
REMARK    4  A    between atoms: C12_12  and  C14_14
REMARK    5  A    between atoms: C14_14  and  S1_16
ROOT
HETATM    1  C4  UNL     1      28.583  74.406  47.855  1.00  0.00     0.021 C
HETATM    2  C5  UNL     1      28.981  73.759  49.169  1.00  0.00     0.009 C
HETATM    3  C6  UNL     1      28.028  74.287  50.220  1.00  0.00     0.033 C
HETATM    4  C7  UNL     1      27.784  75.764  49.949  1.00  0.00     0.187 C
HETATM    5  C8  UNL     1      26.629  75.974  48.987  1.00  0.00     0.055 C
HETATM    6  C9  UNL     1      27.300  76.528  47.783  1.00  0.00     0.081 C
HETATM    7  C10 UNL     1      27.487  78.045  47.866  1.00  0.00     0.055 C
HETATM    8  C11 UNL     1      26.361  78.508  47.034  1.00  0.00     0.138 C
HETATM    9  O4  UNL     1      26.410  77.594  45.948  1.00  0.00    -0.315 OA
HETATM   10  C16 UNL     1      26.641  76.323  46.513  1.00  0.00     0.270 C
HETATM   11  O5  UNL     1      26.292  75.263  45.924  1.00  0.00    -0.264 OA
HETATM   12  C17 UNL     1      28.684  75.896  47.893  1.00  0.00     0.209 C
HETATM   13  N1  UNL     1      28.973  76.292  49.282  1.00  0.00    -0.065 N
ATOM     14  H11 UNL     1      29.869  75.979  49.656  1.00  0.00     0.278 HD
ATOM     15  H12 UNL     1      29.164  77.283  49.431  1.00  0.00     0.278 HD
ENDROOT
BRANCH   8  16
HETATM   16  C12 UNL     1      26.248  79.915  46.657  1.00  0.00     0.032 C
HETATM   17  C13 UNL     1      26.813  80.101  45.249  1.00  0.00     0.014 C
BRANCH  16  18
HETATM   18  C14 UNL     1      24.968  80.628  46.862  1.00  0.00     0.132 C
HETATM   19  C15 UNL     1      24.756  81.841  46.004  1.00  0.00     0.030 C
BRANCH  18  20
HETATM   20  S1  UNL     1      24.883  81.195  48.569  1.00  0.00     0.106 S
HETATM   21  O1  UNL     1      24.851  82.720  48.562  1.00  0.00    -0.595 OA
HETATM   22  O2  UNL     1      26.095  80.825  49.349  1.00  0.00    -0.595 OA
HETATM   23  O3  UNL     1      23.534  80.624  49.347  1.00  0.00    -0.595 OA
ENDBRANCH  18  20
ENDBRANCH  16  18
ENDBRANCH   8  16
BRANCH   1  24
HETATM   24  C3  UNL     1      29.415  73.786  46.738  1.00  0.00     0.033 C
BRANCH  24  25
HETATM   25  C2  UNL     1      30.770  74.329  46.697  1.00  0.00    -0.036 C
HETATM   26  C1  UNL     1      31.473  74.272  45.579  1.00  0.00     0.007 C
ENDBRANCH  24  25
ENDBRANCH   1  24
TORSDOF 5
ENDMDL