MODEL 5
REMARK VINA RESULT: -6.642599974      7.281     10.729
REMARK  7 active torsions:
REMARK  status: ('A' for Active; 'I' for Inactive)
REMARK    1  A    between atoms: C7_7  and  C8_8
REMARK    2  A    between atoms: C8_8  and  O1_9
REMARK    3  A    between atoms: C8_8  and  C9_11
REMARK    4  A    between atoms: C9_11  and  C10_12
REMARK    5  A    between atoms: C14_19  and  O5_20
REMARK    6  A    between atoms: O5_20  and  C15_21
REMARK    7  A    between atoms: C15_21  and  C16_23
ROOT
HETATM    1  C1  UNL     1      23.630  81.686  37.883  1.00  0.00     0.016 C
HETATM    2  C2  UNL     1      23.711  81.989  39.336  1.00  0.00    -0.032 C
HETATM    3  C3  UNL     1      23.002  83.340  39.546  1.00  0.00     0.010 C
HETATM    4  C4  UNL     1      21.735  82.480  39.292  1.00  0.00     0.006 C
HETATM    5  C5  UNL     1      22.499  81.501  40.145  1.00  0.00    -0.005 C
HETATM    6  C6  UNL     1      22.322  80.072  40.099  1.00  0.00     0.015 C
HETATM    7  C7  UNL     1      23.606  79.300  40.163  1.00  0.00     0.047 C
HETATM    8  C11 UNL     1      24.633  79.712  41.116  1.00  0.00     0.158 C
HETATM    9  O4  UNL     1      25.896  79.635  40.455  1.00  0.00    -0.382 OA
HETATM   10  C12 UNL     1      25.884  80.745  39.564  1.00  0.00     0.176 C
HETATM   11  C13 UNL     1      24.923  81.747  40.099  1.00  0.00     0.050 C
HETATM   12  C14 UNL     1      24.761  81.153  41.480  1.00  0.00     0.168 C
ENDROOT
BRANCH  12  13
HETATM   13  O5  UNL     1      26.076  81.279  42.064  1.00  0.00    -0.313 OA
BRANCH  13  14
HETATM   14  C15 UNL     1      26.301  80.942  43.380  1.00  0.00     0.263 C
HETATM   15  O6  UNL     1      27.338  80.336  43.697  1.00  0.00    -0.265 OA
BRANCH  14  16
HETATM   16  C16 UNL     1      25.314  81.297  44.404  1.00  0.00     0.085 C
HETATM   17  C17 UNL     1      25.542  80.374  45.610  1.00  0.00     0.014 C
HETATM   18  C18 UNL     1      25.041  81.153  46.784  1.00  0.00     0.001 C
HETATM   19  C19 UNL     1      24.833  82.566  46.325  1.00  0.00     0.001 C
HETATM   20  C20 UNL     1      25.613  82.647  45.038  1.00  0.00     0.014 C
ENDBRANCH  14  16
ENDBRANCH  13  14
ENDBRANCH  12  13
BRANCH   7  21
HETATM   21  C8  UNL     1      23.360  77.800  40.359  1.00  0.00     0.134 C
BRANCH  21  22
HETATM   22  O1  UNL     1      24.242  77.276  41.299  1.00  0.00    -0.395 OA
ATOM     23  H1  UNL     1      25.032  76.960  40.877  1.00  0.00     0.210 HD
ENDBRANCH  21  22
BRANCH  21  24
HETATM   24  C9  UNL     1      23.429  77.008  39.102  1.00  0.00     0.145 C
BRANCH  24  25
HETATM   25  C10 UNL     1      24.693  76.192  39.190  1.00  0.00     0.175 C
HETATM   26  O2  UNL     1      24.567  74.983  39.520  1.00  0.00    -0.648 OA
HETATM   27  O3  UNL     1      25.936  76.694  38.935  1.00  0.00    -0.648 OA
ENDBRANCH  24  25
ENDBRANCH  21  24
ENDBRANCH   7  21
TORSDOF 7
ENDMDL