MODEL 3
REMARK VINA RESULT: -5.326982773      8.482     12.135
REMARK  6 active torsions:
REMARK  status: ('A' for Active; 'I' for Inactive)
REMARK    1  A    between atoms: C2_2  and  C4_4
REMARK    2  A    between atoms: C7_7  and  O1_8
REMARK    3  A    between atoms: C7_7  and  C8_10
REMARK    4  A    between atoms: C9_12  and  C10_13
REMARK    5  A    between atoms: C10_13  and  C11_14
REMARK    6  A    between atoms: C12_17  and  O5_18
ROOT
HETATM    1  C8  UNL     1      28.856  74.532  48.649  1.00  0.00     0.169 C
HETATM    2  O2  UNL     1      30.189  74.238  48.718  1.00  0.00    -0.374 OA
HETATM    3  C9  UNL     1      30.854  73.923  47.583  1.00  0.00     0.161 C
HETATM    4  C12 UNL     1      30.217  72.882  46.729  1.00  0.00     0.155 C
HETATM    5  C14 UNL     1      28.812  72.548  47.071  1.00  0.00     0.033 A
HETATM    6  C15 UNL     1      28.066  73.499  47.895  1.00  0.00     0.034 A
HETATM    7  C16 UNL     1      28.321  72.058  48.352  1.00  0.00    -0.035 A
HETATM    8  C17 UNL     1      29.146  71.810  49.563  1.00  0.00     0.016 C
HETATM    9  C18 UNL     1      27.022  71.229  48.354  1.00  0.00     0.016 C
ENDROOT
BRANCH   1  10
HETATM   10  C7  UNL     1      28.556  75.887  48.088  1.00  0.00     0.144 C
HETATM   11  C6  UNL     1      27.399  75.906  47.142  1.00  0.00     0.049 C
HETATM   12  C5  UNL     1      26.154  76.573  47.705  1.00  0.00     0.013 C
HETATM   13  C4  UNL     1      26.312  77.996  48.080  1.00  0.00     0.020 C
HETATM   14  C20 UNL     1      27.670  78.153  48.753  1.00  0.00     0.090 C
HETATM   15  C19 UNL     1      28.166  76.837  49.207  1.00  0.00     0.164 C
HETATM   16  O6  UNL     1      28.238  76.579  50.375  1.00  0.00    -0.295 OA
BRANCH  13  17
HETATM   17  C2  UNL     1      26.128  78.987  47.008  1.00  0.00    -0.089 C
HETATM   18  C1  UNL     1      26.553  78.804  45.783  1.00  0.00     0.014 C
HETATM   19  C3  UNL     1      25.427  80.268  47.339  1.00  0.00     0.043 C
ENDBRANCH  13  17
BRANCH  10  20
HETATM   20  O1  UNL     1      29.665  76.456  47.414  1.00  0.00    -0.379 OA
ATOM     21  H1  UNL     1      30.271  75.752  47.218  1.00  0.00     0.211 HD
ENDBRANCH  10  20
ENDBRANCH   1  10
BRANCH   3  22
HETATM   22  C10 UNL     1      32.272  73.494  48.012  1.00  0.00     0.147 C
BRANCH  22  23
HETATM   23  C11 UNL     1      33.193  74.652  47.947  1.00  0.00     0.175 C
HETATM   24  O3  UNL     1      34.378  74.523  48.348  1.00  0.00    -0.648 OA
HETATM   25  O4  UNL     1      32.786  75.882  47.457  1.00  0.00    -0.648 OA
ENDBRANCH  22  23
ENDBRANCH   3  22
BRANCH   4  26
HETATM   26  O5  UNL     1      31.053  71.792  46.636  1.00  0.00    -0.388 OA
HETATM   27  C13 UNL     1      30.686  70.863  45.695  1.00  0.00     0.202 C
ENDBRANCH   4  26
TORSDOF 6
ENDMDL