MODEL 2
REMARK VINA RESULT: -7.563236355      2.469      7.784
REMARK  6 active torsions:
REMARK  status: ('A' for Active; 'I' for Inactive)
REMARK    1  A    between atoms: C2_2  and  C3_3
REMARK    2  A    between atoms: C9_13  and  C10_14
REMARK    3  A    between atoms: C10_14  and  C11_15
REMARK    4  A    between atoms: C11_15  and  O3_17
REMARK    5  A    between atoms: O3_17  and  C12_18
REMARK    6  A    between atoms: C16_22  and  C17_23
ROOT
HETATM    1  C3  UNL     1      24.594  81.779  47.232  1.00  0.00    -0.082 C
HETATM    2  C4  UNL     1      24.986  82.982  47.598  1.00  0.00    -0.022 C
HETATM    3  C5  UNL     1      25.389  83.811  48.754  1.00  0.00     0.056 C
HETATM    4  C6  UNL     1      24.764  83.407  50.054  1.00  0.00     0.188 C
HETATM    5  C7  UNL     1      25.057  84.500  51.013  1.00  0.00     0.073 C
HETATM    6  N1  UNL     1      25.300  85.339  51.761  1.00  0.00    -0.196 NA
HETATM    7  C8  UNL     1      25.340  82.152  50.576  1.00  0.00     0.236 C
HETATM    8  O1  UNL     1      25.830  82.281  51.739  1.00  0.00    -0.272 OA
HETATM    9  N2  UNL     1      25.494  80.831  50.127  1.00  0.00    -0.355 N
ATOM     10  H2  UNL     1      25.614  80.186  50.909  1.00  0.00     0.162 HD
HETATM   11  C9  UNL     1      25.531  80.139  48.874  1.00  0.00     0.097 C
HETATM   12  C19 UNL     1      24.360  80.527  47.999  1.00  0.00     0.059 C
ENDROOT
BRANCH   1  13
HETATM   13  C2  UNL     1      24.351  81.683  45.784  1.00  0.00     0.029 C
HETATM   14  C1  UNL     1      25.476  82.275  44.962  1.00  0.00     0.010 C
ENDBRANCH   1  13
BRANCH  11  15
HETATM   15  C10 UNL     1      26.832  80.244  48.131  1.00  0.00     0.136 C
BRANCH  15  16
HETATM   16  C11 UNL     1      26.988  78.982  47.360  1.00  0.00     0.261 C
HETATM   17  O2  UNL     1      26.345  78.832  46.264  1.00  0.00    -0.265 OA
BRANCH  16  18
HETATM   18  O3  UNL     1      27.784  77.931  47.722  1.00  0.00    -0.316 OA
BRANCH  18  19
HETATM   19  C12 UNL     1      27.458  77.056  48.812  1.00  0.00     0.132 C
HETATM   20  C13 UNL     1      26.435  76.082  48.318  1.00  0.00     0.032 C
HETATM   21  C14 UNL     1      27.081  74.862  47.743  1.00  0.00     0.004 C
HETATM   22  C15 UNL     1      28.013  74.142  48.671  1.00  0.00     0.015 C
HETATM   23  C16 UNL     1      28.605  75.016  49.733  1.00  0.00     0.089 C
HETATM   24  C18 UNL     1      28.702  76.465  49.355  1.00  0.00     0.048 C
BRANCH  23  25
HETATM   25  C17 UNL     1      27.919  74.817  51.038  1.00  0.00     0.177 C
HETATM   26  O4  UNL     1      27.309  73.730  51.330  1.00  0.00    -0.648 OA
HETATM   27  O5  UNL     1      27.900  75.793  52.018  1.00  0.00    -0.648 OA
ENDBRANCH  23  25
ENDBRANCH  18  19
ENDBRANCH  16  18
ENDBRANCH  15  16
ENDBRANCH  11  15
TORSDOF 6
ENDMDL