MODEL 5
REMARK VINA RESULT: -7.486011741      2.665      3.856
REMARK  6 active torsions:
REMARK  status: ('A' for Active; 'I' for Inactive)
REMARK    1  A    between atoms: O1_3  and  C3_4
REMARK    2  A    between atoms: C3_4  and  C4_6
REMARK    3  A    between atoms: C7_9  and  N1_10
REMARK       I    between atoms: N1_10  and  C8_12
REMARK    4  A    between atoms: C8_12  and  C9_14
REMARK    5  A    between atoms: C9_14  and  C10_15
REMARK       I    between atoms: C10_15  and  N2_17
REMARK    6  A    between atoms: N2_17  and  C11_19
ROOT
HETATM    1  C1  UNL     1      24.532  84.751  51.254  1.00  0.00     0.132 C
HETATM    2  C2  UNL     1      25.015  84.342  50.210  1.00  0.00    -0.021 C
HETATM    3  O1  UNL     1      25.536  83.886  49.034  1.00  0.00    -0.239 OA
ENDROOT
BRANCH   3   4
HETATM    4  C3  UNL     1      24.683  83.582  47.997  1.00  0.00     0.275 C
HETATM    5  O2  UNL     1      24.163  84.540  47.353  1.00  0.00    -0.264 OA
BRANCH   4   6
HETATM    6  C4  UNL     1      24.383  82.168  47.644  1.00  0.00     0.086 C
HETATM    7  C5  UNL     1      25.206  81.829  46.438  1.00  0.00     0.017 C
HETATM    8  C6  UNL     1      25.476  80.349  46.305  1.00  0.00     0.026 C
HETATM    9  C7  UNL     1      25.978  79.752  47.578  1.00  0.00     0.084 C
HETATM   10  C17 UNL     1      24.845  79.875  48.595  1.00  0.00     0.026 C
HETATM   11  C18 UNL     1      24.631  81.330  48.847  1.00  0.00     0.017 C
BRANCH   9  12
HETATM   12  N1  UNL     1      26.243  78.334  47.394  1.00  0.00    -0.355 N
HETATM   13  C8  UNL     1      27.354  77.690  47.961  1.00  0.00     0.236 C
HETATM   14  O3  UNL     1      28.162  78.356  48.659  1.00  0.00    -0.272 OA
ATOM     15  H1  UNL     1      25.595  77.785  46.829  1.00  0.00     0.162 HD
BRANCH  13  16
HETATM   16  C9  UNL     1      27.589  76.251  47.758  1.00  0.00     0.122 A
HETATM   17  C15 UNL     1      28.906  75.643  48.079  1.00  0.00     0.031 A
HETATM   18  C16 UNL     1      27.727  75.408  48.992  1.00  0.00     0.031 A
BRANCH  16  19
HETATM   19  C10 UNL     1      26.843  75.614  46.609  1.00  0.00     0.240 C
HETATM   20  O4  UNL     1      25.595  75.633  46.647  1.00  0.00    -0.272 OA
HETATM   21  N2  UNL     1      27.580  75.048  45.579  1.00  0.00    -0.326 N
ATOM     22  H2  UNL     1      28.597  75.087  45.637  1.00  0.00     0.169 HD
BRANCH  21  23
HETATM   23  C11 UNL     1      26.979  74.402  44.420  1.00  0.00     0.041 A
HETATM   24  C12 UNL     1      26.448  73.171  44.514  1.00  0.00     0.037 A
HETATM   25  C13 UNL     1      25.889  72.637  43.394  1.00  0.00     0.052 A
HETATM   26  S1  UNL     1      26.109  73.854  42.226  1.00  0.00    -0.111 SA
HETATM   27  C14 UNL     1      26.912  75.019  43.204  1.00  0.00     0.079 A
ENDBRANCH  21  23
ENDBRANCH  16  19
ENDBRANCH  13  16
ENDBRANCH   9  12
ENDBRANCH   4   6
ENDBRANCH   3   4
TORSDOF 6
ENDMDL