MODEL 5
REMARK VINA RESULT: -5.898238184      2.386      7.415
REMARK  9 active torsions:
REMARK  status: ('A' for Active; 'I' for Inactive)
REMARK    1  A    between atoms: C2_2  and  C3_3
REMARK    2  A    between atoms: C3_3  and  C4_5
REMARK    3  A    between atoms: C4_5  and  C5_6
REMARK    4  A    between atoms: C5_6  and  S1_7
REMARK    5  A    between atoms: S1_7  and  C6_8
REMARK    6  A    between atoms: C6_8  and  N1_10
REMARK    7  A    between atoms: N1_10  and  C7_12
REMARK    8  A    between atoms: C7_12  and  N2_14
REMARK    9  A    between atoms: C10_17  and  C11_18
ROOT
HETATM    1  N1  UNL     1      25.850  80.048  48.628  1.00  0.00    -0.319 N
ATOM      2  H1  UNL     1      26.417  80.189  49.465  1.00  0.00     0.169 HD
ENDROOT
BRANCH   1   3
HETATM    3  C6  UNL     1      24.640  80.764  48.543  1.00  0.00     0.140 C
HETATM    4  S2  UNL     1      23.376  80.287  49.452  1.00  0.00    -0.052 SA
BRANCH   3   5
HETATM    5  S1  UNL     1      24.525  82.168  47.471  1.00  0.00    -0.100 SA
BRANCH   5   6
HETATM    6  C5  UNL     1      24.889  83.664  48.410  1.00  0.00     0.089 C
BRANCH   6   7
HETATM    7  C4  UNL     1      24.475  83.462  49.830  1.00  0.00     0.088 C
BRANCH   7   8
HETATM    8  C3  UNL     1      25.648  83.695  50.715  1.00  0.00     0.127 C
HETATM    9  O1  UNL     1      25.992  84.840  50.932  1.00  0.00    -0.298 OA
BRANCH   8  10
HETATM   10  C2  UNL     1      26.406  82.567  51.335  1.00  0.00     0.074 C
HETATM   11  C1  UNL     1      27.886  82.835  51.223  1.00  0.00     0.013 C
ENDBRANCH   8  10
ENDBRANCH   7   8
ENDBRANCH   6   7
ENDBRANCH   5   6
ENDBRANCH   3   5
ENDBRANCH   1   3
BRANCH   1  12
HETATM   12  C7  UNL     1      26.351  79.146  47.648  1.00  0.00     0.175 C
HETATM   13  S3  UNL     1      26.308  79.515  46.076  1.00  0.00    -0.041 SA
BRANCH  12  14
HETATM   14  N2  UNL     1      26.895  77.905  48.091  1.00  0.00    -0.358 N
HETATM   15  C8  UNL     1      28.252  77.903  48.599  1.00  0.00     0.126 C
HETATM   16  C9  UNL     1      28.255  76.886  49.737  1.00  0.00     0.033 C
HETATM   17  C10 UNL     1      28.163  75.522  49.118  1.00  0.00     0.078 C
HETATM   18  C12 UNL     1      27.085  75.466  48.096  1.00  0.00     0.033 C
HETATM   19  C13 UNL     1      26.175  76.674  48.059  1.00  0.00     0.126 C
BRANCH  17  20
HETATM   20  C11 UNL     1      27.971  74.530  50.207  1.00  0.00     0.235 C
HETATM   21  N3  UNL     1      27.860  73.164  49.860  1.00  0.00    -0.062 NA
HETATM   22  O2  UNL     1      27.914  74.942  51.386  1.00  0.00    -0.277 OA
ENDBRANCH  17  20
ENDBRANCH  12  14
ENDBRANCH   1  12
TORSDOF 9
ENDMDL