MODEL 1
REMARK VINA RESULT: -8.989320478      0.000      0.000
REMARK  7 active torsions:
REMARK  status: ('A' for Active; 'I' for Inactive)
REMARK    1  A    between atoms: C3_4  and  C4_5
REMARK    2  A    between atoms: C10_13  and  S1_14
REMARK    3  A    between atoms: S1_14  and  C11_15
REMARK    4  A    between atoms: C11_15  and  C12_16
REMARK    5  A    between atoms: C12_16  and  O1_17
REMARK    6  A    between atoms: C12_16  and  N3_19
REMARK    7  A    between atoms: N3_19  and  C13_21
ROOT
HETATM    1  N1  UNL     1      25.007  82.162  44.568  1.00  0.00    -0.191 NA
HETATM    2  C1  UNL     1      25.331  81.318  45.240  1.00  0.00     0.107 C
HETATM    3  C2  UNL     1      25.731  80.216  46.052  1.00  0.00     0.139 A
HETATM    4  C3  UNL     1      25.384  80.099  47.359  1.00  0.00     0.063 A
HETATM    5  N2  UNL     1      25.772  78.929  48.007  1.00  0.00    -0.335 N
ATOM      6  H2  UNL     1      25.511  78.831  48.988  1.00  0.00     0.168 HD
HETATM    7  C10 UNL     1      26.451  77.930  47.457  1.00  0.00     0.148 A
HETATM    8  N4  UNL     1      26.783  78.069  46.165  1.00  0.00    -0.302 N
ATOM      9  H4  UNL     1      27.305  77.324  45.704  1.00  0.00     0.171 HD
HETATM   10  C18 UNL     1      26.449  79.159  45.466  1.00  0.00     0.270 A
HETATM   11  O2  UNL     1      26.760  79.289  44.256  1.00  0.00    -0.266 OA
ENDROOT
BRANCH   4  12
HETATM   12  C4  UNL     1      24.782  81.117  48.218  1.00  0.00    -0.051 C
HETATM   13  C5  UNL     1      25.119  82.549  47.825  1.00  0.00     0.036 C
HETATM   14  C6  UNL     1      24.644  83.468  48.930  1.00  0.00     0.004 C
HETATM   15  C7  UNL     1      25.203  83.167  50.280  1.00  0.00     0.001 C
HETATM   16  C8  UNL     1      25.396  81.706  50.491  1.00  0.00     0.004 C
HETATM   17  C9  UNL     1      24.391  80.954  49.601  1.00  0.00     0.036 C
ENDBRANCH   4  12
BRANCH   7  18
HETATM   18  S1  UNL     1      26.960  76.531  48.457  1.00  0.00    -0.086 SA
BRANCH  18  19
HETATM   19  C11 UNL     1      28.318  76.860  49.551  1.00  0.00     0.165 C
BRANCH  19  20
HETATM   20  C12 UNL     1      29.235  77.900  49.068  1.00  0.00     0.121 C
BRANCH  20  21
HETATM   21  O1  UNL     1      28.884  79.148  49.334  1.00  0.00    -0.349 OA
ATOM     22  H1  UNL     1      28.184  79.504  48.801  1.00  0.00     0.219 HD
ENDBRANCH  20  21
BRANCH  20  23
HETATM   23  N3  UNL     1      30.414  77.773  48.362  1.00  0.00    -0.369 N
ATOM     24  H3  UNL     1      30.663  78.512  47.705  1.00  0.00     0.161 HD
BRANCH  23  25
HETATM   25  C13 UNL     1      31.323  76.644  48.504  1.00  0.00     0.083 C
HETATM   26  C14 UNL     1      32.704  77.056  48.097  1.00  0.00     0.025 C
HETATM   27  C15 UNL     1      33.399  75.765  47.781  1.00  0.00     0.002 C
HETATM   28  C16 UNL     1      32.305  74.880  47.208  1.00  0.00     0.002 C
HETATM   29  C17 UNL     1      30.990  75.625  47.416  1.00  0.00     0.025 C
ENDBRANCH  23  25
ENDBRANCH  20  23
ENDBRANCH  19  20
ENDBRANCH  18  19
ENDBRANCH   7  18
TORSDOF 7
ENDMDL