MODEL 2
REMARK VINA RESULT: -6.545894718      1.361      1.644
REMARK  4 active torsions:
REMARK  status: ('A' for Active; 'I' for Inactive)
REMARK    1  A    between atoms: O1_1  and  C1_3
REMARK    2  A    between atoms: C4_6  and  N1_7
REMARK    3  A    between atoms: C8_11  and  C9_12
REMARK    4  A    between atoms: C9_12  and  N2_13
ROOT
HETATM    1  N1  UNL     1      53.477  43.884  88.655  1.00  0.00     0.093 N
HETATM    2  C5  UNL     1      53.734  45.174  89.197  1.00  0.00     0.273 C
HETATM    3  C6  UNL     1      52.579  46.123  89.131  1.00  0.00     0.031 C
HETATM    4  C7  UNL     1      52.311  46.413  87.660  1.00  0.00     0.010 C
HETATM    5  C8  UNL     1      52.357  45.142  86.887  1.00  0.00     0.034 C
HETATM    6  C12 UNL     1      52.377  43.888  87.708  1.00  0.00     0.279 C
ENDROOT
BRANCH   1   7
HETATM    7  C4  UNL     1      53.359  42.798  89.573  1.00  0.00     0.223 C
HETATM    8  C3  UNL     1      54.668  42.315  90.131  1.00  0.00     0.038 C
HETATM    9  C2  UNL     1      54.299  41.548  91.417  1.00  0.00     0.034 C
HETATM   10  C1  UNL     1      53.175  40.586  91.191  1.00  0.00     0.118 C
HETATM   11  C14 UNL     1      53.065  40.307  89.716  1.00  0.00     0.034 C
HETATM   12  C13 UNL     1      52.681  41.585  88.960  1.00  0.00     0.038 C
BRANCH  10  13
HETATM   13  O1  UNL     1      53.442  39.391  91.850  1.00  0.00    -0.396 OA
ATOM     14  H1  UNL     1      52.640  38.890  91.942  1.00  0.00     0.210 HD
ENDBRANCH  10  13
ENDBRANCH   1   7
BRANCH   5  15
HETATM   15  C9  UNL     1      53.353  45.149  85.753  1.00  0.00     0.156 C
BRANCH  15  16
HETATM   16  N2  UNL     1      53.002  44.226  84.699  1.00  0.00    -0.286 N
HETATM   17  C10 UNL     1      53.911  43.351  84.141  1.00  0.00     0.201 A
HETATM   18  N3  UNL     1      53.288  42.622  83.213  1.00  0.00    -0.346 N
HETATM   19  C11 UNL     1      52.014  43.005  83.152  1.00  0.00     0.198 A
ATOM     20  H3  UNL     1      53.718  41.892  82.643  1.00  0.00     0.167 HD
HETATM   21  N4  UNL     1      51.870  43.986  84.076  1.00  0.00    -0.293 N
ATOM     22  H4  UNL     1      50.994  44.475  84.263  1.00  0.00     0.188 HD
ENDBRANCH  15  16
ENDBRANCH   5  15
TORSDOF 4
ENDMDL