MODEL 2
REMARK VINA RESULT: -6.879520208      2.250      5.870
REMARK  3 active torsions:
REMARK  status: ('A' for Active; 'I' for Inactive)
REMARK    1  A    between atoms: N1_4  and  C4_5
REMARK    2  A    between atoms: C4_5  and  C5_6
REMARK    3  A    between atoms: C6_11  and  C7_12
ROOT
HETATM    1  C5  UNL     1      50.659  42.414  89.659  1.00  0.00     0.168 A
HETATM    2  N2  UNL     1      50.604  41.120  89.972  1.00  0.00    -0.280 N
ATOM      3  H2  UNL     1      49.744  40.607  90.169  1.00  0.00     0.189 HD
HETATM    4  N3  UNL     1      51.821  40.590  89.994  1.00  0.00    -0.281 N
ATOM      5  H3  UNL     1      52.081  39.626  90.201  1.00  0.00     0.189 HD
HETATM    6  C6  UNL     1      52.640  41.629  89.678  1.00  0.00     0.144 A
HETATM    7  O1  UNL     1      51.931  42.687  89.486  1.00  0.00    -0.280 OA
ENDROOT
BRANCH   6   8
HETATM    8  C7  UNL     1      54.116  41.550  89.571  1.00  0.00     0.065 C
HETATM    9  C8  UNL     1      54.651  42.892  90.087  1.00  0.00     0.040 C
HETATM   10  C9  UNL     1      56.165  42.779  90.002  1.00  0.00     0.233 C
HETATM   11  N4  UNL     1      56.565  42.802  88.629  1.00  0.00    -0.075 N
HETATM   12  C10 UNL     1      55.472  42.557  87.712  1.00  0.00     0.233 C
ATOM     13  H42 UNL     1      57.038  43.677  88.403  1.00  0.00     0.277 HD
ATOM     14  H41 UNL     1      57.331  42.150  88.463  1.00  0.00     0.277 HD
HETATM   15  C11 UNL     1      54.587  41.427  88.146  1.00  0.00     0.040 C
ENDBRANCH   6   8
BRANCH   1  16
HETATM   16  C4  UNL     1      49.599  43.432  89.506  1.00  0.00     0.358 C
BRANCH  16  17
HETATM   17  N1  UNL     1      49.606  44.088  88.241  1.00  0.00     0.096 N
HETATM   18  C3  UNL     1      49.748  43.189  87.139  1.00  0.00     0.273 C
HETATM   19  C2  UNL     1      50.965  43.411  86.303  1.00  0.00     0.030 C
HETATM   20  C1  UNL     1      51.210  44.831  85.923  1.00  0.00     0.003 C
HETATM   21  C13 UNL     1      50.770  45.827  86.965  1.00  0.00     0.030 C
HETATM   22  C12 UNL     1      50.647  45.101  88.283  1.00  0.00     0.273 C
ENDBRANCH  16  17
ENDBRANCH   1  16
TORSDOF 3
ENDMDL