MODEL 3
REMARK VINA RESULT: -5.242362106      1.226      1.409
REMARK  3 active torsions:
REMARK  status: ('A' for Active; 'I' for Inactive)
REMARK    1  A    between atoms: C2_2  and  N1_4
REMARK    2  A    between atoms: C5_6  and  C6_7
REMARK       I    between atoms: C6_7  and  N2_9
REMARK    3  A    between atoms: N2_9  and  C7_11
ROOT
HETATM    1  C6  UNL     1      54.862  42.612  88.335  1.00  0.00     0.261 C
HETATM    2  O1  UNL     1      54.767  41.367  88.435  1.00  0.00    -0.267 OA
HETATM    3  N2  UNL     1      53.699  43.364  88.044  1.00  0.00    -0.350 N
ATOM      4  H2  UNL     1      53.776  44.378  87.962  1.00  0.00     0.163 HD
ENDROOT
BRANCH   1   5
HETATM    5  C5  UNL     1      56.150  43.241  88.519  1.00  0.00     0.105 A
HETATM    6  C4  UNL     1      56.753  44.458  88.214  1.00  0.00     0.125 A
HETATM    7  N1  UNL     1      58.011  44.365  88.693  1.00  0.00    -0.322 N
HETATM    8  S1  UNL     1      57.638  42.827  89.213  1.00  0.00    -0.005 SA
BRANCH   7   9
HETATM    9  C2  UNL     1      59.222  45.128  88.793  1.00  0.00     0.088 C
HETATM   10  C1  UNL     1      59.921  45.140  87.428  1.00  0.00     0.033 C
HETATM   11  C3  UNL     1      58.867  46.561  89.100  1.00  0.00     0.033 C
ENDBRANCH   7   9
ENDBRANCH   1   5
BRANCH   3  12
HETATM   12  C7  UNL     1      52.414  42.749  87.860  1.00  0.00     0.115 C
HETATM   13  C8  UNL     1      51.508  43.534  86.956  1.00  0.00     0.062 C
HETATM   14  C9  UNL     1      50.113  43.219  87.445  1.00  0.00     0.226 A
HETATM   15  C10 UNL     1      49.314  44.398  87.885  1.00  0.00     0.066 A
HETATM   16  N3  UNL     1      50.236  42.686  88.773  1.00  0.00     0.095 N
HETATM   17  C11 UNL     1      49.428  43.790  89.251  1.00  0.00     0.275 A
HETATM   18  C12 UNL     1      51.612  42.703  89.148  1.00  0.00     0.298 C
ENDBRANCH   3  12
TORSDOF 3
ENDMDL