MODEL 2
REMARK VINA RESULT: -6.249823633      2.049      5.520
REMARK  4 active torsions:
REMARK  status: ('A' for Active; 'I' for Inactive)
REMARK    1  A    between atoms: C6_6  and  O1_7
REMARK    2  A    between atoms: N1_10  and  O2_12
REMARK    3  A    between atoms: O2_12  and  C8_13
REMARK    4  A    between atoms: C8_13  and  C9_14
ROOT
HETATM    1  C1  UNL     1      57.103  42.821  89.524  1.00  0.00     0.040 C
HETATM    2  C2  UNL     1      55.923  41.860  89.723  1.00  0.00     0.126 C
HETATM    3  C3  UNL     1      55.308  42.179  91.040  1.00  0.00     0.039 C
HETATM    4  C4  UNL     1      53.946  41.565  91.249  1.00  0.00     0.021 C
HETATM    5  C5  UNL     1      54.052  40.099  91.610  1.00  0.00     0.013 C
HETATM    6  C6  UNL     1      52.995  41.821  90.128  1.00  0.00     0.198 C
HETATM    7  C7  UNL     1      53.647  42.150  88.854  1.00  0.00     0.168 C
HETATM    8  N1  UNL     1      52.921  42.477  87.840  1.00  0.00    -0.246 N
ATOM      9  H1  UNL     1      53.406  42.698  86.970  1.00  0.00     0.196 HD
HETATM   10  O3  UNL     1      55.022  42.130  88.671  1.00  0.00    -0.331 OA
ENDROOT
BRANCH   6  11
HETATM   11  O1  UNL     1      52.146  40.703  90.006  1.00  0.00    -0.387 OA
ATOM     12  H1  UNL     1      51.783  40.700  89.128  1.00  0.00     0.210 HD
ENDBRANCH   6  11
BRANCH   8  13
HETATM   13  O2  UNL     1      51.573  42.550  87.831  1.00  0.00    -0.278 OA
BRANCH  13  14
HETATM   14  C8  UNL     1      50.799  43.400  87.041  1.00  0.00     0.207 C
BRANCH  14  15
HETATM   15  C9  UNL     1      50.062  44.441  87.860  1.00  0.00     0.042 C
HETATM   16  C10 UNL     1      50.872  44.792  89.117  1.00  0.00     0.038 C
HETATM   17  C11 UNL     1      51.934  45.690  88.519  1.00  0.00     0.272 C
HETATM   18  N2  UNL     1      51.187  46.513  87.617  1.00  0.00     0.084 N
HETATM   19  C12 UNL     1      51.966  47.093  86.559  1.00  0.00     0.309 C
HETATM   20  C13 UNL     1      50.045  45.783  87.161  1.00  0.00     0.278 C
ENDBRANCH  14  15
ENDBRANCH  13  14
ENDBRANCH   8  13
TORSDOF 4
ENDMDL