MODEL 4
REMARK VINA RESULT: -7.211753758      1.113      2.115
REMARK  3 active torsions:
REMARK  status: ('A' for Active; 'I' for Inactive)
REMARK    1  A    between atoms: C2_3  and  C3_4
REMARK    2  A    between atoms: C3_4  and  S1_5
REMARK    3  A    between atoms: S1_5  and  C4_6
ROOT
HETATM    1  C1  UNL     1      51.908  45.642  86.665  1.00  0.00     0.173 C
HETATM    2  O1  UNL     1      52.905  44.849  87.125  1.00  0.00    -0.379 OA
HETATM    3  C2  UNL     1      52.445  43.674  87.802  1.00  0.00     0.073 C
HETATM    4  C5  UNL     1      51.378  43.047  86.924  1.00  0.00     0.044 C
HETATM    5  C6  UNL     1      50.080  43.420  87.571  1.00  0.00    -0.011 C
HETATM    6  C7  UNL     1      49.672  44.849  87.434  1.00  0.00     0.011 C
HETATM    7  C8  UNL     1      50.840  45.791  87.724  1.00  0.00     0.010 C
HETATM    8  C9  UNL     1      51.409  45.477  89.084  1.00  0.00     0.014 C
HETATM    9  C10 UNL     1      51.775  43.998  89.090  1.00  0.00     0.022 C
HETATM   10  C11 UNL     1      50.437  43.235  89.055  1.00  0.00     0.012 C
ENDROOT
BRANCH   3  11
HETATM   11  C3  UNL     1      53.647  42.833  87.975  1.00  0.00     0.120 C
BRANCH  11  12
HETATM   12  S1  UNL     1      53.613  41.270  88.736  1.00  0.00    -0.088 SA
BRANCH  12  13
HETATM   13  C4  UNL     1      53.462  41.124  90.463  1.00  0.00     0.173 A
HETATM   14  N1  UNL     1      54.227  41.543  91.452  1.00  0.00    -0.266 N
HETATM   15  N2  UNL     1      53.749  41.223  92.634  1.00  0.00    -0.224 N
ATOM     16  H1  UNL     1      55.096  42.060  91.314  1.00  0.00     0.190 HD
HETATM   17  N3  UNL     1      52.625  40.568  92.389  1.00  0.00    -0.005 NA
ATOM     18  H2  UNL     1      54.158  41.434  93.544  1.00  0.00     0.205 HD
HETATM   19  N4  UNL     1      52.417  40.488  91.085  1.00  0.00    -0.261 N
ATOM     20  H4  UNL     1      51.626  40.036  90.625  1.00  0.00     0.186 HD
ENDBRANCH  12  13
ENDBRANCH  11  12
ENDBRANCH   3  11
TORSDOF 3
ENDMDL