MODEL 3
REMARK VINA RESULT: -6.739871903      2.567      3.218
REMARK  3 active torsions:
REMARK  status: ('A' for Active; 'I' for Inactive)
REMARK    1  A    between atoms: N1_10  and  C7_11
REMARK    2  A    between atoms: C7_11  and  S2_12
REMARK    3  A    between atoms: S2_12  and  C8_13
ROOT
HETATM    1  O1  UNL     1      51.412  45.226  85.931  1.00  0.00    -0.211 OA
HETATM    2  S1  UNL     1      51.428  44.151  87.021  1.00  0.00     0.212 S
HETATM    3  O2  UNL     1      50.444  43.109  86.519  1.00  0.00    -0.211 OA
HETATM    4  C1  UNL     1      50.739  44.771  88.514  1.00  0.00     0.157 C
HETATM    5  C2  UNL     1      51.463  45.876  89.165  1.00  0.00     0.016 C
HETATM    6  C3  UNL     1      52.844  46.147  88.700  1.00  0.00     0.001 C
HETATM    7  C4  UNL     1      53.755  45.086  89.280  1.00  0.00     0.001 C
HETATM    8  C5  UNL     1      54.722  44.544  88.282  1.00  0.00     0.015 C
HETATM    9  C6  UNL     1      54.090  44.192  86.963  1.00  0.00     0.108 C
HETATM   10  N1  UNL     1      52.927  43.400  87.164  1.00  0.00    -0.201 NA
ENDROOT
BRANCH  10  11
HETATM   11  C7  UNL     1      53.060  42.209  86.361  1.00  0.00     0.190 C
BRANCH  11  12
HETATM   12  S2  UNL     1      53.807  40.942  87.462  1.00  0.00    -0.067 SA
BRANCH  12  13
HETATM   13  C8  UNL     1      52.907  40.863  88.982  1.00  0.00     0.227 A
HETATM   14  N2  UNL     1      52.302  41.711  89.826  1.00  0.00    -0.252 N
HETATM   15  N3  UNL     1      51.960  40.707  90.596  1.00  0.00    -0.197 N
ATOM     16  H2  UNL     1      52.165  42.721  89.856  1.00  0.00     0.191 HD
HETATM   17  O3  UNL     1      52.545  39.860  89.792  1.00  0.00    -0.195 OA
ATOM     18  H3  UNL     1      51.445  40.621  91.472  1.00  0.00     0.216 HD
ENDBRANCH  12  13
ENDBRANCH  11  12
ENDBRANCH  10  11
TORSDOF 3
ENDMDL