MODEL 3
REMARK VINA RESULT: -6.167568653      1.994      2.810
REMARK  4 active torsions:
REMARK  status: ('A' for Active; 'I' for Inactive)
REMARK    1  A    between atoms: C2_2  and  C4_4
REMARK    2  A    between atoms: C4_4  and  O1_11
REMARK    3  A    between atoms: N1_5  and  N2_7
REMARK    4  A    between atoms: O1_11  and  C7_12
ROOT
HETATM    1  N2  UNL     1      55.833  42.783  89.799  1.00  0.00    -0.231 N
HETATM    2  C5  UNL     1      57.259  42.703  89.501  1.00  0.00     0.191 C
HETATM    3  C6  UNL     1      55.351  42.074  90.908  1.00  0.00     0.200 C
HETATM    4  N3  UNL     1      54.947  41.501  91.835  1.00  0.00    -0.170 NA
ENDROOT
BRANCH   1   5
HETATM    5  N1  UNL     1      54.954  43.548  89.000  1.00  0.00    -0.272 N
HETATM    6  C4  UNL     1      54.344  42.980  88.021  1.00  0.00     0.137 C
ATOM      7  H1  UNL     1      54.805  44.538  89.198  1.00  0.00     0.189 HD
BRANCH   6   8
HETATM    8  C2  UNL     1      54.531  41.537  87.695  1.00  0.00     0.054 C
HETATM    9  C1  UNL     1      54.452  41.271  86.231  1.00  0.00     0.018 C
HETATM   10  C3  UNL     1      53.453  40.717  88.379  1.00  0.00     0.018 C
ENDBRANCH   6   8
BRANCH   6  11
HETATM   11  O1  UNL     1      53.506  43.793  87.293  1.00  0.00    -0.332 OA
BRANCH  11  12
HETATM   12  C7  UNL     1      52.173  43.947  87.575  1.00  0.00     0.134 C
HETATM   13  C8  UNL     1      51.206  42.956  87.038  1.00  0.00     0.065 C
HETATM   14  C9  UNL     1      49.819  43.615  87.067  1.00  0.00     0.189 C
HETATM   15  C10 UNL     1      48.866  42.839  87.987  1.00  0.00     0.035 C
HETATM   16  N4  UNL     1      49.868  44.880  87.815  1.00  0.00    -0.067 N
HETATM   17  C11 UNL     1      49.555  43.121  89.331  1.00  0.00     0.035 C
HETATM   18  C12 UNL     1      50.348  44.393  89.116  1.00  0.00     0.189 C
HETATM   19  C13 UNL     1      51.857  44.112  89.056  1.00  0.00     0.065 C
ATOM     20  H42 UNL     1      50.418  45.627  87.390  1.00  0.00     0.278 HD
ATOM     21  H41 UNL     1      49.001  45.418  87.835  1.00  0.00     0.278 HD
ENDBRANCH  11  12
ENDBRANCH   6  11
ENDBRANCH   1   5
TORSDOF 4
ENDMDL