MODEL 1
REMARK VINA RESULT: -6.438905857      0.000      0.000
REMARK  3 active torsions:
REMARK  status: ('A' for Active; 'I' for Inactive)
REMARK    1  A    between atoms: C1_2  and  C2_4
REMARK    2  A    between atoms: C2_4  and  N1_5
REMARK    3  A    between atoms: N2_11  and  C6_13
ROOT
HETATM    1  N1  UNL     1      52.430  41.943  89.551  1.00  0.00    -0.291 N
HETATM    2  S1  UNL     1      50.720  42.340  89.514  1.00  0.00    -0.050 SA
HETATM    3  C3  UNL     1      50.498  43.776  88.452  1.00  0.00     0.108 C
HETATM    4  C4  UNL     1      51.276  44.973  88.952  1.00  0.00     0.094 C
HETATM    5  S2  UNL     1      53.019  44.635  89.173  1.00  0.00    -0.093 SA
HETATM    6  C5  UNL     1      53.429  42.927  89.194  1.00  0.00     0.149 C
HETATM    7  N2  UNL     1      54.581  42.514  88.905  1.00  0.00    -0.366 N
ATOM      8  H2  UNL     1      54.677  41.500  88.959  1.00  0.00     0.162 HD
ENDROOT
BRANCH   1   9
HETATM    9  C2  UNL     1      52.920  40.644  89.930  1.00  0.00     0.252 C
BRANCH   9  10
HETATM   10  C1  UNL     1      53.146  40.439  91.358  1.00  0.00     0.192 C
HETATM   11  O1  UNL     1      52.652  41.197  92.211  1.00  0.00    -0.647 OA
HETATM   12  O2  UNL     1      53.925  39.380  91.771  1.00  0.00    -0.647 OA
ENDBRANCH   9  10
ENDBRANCH   1   9
BRANCH   7  13
HETATM   13  C6  UNL     1      55.766  43.172  88.521  1.00  0.00     0.083 C
HETATM   14  C7  UNL     1      56.331  42.836  87.181  1.00  0.00     0.025 C
HETATM   15  C8  UNL     1      57.824  42.572  87.389  1.00  0.00     0.002 C
HETATM   16  C9  UNL     1      58.101  43.222  88.707  1.00  0.00     0.002 C
HETATM   17  C10 UNL     1      56.882  42.850  89.516  1.00  0.00     0.025 C
ENDBRANCH   7  13
TORSDOF 3
ENDMDL