MODEL 3
REMARK VINA RESULT: -6.344795177      3.011      4.213
REMARK  4 active torsions:
REMARK  status: ('A' for Active; 'I' for Inactive)
REMARK    1  A    between atoms: C3_5  and  S1_6
REMARK    2  A    between atoms: S1_6  and  C4_7
REMARK    3  A    between atoms: C4_7  and  C5_8
REMARK    4  A    between atoms: C5_8  and  N2_9
ROOT
HETATM    1  C5  UNL     1      53.326  43.019  87.611  1.00  0.00     0.283 C
ENDROOT
BRANCH   1   2
HETATM    2  C4  UNL     1      52.878  42.304  86.385  1.00  0.00     0.112 C
BRANCH   2   3
HETATM    3  S1  UNL     1      51.562  43.132  85.495  1.00  0.00    -0.093 SA
BRANCH   3   4
HETATM    4  C3  UNL     1      52.051  43.340  83.791  1.00  0.00     0.136 C
HETATM    5  N1  UNL     1      52.808  44.441  83.240  1.00  0.00    -0.369 N
HETATM    6  C2  UNL     1      53.355  43.981  81.977  1.00  0.00     0.141 C
ATOM      7  H1  UNL     1      52.933  45.363  83.657  1.00  0.00     0.161 HD
HETATM    8  C1  UNL     1      52.311  42.957  81.580  1.00  0.00     0.141 C
HETATM    9  N3  UNL     1      51.781  42.515  82.844  1.00  0.00    -0.369 N
ATOM     10  H3  UNL     1      51.254  41.651  82.971  1.00  0.00     0.161 HD
ENDBRANCH   3   4
ENDBRANCH   2   3
ENDBRANCH   1   2
BRANCH   1  11
HETATM   11  N2  UNL     1      52.911  42.367  88.818  1.00  0.00     0.091 N
HETATM   12  C6  UNL     1      51.567  42.667  89.228  1.00  0.00     0.298 C
HETATM   13  C7  UNL     1      51.083  41.430  89.998  1.00  0.00     0.198 C
HETATM   14  O1  UNL     1      51.954  41.125  91.015  1.00  0.00    -0.384 OA
HETATM   15  C8  UNL     1      53.117  40.496  90.617  1.00  0.00     0.127 C
HETATM   16  C9  UNL     1      53.823  39.968  91.878  1.00  0.00     0.033 C
HETATM   17  C11 UNL     1      54.287  41.489  90.545  1.00  0.00     0.043 C
HETATM   18  C10 UNL     1      54.290  41.422  92.057  1.00  0.00     0.011 C
HETATM   19  C12 UNL     1      53.782  42.741  89.921  1.00  0.00     0.279 C
ENDBRANCH   1  11
TORSDOF 4
ENDMDL