MODEL 4
REMARK VINA RESULT: -5.429457587      2.005      3.344
REMARK  4 active torsions:
REMARK  status: ('A' for Active; 'I' for Inactive)
REMARK    1  A    between atoms: C2_2  and  C3_3
REMARK    2  A    between atoms: C4_5  and  O2_6
REMARK    3  A    between atoms: C6_10  and  O4_11
REMARK    4  A    between atoms: C7_13  and  O5_14
ROOT
HETATM    1  C3  UNL     1      11.119 -41.826 -79.090  1.00  0.00     0.196 C
HETATM    2  O1  UNL     1      12.161 -41.159 -79.730  1.00  0.00    -0.320 OA
HETATM    3  C4  UNL     1      13.024 -40.715 -78.714  1.00  0.00     0.292 C
HETATM    4  C5  UNL     1      12.180 -40.980 -77.491  1.00  0.00     0.211 C
HETATM    5  O3  UNL     1      11.675 -42.255 -77.856  1.00  0.00    -0.340 OA
HETATM    6  C6  UNL     1      10.950 -40.111 -77.531  1.00  0.00     0.186 C
HETATM    7  C7  UNL     1      10.083 -40.872 -78.549  1.00  0.00     0.212 C
ENDROOT
BRANCH   1   8
HETATM    8  C2  UNL     1      10.585 -42.939 -79.896  1.00  0.00     0.067 C
HETATM    9  C1  UNL     1      11.544 -44.044 -80.172  1.00  0.00     0.010 C
ENDBRANCH   1   8
BRANCH   7  10
HETATM   10  O5  UNL     1       9.561 -40.036 -79.499  1.00  0.00    -0.387 OA
ATOM     11  H5  UNL     1      10.203 -39.720 -80.123  1.00  0.00     0.210 HD
ENDBRANCH   7  10
BRANCH   3  12
HETATM   12  O2  UNL     1      14.104 -41.565 -78.689  1.00  0.00    -0.368 OA
ATOM     13  H2  UNL     1      14.602 -41.416 -79.483  1.00  0.00     0.212 HD
ENDBRANCH   3  12
BRANCH   6  14
HETATM   14  O4  UNL     1      10.313 -40.017 -76.303  1.00  0.00    -0.390 OA
ATOM     15  H4  UNL     1       9.601 -40.638 -76.206  1.00  0.00     0.210 HD
ENDBRANCH   6  14
TORSDOF 4
ENDMDL