MODEL 1
REMARK VINA RESULT: -5.902975132      0.000      0.000
REMARK  3 active torsions:
REMARK  status: ('A' for Active; 'I' for Inactive)
REMARK    1  A    between atoms: O1_2  and  C2_3
REMARK    2  A    between atoms: C3_5  and  O3_6
REMARK    3  A    between atoms: C4_9  and  O5_10
ROOT
HETATM    1  C2  UNL     1      11.362 -40.707 -77.564  1.00  0.00     0.306 C
HETATM    2  O2  UNL     1      10.979 -39.789 -76.617  1.00  0.00    -0.305 OA
HETATM    3  C3  UNL     1       9.671 -39.358 -76.908  1.00  0.00     0.415 C
HETATM    4  O4  UNL     1       8.845 -40.419 -76.517  1.00  0.00    -0.305 OA
HETATM    5  C4  UNL     1       8.959 -41.452 -77.412  1.00  0.00     0.304 C
HETATM    6  C5  UNL     1      10.265 -41.553 -78.105  1.00  0.00     0.181 A
HETATM    7  C6  UNL     1      10.280 -41.886 -79.537  1.00  0.00     0.217 A
HETATM    8  O6  UNL     1      10.705 -42.842 -78.511  1.00  0.00    -0.364 OA
ENDROOT
BRANCH   1   9
HETATM    9  O1  UNL     1      12.435 -41.442 -77.075  1.00  0.00    -0.362 OA
HETATM   10  C1  UNL     1      13.622 -41.185 -77.739  1.00  0.00     0.204 C
ENDBRANCH   1   9
BRANCH   3  11
HETATM   11  O3  UNL     1       9.379 -38.215 -76.188  1.00  0.00    -0.349 OA
ATOM     12  H3  UNL     1       8.438 -38.114 -76.107  1.00  0.00     0.215 HD
ENDBRANCH   3  11
BRANCH   5  13
HETATM   13  O5  UNL     1       7.864 -41.362 -78.299  1.00  0.00    -0.368 OA
ATOM     14  H5  UNL     1       7.603 -42.249 -78.516  1.00  0.00     0.212 HD
ENDBRANCH   5  13
TORSDOF 3
ENDMDL