MODEL 5
REMARK VINA RESULT: -5.644376344      1.578      3.019
REMARK  3 active torsions:
REMARK  status: ('A' for Active; 'I' for Inactive)
REMARK    1  A    between atoms: O1_2  and  C2_3
REMARK    2  A    between atoms: C5_7  and  O3_8
REMARK    3  A    between atoms: C6_12  and  O6_13
ROOT
HETATM    1  C2  UNL     1      10.384 -39.745 -77.522  1.00  0.00     0.317 C
HETATM    2  O2  UNL     1      10.181 -40.590 -78.563  1.00  0.00    -0.346 OA
HETATM    3  C3  UNL     1       8.984 -40.538 -79.198  1.00  0.00     0.178 C
HETATM    4  C4  UNL     1       8.521 -39.165 -79.588  1.00  0.00     0.045 C
HETATM    5  C5  UNL     1       7.877 -41.276 -78.463  1.00  0.00     0.322 C
HETATM    6  O4  UNL     1       7.524 -40.696 -77.278  1.00  0.00    -0.203 OA
HETATM    7  O5  UNL     1       8.544 -40.704 -76.422  1.00  0.00    -0.200 OA
HETATM    8  C6  UNL     1       9.214 -39.509 -76.630  1.00  0.00     0.350 C
ENDROOT
BRANCH   1   9
HETATM    9  O1  UNL     1      11.375 -40.335 -76.707  1.00  0.00    -0.361 OA
HETATM   10  C1  UNL     1      12.257 -41.095 -77.466  1.00  0.00     0.205 C
ENDBRANCH   1   9
BRANCH   8  11
HETATM   11  O6  UNL     1       9.722 -39.120 -75.370  1.00  0.00    -0.365 OA
ATOM     12  H6  UNL     1      10.268 -39.833 -75.057  1.00  0.00     0.213 HD
ENDBRANCH   8  11
BRANCH   5  13
HETATM   13  O3  UNL     1       6.765 -41.276 -79.302  1.00  0.00    -0.366 OA
ATOM     14  H3  UNL     1       6.493 -40.371 -79.400  1.00  0.00     0.212 HD
ENDBRANCH   5  13
TORSDOF 3
ENDMDL