MODEL 3
REMARK VINA RESULT: -5.748339003      2.611      4.114
REMARK  2 active torsions:
REMARK  status: ('A' for Active; 'I' for Inactive)
REMARK    1  A    between atoms: C5_8  and  C6_9
REMARK    2  A    between atoms: C6_9  and  O4_10
ROOT
HETATM    1  C1  UNL     1      10.544 -40.615 -81.202  1.00  0.00     0.078 C
HETATM    2  C2  UNL     1      10.514 -41.407 -79.913  1.00  0.00     0.161 C
HETATM    3  C3  UNL     1       9.371 -42.413 -80.033  1.00  0.00     0.078 C
HETATM    4  O1  UNL     1      10.277 -40.633 -78.802  1.00  0.00    -0.321 OA
HETATM    5  C4  UNL     1      10.787 -41.394 -77.770  1.00  0.00     0.332 C
HETATM    6  O2  UNL     1      11.387 -40.613 -76.769  1.00  0.00    -0.205 OA
HETATM    7  O3  UNL     1      12.298 -39.925 -77.403  1.00  0.00    -0.228 OA
HETATM    8  C5  UNL     1      13.021 -40.815 -78.191  1.00  0.00     0.217 C
HETATM    9  C7  UNL     1      12.046 -41.966 -78.436  1.00  0.00     0.217 C
HETATM   10  O5  UNL     1      11.725 -42.040 -79.764  1.00  0.00    -0.343 OA
ENDROOT
BRANCH   8  11
HETATM   11  C6  UNL     1      14.228 -41.363 -77.471  1.00  0.00     0.202 C
BRANCH  11  12
HETATM   12  O4  UNL     1      15.387 -40.989 -78.149  1.00  0.00    -0.398 OA
ATOM     13  H4  UNL     1      15.620 -41.663 -78.777  1.00  0.00     0.209 HD
ENDBRANCH  11  12
ENDBRANCH   8  11
TORSDOF 2
ENDMDL