MODEL 4
REMARK VINA RESULT: -5.265277941      1.816      3.456
REMARK  4 active torsions:
REMARK  status: ('A' for Active; 'I' for Inactive)
REMARK    1  A    between atoms: O1_2  and  C2_3
REMARK    2  A    between atoms: C2_3  and  O2_4
REMARK    3  A    between atoms: C2_3  and  C3_6
REMARK    4  A    between atoms: C7_12  and  O5_13
ROOT
HETATM    1  C3  UNL     1      10.771 -40.616 -78.265  1.00  0.00     0.235 C
HETATM    2  O3  UNL     1      10.409 -41.872 -78.756  1.00  0.00    -0.341 OA
HETATM    3  C4  UNL     1      11.415 -42.143 -79.656  1.00  0.00     0.161 C
HETATM    4  C5  UNL     1      11.642 -43.624 -79.858  1.00  0.00     0.078 C
HETATM    5  C6  UNL     1      11.142 -41.535 -81.027  1.00  0.00     0.078 C
HETATM    6  O4  UNL     1      12.594 -41.585 -79.203  1.00  0.00    -0.324 OA
HETATM    7  C7  UNL     1      12.254 -40.816 -78.065  1.00  0.00     0.294 C
ENDROOT
BRANCH   1   8
HETATM    8  C2  UNL     1      10.024 -40.255 -77.020  1.00  0.00     0.289 C
BRANCH   8   9
HETATM    9  O1  UNL     1       8.850 -39.551 -77.239  1.00  0.00    -0.363 OA
HETATM   10  C1  UNL     1       8.882 -38.761 -78.361  1.00  0.00     0.204 C
ENDBRANCH   8   9
BRANCH   8  11
HETATM   11  O2  UNL     1      10.910 -39.441 -76.269  1.00  0.00    -0.368 OA
ATOM     12  H2  UNL     1      11.050 -39.845 -75.420  1.00  0.00     0.212 HD
ENDBRANCH   8  11
ENDBRANCH   1   8
BRANCH   7  13
HETATM   13  O5  UNL     1      12.554 -41.614 -76.975  1.00  0.00    -0.368 OA
ATOM     14  H5  UNL     1      12.582 -42.540 -77.187  1.00  0.00     0.212 HD
ENDBRANCH   7  13
TORSDOF 4
ENDMDL