MODEL 3
REMARK VINA RESULT: -5.875579345      0.089      1.240
REMARK  4 active torsions:
REMARK  status: ('A' for Active; 'I' for Inactive)
REMARK    1  A    between atoms: C2_2  and  O1_5
REMARK    2  A    between atoms: O1_5  and  N1_6
REMARK    3  A    between atoms: C6_8  and  O2_9
REMARK    4  A    between atoms: C7_11  and  O3_12
ROOT
HETATM    1  N1  UNL     1      10.901 -40.395 -77.392  1.00  0.00    -0.063 NA
HETATM    2  C5  UNL     1      10.849 -41.788 -77.795  1.00  0.00     0.190 C
HETATM    3  C6  UNL     1      12.201 -42.089 -78.372  1.00  0.00     0.192 C
HETATM    4  C7  UNL     1      12.857 -40.710 -78.334  1.00  0.00     0.311 C
HETATM    5  O4  UNL     1      12.190 -40.096 -77.307  1.00  0.00    -0.243 OA
ENDROOT
BRANCH   1   6
HETATM    6  O1  UNL     1      10.181 -40.159 -76.316  1.00  0.00    -0.269 OA
BRANCH   6   7
HETATM    7  C2  UNL     1       8.948 -39.593 -76.504  1.00  0.00     0.074 C
HETATM    8  C1  UNL     1       8.554 -38.614 -75.425  1.00  0.00     0.047 C
HETATM    9  C3  UNL     1       7.874 -40.601 -76.788  1.00  0.00     0.047 C
HETATM   10  C4  UNL     1       9.076 -38.748 -77.786  1.00  0.00     0.047 C
ENDBRANCH   6   7
ENDBRANCH   1   6
BRANCH   3  11
HETATM   11  O2  UNL     1      12.128 -42.433 -79.734  1.00  0.00    -0.389 OA
ATOM     12  H2  UNL     1      11.536 -41.866 -80.213  1.00  0.00     0.210 HD
ENDBRANCH   3  11
BRANCH   4  13
HETATM   13  O3  UNL     1      14.203 -40.818 -77.963  1.00  0.00    -0.367 OA
ATOM     14  H3  UNL     1      14.348 -40.413 -77.116  1.00  0.00     0.212 HD
ENDBRANCH   4  13
TORSDOF 4
ENDMDL