MODEL 2
REMARK VINA RESULT: -5.635200387      1.267      3.257
REMARK  3 active torsions:
REMARK  status: ('A' for Active; 'I' for Inactive)
REMARK    1  A    between atoms: O1_2  and  C2_3
REMARK    2  A    between atoms: C3_6  and  O4_7
REMARK    3  A    between atoms: C6_12  and  O6_13
ROOT
HETATM    1  C2  UNL     1      10.912 -40.552 -77.319  1.00  0.00     0.327 C
HETATM    2  O2  UNL     1      11.029 -39.345 -76.646  1.00  0.00    -0.201 OA
HETATM    3  O3  UNL     1      10.286 -39.264 -75.589  1.00  0.00    -0.177 OA
HETATM    4  C3  UNL     1       9.055 -38.727 -75.981  1.00  0.00     0.444 C
HETATM    5  O5  UNL     1       9.003 -38.512 -77.344  1.00  0.00    -0.330 OA
HETATM    6  C4  UNL     1       8.696 -39.628 -78.071  1.00  0.00     0.156 C
HETATM    7  C5  UNL     1       8.733 -39.232 -79.551  1.00  0.00     0.042 C
HETATM    8  C6  UNL     1       9.511 -40.831 -77.791  1.00  0.00     0.204 C
ENDROOT
BRANCH   1   9
HETATM    9  O1  UNL     1      11.780 -40.505 -78.399  1.00  0.00    -0.361 OA
HETATM   10  C1  UNL     1      13.028 -40.947 -77.989  1.00  0.00     0.205 C
ENDBRANCH   1   9
BRANCH   8  11
HETATM   11  O6  UNL     1       9.642 -41.600 -78.971  1.00  0.00    -0.388 OA
ATOM     12  H6  UNL     1       8.763 -41.879 -79.201  1.00  0.00     0.210 HD
ENDBRANCH   8  11
BRANCH   4  13
HETATM   13  O4  UNL     1       8.082 -39.648 -75.550  1.00  0.00    -0.348 OA
ATOM     14  H4  UNL     1       7.912 -40.210 -76.296  1.00  0.00     0.215 HD
ENDBRANCH   4  13
TORSDOF 3
ENDMDL