MODEL 2
REMARK VINA RESULT: -5.528525844      0.901      1.006
REMARK  3 active torsions:
REMARK  status: ('A' for Active; 'I' for Inactive)
REMARK    1  A    between atoms: S1_2  and  C2_3
REMARK    2  A    between atoms: C3_4  and  O1_5
REMARK    3  A    between atoms: C4_7  and  O2_8
ROOT
HETATM    1  C2  UNL     1       9.898 -41.301 -78.418  1.00  0.00     0.184 C
HETATM    2  C3  UNL     1      11.069 -42.241 -78.302  1.00  0.00     0.181 C
HETATM    3  C4  UNL     1      12.205 -41.432 -77.746  1.00  0.00     0.198 C
HETATM    4  C5  UNL     1      11.677 -40.037 -77.593  1.00  0.00     0.297 C
HETATM    5  O3  UNL     1      11.295 -39.718 -76.280  1.00  0.00    -0.196 OA
HETATM    6  O4  UNL     1      10.003 -39.909 -76.513  1.00  0.00    -0.134 OA
HETATM    7  N1  UNL     1      10.265 -40.053 -77.825  1.00  0.00    -0.113 NA
ENDROOT
BRANCH   1   8
HETATM    8  S1  UNL     1       9.426 -41.010 -80.155  1.00  0.00    -0.148 SA
HETATM    9  C1  UNL     1      10.891 -41.400 -81.166  1.00  0.00     0.091 C
ENDBRANCH   1   8
BRANCH   2  10
HETATM   10  O1  UNL     1      10.833 -43.290 -77.421  1.00  0.00    -0.390 OA
ATOM     11  H1  UNL     1      11.153 -43.114 -76.544  1.00  0.00     0.210 HD
ENDBRANCH   2  10
BRANCH   3  12
HETATM   12  O2  UNL     1      13.310 -41.525 -78.573  1.00  0.00    -0.389 OA
ATOM     13  H2  UNL     1      14.097 -41.283 -78.099  1.00  0.00     0.210 HD
ENDBRANCH   3  12
TORSDOF 3
ENDMDL