MODEL 1
REMARK VINA RESULT: -6.169120050      0.000      0.000
REMARK  4 active torsions:
REMARK  status: ('A' for Active; 'I' for Inactive)
REMARK    1  A    between atoms: C2_2  and  C3_3
REMARK    2  A    between atoms: C4_5  and  O2_6
REMARK    3  A    between atoms: C5_9  and  O4_10
REMARK    4  A    between atoms: C7_12  and  O5_13
ROOT
HETATM    1  C3  UNL     1      10.213 -40.698 -78.577  1.00  0.00     0.160 C
HETATM    2  O1  UNL     1       9.821 -40.006 -79.725  1.00  0.00    -0.331 OA
HETATM    3  C4  UNL     1       8.677 -39.268 -79.429  1.00  0.00     0.413 C
HETATM    4  O3  UNL     1       8.935 -38.270 -78.481  1.00  0.00    -0.306 OA
HETATM    5  C5  UNL     1       9.255 -38.921 -77.297  1.00  0.00     0.295 C
HETATM    6  C7  UNL     1      10.560 -39.665 -77.562  1.00  0.00     0.202 C
ENDROOT
BRANCH   1   7
HETATM    7  C2  UNL     1      11.307 -41.656 -78.914  1.00  0.00     0.030 C
HETATM    8  C1  UNL     1      12.061 -41.315 -80.151  1.00  0.00     0.007 C
ENDBRANCH   1   7
BRANCH   6   9
HETATM    9  O5  UNL     1      11.001 -40.161 -76.358  1.00  0.00    -0.388 OA
ATOM     10  H5  UNL     1      11.924 -40.383 -76.331  1.00  0.00     0.210 HD
ENDBRANCH   6   9
BRANCH   3  11
HETATM   11  O2  UNL     1       8.160 -38.732 -80.609  1.00  0.00    -0.349 OA
ATOM     12  H2  UNL     1       8.795 -38.844 -81.307  1.00  0.00     0.215 HD
ENDBRANCH   3  11
BRANCH   5  13
HETATM   13  O4  UNL     1       9.323 -38.095 -76.206  1.00  0.00    -0.363 OA
HETATM   14  C6  UNL     1       8.396 -38.379 -75.218  1.00  0.00     0.204 C
ENDBRANCH   5  13
TORSDOF 4
ENDMDL