MODEL 5
REMARK VINA RESULT: -5.342040631      1.674      2.814
REMARK  3 active torsions:
REMARK  status: ('A' for Active; 'I' for Inactive)
REMARK    1  A    between atoms: O1_2  and  C2_3
REMARK    2  A    between atoms: C4_5  and  O2_6
REMARK    3  A    between atoms: C5_8  and  O3_9
ROOT
HETATM    1  C2  UNL     1      10.226 -40.751 -78.663  1.00  0.00     0.118 C
HETATM    2  C3  UNL     1      10.517 -40.503 -80.151  1.00  0.00     0.052 C
HETATM    3  C4  UNL     1      11.349 -40.205 -77.821  1.00  0.00     0.210 C
HETATM    4  C5  UNL     1      12.527 -41.166 -77.772  1.00  0.00     0.291 C
HETATM    5  O4  UNL     1      12.168 -42.418 -77.344  1.00  0.00    -0.326 OA
HETATM    6  C6  UNL     1      11.132 -43.003 -78.012  1.00  0.00     0.295 A
HETATM    7  O5  UNL     1       9.878 -42.810 -77.273  1.00  0.00    -0.345 OA
HETATM    8  C7  UNL     1      10.104 -42.255 -78.517  1.00  0.00     0.216 A
ENDROOT
BRANCH   1   9
HETATM    9  O1  UNL     1       9.003 -40.217 -78.398  1.00  0.00    -0.380 OA
HETATM   10  C1  UNL     1       8.629 -39.145 -79.177  1.00  0.00     0.202 C
ENDBRANCH   1   9
BRANCH   3  11
HETATM   11  O2  UNL     1      10.965 -39.978 -76.516  1.00  0.00    -0.387 OA
ATOM     12  H2  UNL     1      11.571 -39.411 -76.054  1.00  0.00     0.210 HD
ENDBRANCH   3  11
BRANCH   4  13
HETATM   13  O3  UNL     1      13.236 -41.179 -78.969  1.00  0.00    -0.368 OA
ATOM     14  H3  UNL     1      13.620 -42.031 -79.144  1.00  0.00     0.212 HD
ENDBRANCH   4  13
TORSDOF 3
ENDMDL