MODEL 4
REMARK VINA RESULT: -6.449737868      1.398      2.108
REMARK  7 active torsions:
REMARK  status: ('A' for Active; 'I' for Inactive)
REMARK    1  A    between atoms: N1_2  and  C2_4
REMARK    2  A    between atoms: N3_9  and  C5_10
REMARK    3  A    between atoms: C5_10  and  C6_11
REMARK    4  A    between atoms: C6_11  and  N4_12
REMARK    5  A    between atoms: N4_12  and  C7_13
REMARK    6  A    between atoms: N4_12  and  C11_21
REMARK       I    between atoms: N6_16  and  C9_18
REMARK    7  A    between atoms: C14_24  and  S1_25
ROOT
HETATM    1  C7  UNL     1     -24.230 -12.686   4.665  1.00  0.00     0.193 C
HETATM    2  C8  UNL     1     -25.238 -12.817   3.694  1.00  0.00     0.137 C
HETATM    3  N5  UNL     1     -26.080 -12.948   2.885  1.00  0.00    -0.188 NA
HETATM    4  N6  UNL     1     -24.385 -13.019   5.871  1.00  0.00    -0.304 N
ATOM      5  H6  UNL     1     -23.569 -12.868   6.464  1.00  0.00     0.171 HD
HETATM    6  C9  UNL     1     -25.489 -13.559   6.524  1.00  0.00     0.219 C
HETATM    7  C10 UNL     1     -25.341 -14.006   7.956  1.00  0.00     0.117 C
HETATM    8  O1  UNL     1     -26.648 -13.720   6.023  1.00  0.00    -0.274 OA
ENDROOT
BRANCH   1   9
HETATM    9  N4  UNL     1     -22.953 -12.148   4.276  1.00  0.00    -0.323 N
BRANCH   9  10
HETATM   10  C6  UNL     1     -22.590 -10.796   4.527  1.00  0.00     0.152 C
BRANCH  10  11
HETATM   11  C5  UNL     1     -23.540  -9.722   4.186  1.00  0.00     0.167 C
BRANCH  11  12
HETATM   12  N3  UNL     1     -23.632  -9.304   2.830  1.00  0.00    -0.191 N
HETATM   13  C2  UNL     1     -23.013  -8.153   2.400  1.00  0.00     0.679 A
HETATM   14  N2  UNL     1     -23.243  -8.021   1.090  1.00  0.00    -0.201 N
HETATM   15  C3  UNL     1     -23.992  -9.040   0.629  1.00  0.00     0.124 A
ATOM     16  H2  UNL     1     -22.897  -7.252   0.517  1.00  0.00     0.183 HD
HETATM   17  C4  UNL     1     -24.215  -9.820   1.744  1.00  0.00     0.126 A
BRANCH  13  18
HETATM   18  N1  UNL     1     -22.335  -7.358   3.168  1.00  0.00    -0.230 N
HETATM   19  C1  UNL     1     -22.890  -6.100   3.610  1.00  0.00     0.165 C
ATOM     20  H1  UNL     1     -21.396  -7.624   3.463  1.00  0.00     0.177 HD
ENDBRANCH  13  18
ENDBRANCH  11  12
ENDBRANCH  10  11
ENDBRANCH   9  10
BRANCH   9  21
HETATM   21  C11 UNL     1     -22.102 -13.032   3.605  1.00  0.00     0.036 A
HETATM   22  C12 UNL     1     -21.719 -12.720   2.301  1.00  0.00     0.031 A
HETATM   23  C13 UNL     1     -20.894 -13.603   1.639  1.00  0.00     0.028 A
HETATM   24  C14 UNL     1     -20.431 -14.774   2.198  1.00  0.00     0.080 A
HETATM   25  C15 UNL     1     -20.819 -15.063   3.480  1.00  0.00     0.028 A
HETATM   26  C16 UNL     1     -21.658 -14.174   4.168  1.00  0.00     0.031 A
BRANCH  24  27
HETATM   27  S1  UNL     1     -19.388 -15.893   1.359  1.00  0.00     0.137 S
HETATM   28  O2  UNL     1     -20.192 -16.730   0.397  1.00  0.00    -0.591 OA
HETATM   29  O3  UNL     1     -18.274 -15.246   0.637  1.00  0.00    -0.591 OA
HETATM   30  O4  UNL     1     -18.763 -16.974   2.499  1.00  0.00    -0.591 OA
ENDBRANCH  24  27
ENDBRANCH   9  21
ENDBRANCH   1   9
TORSDOF 7
ENDMDL