MODEL 4
REMARK VINA RESULT: -7.095466438      1.397      1.841
REMARK  7 active torsions:
REMARK  status: ('A' for Active; 'I' for Inactive)
REMARK    1  A    between atoms: C2_2  and  C3_4
REMARK    2  A    between atoms: C3_4  and  C5_7
REMARK    3  A    between atoms: C5_7  and  C6_9
REMARK       I    between atoms: C6_9  and  N2_11
REMARK    4  A    between atoms: N2_11  and  C7_13
REMARK    5  A    between atoms: C10_16  and  S1_17
REMARK    6  A    between atoms: S1_17  and  N3_20
REMARK    7  A    between atoms: N3_20  and  C11_22
ROOT
HETATM    1  C3  UNL     1     -23.954 -10.450   3.769  1.00  0.00     0.241 C
HETATM    2  C4  UNL     1     -24.599 -11.713   3.333  1.00  0.00     0.080 C
HETATM    3  N1  UNL     1     -25.087 -12.703   2.994  1.00  0.00    -0.196 NA
ENDROOT
BRANCH   1   4
HETATM    4  C2  UNL     1     -24.445  -9.401   2.827  1.00  0.00     0.148 C
HETATM    5  C1  UNL     1     -24.146  -9.413   1.382  1.00  0.00     0.093 C
HETATM    6  O1  UNL     1     -25.133  -8.471   3.246  1.00  0.00    -0.296 OA
ENDBRANCH   1   4
BRANCH   1   7
HETATM    7  C5  UNL     1     -22.481 -10.568   3.669  1.00  0.00     0.241 C
HETATM    8  O2  UNL     1     -21.746  -9.547   3.717  1.00  0.00    -0.285 OA
BRANCH   7   9
HETATM    9  C6  UNL     1     -21.880 -11.909   3.510  1.00  0.00     0.293 C
HETATM   10  O3  UNL     1     -21.797 -12.600   4.529  1.00  0.00    -0.264 OA
HETATM   11  N2  UNL     1     -21.456 -12.291   2.237  1.00  0.00    -0.321 N
ATOM     12  H2  UNL     1     -21.569 -11.633   1.466  1.00  0.00     0.169 HD
BRANCH  11  13
HETATM   13  C7  UNL     1     -20.874 -13.557   1.971  1.00  0.00     0.035 A
HETATM   14  C8  UNL     1     -20.357 -13.809   0.683  1.00  0.00     0.031 A
HETATM   15  C9  UNL     1     -19.799 -14.982   0.296  1.00  0.00     0.027 A
HETATM   16  C10 UNL     1     -19.736 -15.993   1.229  1.00  0.00     0.080 A
HETATM   17  C14 UNL     1     -20.218 -15.824   2.504  1.00  0.00     0.027 A
HETATM   18  C15 UNL     1     -20.787 -14.592   2.858  1.00  0.00     0.031 A
BRANCH  16  19
HETATM   19  S1  UNL     1     -19.009 -17.514   0.718  1.00  0.00     0.264 S
HETATM   20  O4  UNL     1     -17.825 -17.261  -0.138  1.00  0.00    -0.200 OA
HETATM   21  O5  UNL     1     -20.074 -18.237  -0.081  1.00  0.00    -0.200 OA
BRANCH  19  22
HETATM   22  N3  UNL     1     -18.677 -18.442   2.107  1.00  0.00    -0.260 N
ATOM     23  H3  UNL     1     -18.322 -17.991   2.951  1.00  0.00     0.181 HD
BRANCH  22  24
HETATM   24  C11 UNL     1     -18.880 -19.742   2.090  1.00  0.00     0.158 A
HETATM   25  N4  UNL     1     -20.051 -20.378   2.125  1.00  0.00    -0.345 N
HETATM   26  C12 UNL     1     -20.056 -21.679   2.100  1.00  0.00     0.097 A
ATOM     27  H4  UNL     1     -20.926 -19.856   2.169  1.00  0.00     0.167 HD
HETATM   28  C13 UNL     1     -18.850 -22.324   2.039  1.00  0.00     0.070 A
HETATM   29  S2  UNL     1     -17.751 -21.017   2.020  1.00  0.00    -0.064 SA
ENDBRANCH  22  24
ENDBRANCH  19  22
ENDBRANCH  16  19
ENDBRANCH  11  13
ENDBRANCH   7   9
ENDBRANCH   1   7
TORSDOF 7
ENDMDL