MODEL 5
REMARK VINA RESULT: -7.133830514      0.943      1.389
REMARK  6 active torsions:
REMARK  status: ('A' for Active; 'I' for Inactive)
REMARK    1  A    between atoms: C1_2  and  C2_3
REMARK       I    between atoms: C1_2  and  N3_10
REMARK    2  A    between atoms: C2_3  and  N1_4
REMARK    3  A    between atoms: N3_10  and  C6_12
REMARK    4  A    between atoms: C8_16  and  S1_17
REMARK    5  A    between atoms: S1_17  and  N5_20
REMARK       I    between atoms: N5_20  and  C9_22
REMARK    6  A    between atoms: C9_22  and  C10_24
ROOT
HETATM    1  C6  UNL     1     -21.987 -13.182   4.420  1.00  0.00     0.152 A
HETATM    2  N4  UNL     1     -21.971 -12.475   3.292  1.00  0.00    -0.344 N
ATOM      3  H4  UNL     1     -22.405 -11.553   3.245  1.00  0.00     0.167 HD
HETATM    4  C7  UNL     1     -21.382 -12.995   2.245  1.00  0.00     0.123 A
HETATM    5  C8  UNL     1     -20.823 -14.233   2.375  1.00  0.00     0.139 A
HETATM    6  S2  UNL     1     -21.161 -14.611   4.005  1.00  0.00    -0.039 SA
ENDROOT
BRANCH   5   7
HETATM    7  S1  UNL     1     -19.978 -15.189   1.144  1.00  0.00     0.273 S
HETATM    8  O2  UNL     1     -20.683 -15.147  -0.165  1.00  0.00    -0.200 OA
HETATM    9  O3  UNL     1     -18.589 -14.592   1.043  1.00  0.00    -0.200 OA
BRANCH   7  10
HETATM   10  N5  UNL     1     -19.919 -16.819   1.679  1.00  0.00    -0.245 N
HETATM   11  C9  UNL     1     -19.129 -17.817   1.077  1.00  0.00     0.265 C
HETATM   12  O4  UNL     1     -18.412 -17.537   0.102  1.00  0.00    -0.267 OA
ATOM     13  H5  UNL     1     -20.490 -17.080   2.482  1.00  0.00     0.182 HD
BRANCH  11  14
HETATM   14  C10 UNL     1     -19.150 -19.182   1.587  1.00  0.00     0.033 A
HETATM   15  C11 UNL     1     -20.295 -19.924   1.625  1.00  0.00     0.017 A
HETATM   16  C12 UNL     1     -20.262 -21.219   2.089  1.00  0.00     0.001 A
HETATM   17  C13 UNL     1     -19.112 -21.834   2.531  1.00  0.00     0.000 A
HETATM   18  C14 UNL     1     -17.958 -21.063   2.486  1.00  0.00     0.001 A
HETATM   19  C15 UNL     1     -17.962 -19.776   2.030  1.00  0.00     0.017 A
ENDBRANCH  11  14
ENDBRANCH   7  10
ENDBRANCH   5   7
BRANCH   1  20
HETATM   20  N3  UNL     1     -22.505 -12.816   5.571  1.00  0.00    -0.306 N
HETATM   21  C1  UNL     1     -23.469 -13.601   6.230  1.00  0.00     0.241 C
HETATM   22  O1  UNL     1     -24.665 -13.607   5.910  1.00  0.00    -0.271 OA
ATOM     23  H3  UNL     1     -22.200 -11.941   5.997  1.00  0.00     0.171 HD
BRANCH  21  24
HETATM   24  C2  UNL     1     -23.010 -14.447   7.357  1.00  0.00     0.232 C
BRANCH  24  25
HETATM   25  N1  UNL     1     -23.916 -15.588   7.542  1.00  0.00    -0.343 N
HETATM   26  C3  UNL     1     -25.124 -15.462   8.172  1.00  0.00     0.109 A
HETATM   27  C4  UNL     1     -25.734 -16.700   8.175  1.00  0.00     0.106 A
HETATM   28  N2  UNL     1     -24.876 -17.525   7.553  1.00  0.00    -0.361 N
HETATM   29  C5  UNL     1     -23.769 -16.864   7.164  1.00  0.00     0.182 A
ATOM     30  H2  UNL     1     -25.041 -18.519   7.396  1.00  0.00     0.166 HD
ENDBRANCH  24  25
ENDBRANCH  21  24
ENDBRANCH   1  20
TORSDOF 6
ENDMDL