MODEL 1
REMARK VINA RESULT: -5.797670966      0.000      0.000
REMARK  10 active torsions:
REMARK  status: ('A' for Active; 'I' for Inactive)
REMARK    1  A    between atoms: N1_2  and  C2_3
REMARK    2  A    between atoms: N1_2  and  C4_7
REMARK    3  A    between atoms: C2_3  and  C3_4
REMARK    4  A    between atoms: C3_4  and  O1_5
REMARK    5  A    between atoms: C4_7  and  O2_8
REMARK    6  A    between atoms: C4_7  and  C5_10
REMARK    7  A    between atoms: C7_13  and  O4_14
REMARK    8  A    between atoms: O4_14  and  C8_15
REMARK    9  A    between atoms: C8_15  and  C9_17
REMARK   10  A    between atoms: C13_22  and  O7_23
ROOT
HETATM    1  C5  UNL     1     -25.786 -14.112   6.174  1.00  0.00     0.203 C
HETATM    2  O3  UNL     1     -26.044 -15.147   5.323  1.00  0.00    -0.375 OA
HETATM    3  C6  UNL     1     -27.168 -14.758   4.567  1.00  0.00     0.204 C
HETATM    4  C7  UNL     1     -26.751 -13.685   3.625  1.00  0.00     0.191 C
HETATM    5  C13 UNL     1     -25.533 -12.932   3.992  1.00  0.00     0.094 C
HETATM    6  C14 UNL     1     -24.384 -13.392   3.084  1.00  0.00     0.046 C
HETATM    7  C15 UNL     1     -23.155 -13.450   3.935  1.00  0.00     0.000 A
HETATM    8  C16 UNL     1     -22.257 -12.299   3.589  1.00  0.00     0.032 A
HETATM    9  C17 UNL     1     -22.083 -11.570   4.851  1.00  0.00    -0.030 A
HETATM   10  C18 UNL     1     -22.789 -12.105   5.815  1.00  0.00    -0.025 A
HETATM   11  C19 UNL     1     -23.562 -13.292   5.360  1.00  0.00     0.022 A
HETATM   12  C20 UNL     1     -25.055 -13.031   5.384  1.00  0.00     0.068 C
ENDROOT
BRANCH   1  13
HETATM   13  C4  UNL     1     -25.160 -14.423   7.429  1.00  0.00     0.143 C
BRANCH  13  14
HETATM   14  N1  UNL     1     -24.756 -15.656   7.900  1.00  0.00    -0.366 N
HETATM   15  C1  UNL     1     -23.335 -16.080   7.606  1.00  0.00     0.151 C
BRANCH  14  16
HETATM   16  C2  UNL     1     -25.544 -16.553   8.692  1.00  0.00     0.150 C
BRANCH  16  17
HETATM   17  C3  UNL     1     -26.153 -17.692   7.915  1.00  0.00     0.183 C
BRANCH  17  18
HETATM   18  O1  UNL     1     -27.186 -17.333   7.097  1.00  0.00    -0.399 OA
ATOM     19  H1  UNL     1     -27.720 -18.058   6.795  1.00  0.00     0.209 HD
ENDBRANCH  17  18
ENDBRANCH  16  17
ENDBRANCH  14  16
ENDBRANCH  13  14
BRANCH  13  20
HETATM   20  O2  UNL     1     -24.919 -13.434   8.270  1.00  0.00    -0.347 OA
ATOM     21  H2  UNL     1     -24.283 -12.808   7.945  1.00  0.00     0.219 HD
ENDBRANCH  13  20
ENDBRANCH   1  13
BRANCH   5  22
HETATM   22  O7  UNL     1     -25.693 -11.559   3.690  1.00  0.00    -0.387 OA
ATOM     23  H7  UNL     1     -24.965 -11.248   3.166  1.00  0.00     0.210 HD
ENDBRANCH   5  22
BRANCH   4  24
HETATM   24  O4  UNL     1     -26.677 -14.268   2.322  1.00  0.00    -0.305 OA
BRANCH  24  25
HETATM   25  C8  UNL     1     -27.768 -14.844   1.702  1.00  0.00     0.317 C
HETATM   26  O5  UNL     1     -28.852 -14.209   1.737  1.00  0.00    -0.257 OA
BRANCH  25  27
HETATM   27  C9  UNL     1     -27.675 -16.153   1.020  1.00  0.00     0.149 A
HETATM   28  C10 UNL     1     -27.490 -16.384  -0.321  1.00  0.00     0.045 A
HETATM   29  C11 UNL     1     -27.463 -17.744  -0.529  1.00  0.00     0.027 A
HETATM   30  C12 UNL     1     -27.638 -18.298   0.722  1.00  0.00     0.143 A
HETATM   31  O6  UNL     1     -27.757 -17.307   1.596  1.00  0.00    -0.317 OA
ENDBRANCH  25  27
ENDBRANCH  24  25
ENDBRANCH   4  24
TORSDOF 10
ENDMDL