MODEL 4
REMARK VINA RESULT: -8.015699396      3.256      4.701
REMARK  7 active torsions:
REMARK  status: ('A' for Active; 'I' for Inactive)
REMARK    1  A    between atoms: N1_11  and  C9_12
REMARK    2  A    between atoms: C9_12  and  C10_13
REMARK    3  A    between atoms: C10_13  and  N2_14
REMARK    4  A    between atoms: N2_14  and  C11_16
REMARK    5  A    between atoms: C13_22  and  N5_23
REMARK    6  A    between atoms: N5_23  and  N6_25
REMARK    7  A    between atoms: C14_27  and  C15_28
ROOT
HETATM    1  C11 UNL     1     -21.074 -14.666   3.415  1.00  0.00     0.693 A
HETATM    2  N3  UNL     1     -21.215 -13.573   2.636  1.00  0.00    -0.187 N
ATOM      3  H3  UNL     1     -21.863 -12.832   2.902  1.00  0.00     0.185 HD
HETATM    4  C12 UNL     1     -20.485 -13.468   1.491  1.00  0.00     0.215 A
HETATM    5  N4  UNL     1     -19.630 -14.442   1.135  1.00  0.00    -0.185 N
ATOM      6  H4  UNL     1     -19.088 -14.353   0.276  1.00  0.00     0.185 HD
HETATM    7  C13 UNL     1     -19.486 -15.529   1.904  1.00  0.00     0.712 A
HETATM    8  N7  UNL     1     -20.214 -15.611   3.025  1.00  0.00    -0.021 N
ATOM      9  H7  UNL     1     -20.106 -16.438   3.611  1.00  0.00     0.203 HD
ENDROOT
BRANCH   1  10
HETATM   10  N2  UNL     1     -21.739 -14.811   4.501  1.00  0.00    -0.224 N
ATOM     11  H2  UNL     1     -22.309 -15.645   4.647  1.00  0.00     0.177 HD
BRANCH  10  12
HETATM   12  C10 UNL     1     -21.675 -13.788   5.517  1.00  0.00     0.158 C
BRANCH  12  13
HETATM   13  C9  UNL     1     -23.095 -13.563   6.008  1.00  0.00     0.155 C
BRANCH  13  14
HETATM   14  N1  UNL     1     -23.814 -12.895   4.951  1.00  0.00    -0.278 N
HETATM   15  C1  UNL     1     -23.527 -11.630   4.399  1.00  0.00     0.261 A
HETATM   16  O1  UNL     1     -22.565 -10.892   4.776  1.00  0.00    -0.267 OA
HETATM   17  C2  UNL     1     -24.518 -11.370   3.362  1.00  0.00     0.048 A
HETATM   18  C3  UNL     1     -24.692 -10.289   2.524  1.00  0.00     0.018 A
HETATM   19  C7  UNL     1     -25.384 -12.442   3.284  1.00  0.00     0.048 A
HETATM   20  C4  UNL     1     -25.740 -10.288   1.602  1.00  0.00     0.001 A
HETATM   21  C5  UNL     1     -26.617 -11.347   1.504  1.00  0.00     0.001 A
HETATM   22  C6  UNL     1     -26.411 -12.407   2.359  1.00  0.00     0.018 A
HETATM   23  C8  UNL     1     -24.952 -13.412   4.280  1.00  0.00     0.261 A
HETATM   24  O2  UNL     1     -25.540 -14.515   4.464  1.00  0.00    -0.267 OA
ENDBRANCH  13  14
ENDBRANCH  12  13
ENDBRANCH  10  12
ENDBRANCH   1  10
BRANCH   7  25
HETATM   25  N5  UNL     1     -18.681 -16.481   1.602  1.00  0.00    -0.132 N
ATOM     26  H5  UNL     1     -17.808 -16.280   1.114  1.00  0.00     0.205 HD
BRANCH  25  27
HETATM   27  N6  UNL     1     -19.004 -17.787   1.943  1.00  0.00    -0.296 N
HETATM   28  C14 UNL     1     -18.360 -18.813   1.549  1.00  0.00     0.126 C
ATOM     29  H6  UNL     1     -19.810 -17.936   2.550  1.00  0.00     0.186 HD
BRANCH  28  30
HETATM   30  C15 UNL     1     -18.821 -20.135   1.994  1.00  0.00     0.021 A
HETATM   31  C16 UNL     1     -18.120 -21.093   2.668  1.00  0.00     0.021 A
HETATM   32  C17 UNL     1     -18.759 -22.237   2.971  1.00  0.00     0.008 A
HETATM   33  C18 UNL     1     -20.067 -22.343   2.574  1.00  0.00     0.050 A
HETATM   34  S1  UNL     1     -20.355 -20.855   1.799  1.00  0.00    -0.101 SA
ENDBRANCH  28  30
ENDBRANCH  25  27
ENDBRANCH   7  25
TORSDOF 7
ENDMDL