MODEL 1
REMARK VINA RESULT: -6.495272619      0.000      0.000
REMARK  7 active torsions:
REMARK  status: ('A' for Active; 'I' for Inactive)
REMARK    1  A    between atoms: N1_1  and  S1_4
REMARK    2  A    between atoms: S1_4  and  C1_7
REMARK    3  A    between atoms: C4_10  and  S2_11
REMARK    4  A    between atoms: S2_11  and  S3_14
REMARK    5  A    between atoms: S3_14  and  C5_15
REMARK    6  A    between atoms: C5_15  and  C6_16
REMARK       I    between atoms: C6_16  and  N2_18
REMARK    7  A    between atoms: N2_18  and  C7_20
ROOT
HETATM    1  S2  UNL     1     -22.650 -11.680   4.113  1.00  0.00     0.231 S
HETATM    2  O3  UNL     1     -22.090 -10.369   3.663  1.00  0.00    -0.211 OA
HETATM    3  O4  UNL     1     -22.503 -11.660   5.601  1.00  0.00    -0.211 OA
ENDROOT
BRANCH   1   4
HETATM    4  C4  UNL     1     -21.766 -12.944   3.349  1.00  0.00     0.070 A
HETATM    5  C3  UNL     1     -21.423 -12.836   2.019  1.00  0.00     0.026 A
HETATM    6  C2  UNL     1     -20.713 -13.831   1.366  1.00  0.00     0.027 A
HETATM    7  C1  UNL     1     -20.336 -14.962   2.061  1.00  0.00     0.079 A
HETATM    8  C11 UNL     1     -20.685 -15.061   3.395  1.00  0.00     0.027 A
HETATM    9  C10 UNL     1     -21.392 -14.070   4.042  1.00  0.00     0.026 A
BRANCH   7  10
HETATM   10  S1  UNL     1     -19.431 -16.244   1.259  1.00  0.00     0.256 S
HETATM   11  O1  UNL     1     -20.374 -17.050   0.449  1.00  0.00    -0.201 OA
HETATM   12  O2  UNL     1     -18.347 -15.591   0.428  1.00  0.00    -0.201 OA
BRANCH  10  13
HETATM   13  N1  UNL     1     -18.742 -17.240   2.492  1.00  0.00    -0.324 N
ATOM     14  H12 UNL     1     -19.061 -18.181   2.721  1.00  0.00     0.169 HD
ATOM     15  H11 UNL     1     -17.979 -16.737   2.943  1.00  0.00     0.169 HD
ENDBRANCH  10  13
ENDBRANCH   7  10
ENDBRANCH   1   4
BRANCH   1  16
HETATM   16  S3  UNL     1     -24.533 -11.294   3.361  1.00  0.00    -0.022 SA
BRANCH  16  17
HETATM   17  C5  UNL     1     -25.330 -12.718   2.881  1.00  0.00     0.194 C
BRANCH  17  18
HETATM   18  C6  UNL     1     -25.979 -13.534   3.948  1.00  0.00     0.233 C
HETATM   19  O5  UNL     1     -26.717 -14.513   3.687  1.00  0.00    -0.272 OA
HETATM   20  N2  UNL     1     -25.767 -13.207   5.312  1.00  0.00    -0.306 N
ATOM     21  H2  UNL     1     -26.199 -12.379   5.722  1.00  0.00     0.171 HD
BRANCH  20  22
HETATM   22  C7  UNL     1     -25.001 -13.993   6.035  1.00  0.00     0.150 A
HETATM   23  N3  UNL     1     -24.305 -15.054   5.635  1.00  0.00    -0.346 N
HETATM   24  C8  UNL     1     -23.601 -15.709   6.508  1.00  0.00     0.097 A
ATOM     25  H3  UNL     1     -24.324 -15.349   4.658  1.00  0.00     0.167 HD
HETATM   26  C9  UNL     1     -23.616 -15.266   7.807  1.00  0.00     0.070 A
HETATM   27  S4  UNL     1     -24.654 -13.913   7.702  1.00  0.00    -0.064 SA
ENDBRANCH  20  22
ENDBRANCH  17  18
ENDBRANCH  16  17
ENDBRANCH   1  16
TORSDOF 7
ENDMDL