MODEL 1
REMARK VINA RESULT: -4.622570277      0.000      0.000
REMARK  6 active torsions:
REMARK  status: ('A' for Active; 'I' for Inactive)
REMARK    1  A    between atoms: S1_3  and  C3_4
REMARK    2  A    between atoms: C3_4  and  O1_5
REMARK    3  A    between atoms: C3_4  and  C5_7
REMARK    4  A    between atoms: C8_12  and  N1_13
REMARK       I    between atoms: N1_13  and  C9_15
REMARK    5  A    between atoms: C9_15  and  C10_17
REMARK    6  A    between atoms: C13_22  and  C14_23
ROOT
HETATM    1  C1  UNL     1     -30.112 -19.788   5.911  1.00  0.00     0.025 C
HETATM    2  C2  UNL     1     -29.620 -18.774   6.301  1.00  0.00    -0.042 C
HETATM    3  S1  UNL     1     -28.920 -17.280   6.869  1.00  0.00    -0.046 SA
ENDROOT
BRANCH   3   4
HETATM    4  C3  UNL     1     -27.798 -17.613   8.275  1.00  0.00     0.207 C
BRANCH   4   5
HETATM    5  O1  UNL     1     -28.474 -17.534   9.473  1.00  0.00    -0.379 OA
HETATM    6  C4  UNL     1     -27.698 -17.495  10.599  1.00  0.00     0.203 C
ENDBRANCH   4   5
BRANCH   4   7
HETATM    7  C5  UNL     1     -26.567 -16.746   8.192  1.00  0.00     0.110 C
HETATM    8  C6  UNL     1     -25.383 -17.512   7.821  1.00  0.00     0.057 C
HETATM    9  S2  UNL     1     -25.421 -18.928   7.797  1.00  0.00    -0.077 SA
HETATM   10  S3  UNL     1     -23.839 -16.717   7.378  1.00  0.00    -0.094 SA
HETATM   11  C7  UNL     1     -24.327 -14.952   7.190  1.00  0.00     0.187 C
HETATM   12  C8  UNL     1     -23.791 -14.274   5.992  1.00  0.00     0.210 C
HETATM   13  N2  UNL     1     -25.673 -15.026   6.650  1.00  0.00    -0.318 N
HETATM   14  C12 UNL     1     -25.145 -14.487   5.429  1.00  0.00     0.247 C
HETATM   15  O3  UNL     1     -25.632 -14.268   4.290  1.00  0.00    -0.271 OA
HETATM   16  C13 UNL     1     -26.808 -15.513   7.390  1.00  0.00     0.202 C
BRANCH  12  17
HETATM   17  N1  UNL     1     -22.750 -14.923   5.260  1.00  0.00    -0.345 N
HETATM   18  C9  UNL     1     -21.980 -14.178   4.333  1.00  0.00     0.217 C
HETATM   19  O2  UNL     1     -22.228 -12.949   4.172  1.00  0.00    -0.274 OA
ATOM     20  H1  UNL     1     -22.563 -15.916   5.403  1.00  0.00     0.163 HD
BRANCH  18  21
HETATM   21  C10 UNL     1     -20.884 -14.799   3.542  1.00  0.00     0.098 C
HETATM   22  C11 UNL     1     -20.702 -14.151   2.211  1.00  0.00     0.014 C
ENDBRANCH  18  21
ENDBRANCH  12  17
BRANCH  16  23
HETATM   23  C14 UNL     1     -27.279 -14.398   8.272  1.00  0.00     0.197 C
HETATM   24  O4  UNL     1     -28.135 -13.570   7.898  1.00  0.00    -0.646 OA
HETATM   25  O5  UNL     1     -26.773 -14.237   9.562  1.00  0.00    -0.646 OA
ENDBRANCH  16  23
ENDBRANCH   4   7
ENDBRANCH   3   4
TORSDOF 6
ENDMDL