MODEL 3
REMARK VINA RESULT: -6.825107284      1.442      1.442
REMARK  7 active torsions:
REMARK  status: ('A' for Active; 'I' for Inactive)
REMARK    1  A    between atoms: C5_6  and  O1_7
REMARK    2  A    between atoms: O1_7  and  C6_8
REMARK    3  A    between atoms: C10_15  and  N2_16
REMARK       I    between atoms: N2_16  and  C11_18
REMARK    4  A    between atoms: C11_18  and  C12_20
REMARK    5  A    between atoms: C12_20  and  C13_21
REMARK    6  A    between atoms: C13_21  and  S2_22
REMARK    7  A    between atoms: S2_22  and  C14_23
ROOT
HETATM    1  N1  UNL     1     -17.990 -17.620  -0.028  1.00  0.00    -0.191 NA
HETATM    2  C1  UNL     1     -18.632 -16.773   0.428  1.00  0.00     0.099 C
HETATM    3  C2  UNL     1     -19.443 -15.742   0.995  1.00  0.00     0.044 A
HETATM    4  C3  UNL     1     -19.831 -14.659   0.257  1.00  0.00     0.025 A
HETATM    5  C4  UNL     1     -20.620 -13.656   0.805  1.00  0.00     0.038 A
HETATM    6  C5  UNL     1     -21.055 -13.687   2.108  1.00  0.00     0.069 A
HETATM    7  C15 UNL     1     -20.649 -14.809   2.860  1.00  0.00     0.038 A
HETATM    8  C16 UNL     1     -19.872 -15.787   2.303  1.00  0.00     0.025 A
ENDROOT
BRANCH   6   9
HETATM    9  O1  UNL     1     -21.835 -12.731   2.711  1.00  0.00    -0.340 OA
BRANCH   9  10
HETATM   10  C6  UNL     1     -22.730 -12.963   3.734  1.00  0.00     0.176 C
HETATM   11  C7  UNL     1     -24.137 -13.052   3.226  1.00  0.00     0.019 C
HETATM   12  C8  UNL     1     -24.863 -11.980   2.947  1.00  0.00     0.107 C
HETATM   13  S1  UNL     1     -24.151 -10.414   3.182  1.00  0.00     0.167 S
HETATM   14  O2  UNL     1     -25.213  -9.416   3.582  1.00  0.00    -0.223 OA
HETATM   15  O3  UNL     1     -23.496  -9.910   1.909  1.00  0.00    -0.223 OA
HETATM   16  C9  UNL     1     -22.920 -10.544   4.444  1.00  0.00     0.172 C
HETATM   17  C10 UNL     1     -22.635 -11.944   4.857  1.00  0.00     0.132 C
BRANCH  17  18
HETATM   18  N2  UNL     1     -23.575 -12.393   5.894  1.00  0.00    -0.353 N
HETATM   19  C11 UNL     1     -23.306 -13.532   6.688  1.00  0.00     0.218 C
HETATM   20  O4  UNL     1     -22.231 -14.152   6.480  1.00  0.00    -0.274 OA
ATOM     21  H2  UNL     1     -24.440 -11.872   6.044  1.00  0.00     0.163 HD
BRANCH  19  22
HETATM   22  C12 UNL     1     -24.258 -13.966   7.721  1.00  0.00     0.113 C
BRANCH  22  23
HETATM   23  C13 UNL     1     -24.303 -15.484   7.842  1.00  0.00     0.093 C
BRANCH  23  24
HETATM   24  S2  UNL     1     -25.977 -16.111   7.766  1.00  0.00    -0.072 SA
BRANCH  24  25
HETATM   25  C14 UNL     1     -26.750 -16.167   9.369  1.00  0.00     0.292 C
HETATM   26  N3  UNL     1     -27.330 -15.017   9.970  1.00  0.00    -0.051 NA
HETATM   27  O5  UNL     1     -26.814 -17.247  10.043  1.00  0.00    -0.264 OA
ENDBRANCH  24  25
ENDBRANCH  23  24
ENDBRANCH  22  23
ENDBRANCH  19  22
ENDBRANCH  17  18
ENDBRANCH   9  10
ENDBRANCH   6   9
TORSDOF 7
ENDMDL