MODEL 4
REMARK VINA RESULT: -6.304817988      3.536      5.429
REMARK  7 active torsions:
REMARK  status: ('A' for Active; 'I' for Inactive)
REMARK    1  A    between atoms: C2_2  and  N1_3
REMARK       I    between atoms: N1_3  and  C3_5
REMARK    2  A    between atoms: C3_5  and  C4_7
REMARK    3  A    between atoms: C7_12  and  N2_13
REMARK       I    between atoms: N2_13  and  C8_15
REMARK    4  A    between atoms: C8_15  and  C9_17
REMARK    5  A    between atoms: C9_17  and  C10_18
REMARK    6  A    between atoms: C9_17  and  C12_20
REMARK    7  A    between atoms: C12_20  and  O6_22
ROOT
HETATM    1  C4  UNL     1     -24.502  -8.269   3.747  1.00  0.00     0.126 C
HETATM    2  C5  UNL     1     -23.940  -9.589   3.966  1.00  0.00     0.162 C
HETATM    3  O2  UNL     1     -22.849  -9.817   4.780  1.00  0.00    -0.312 OA
HETATM    4  C6  UNL     1     -22.476 -11.149   4.469  1.00  0.00     0.283 C
HETATM    5  O3  UNL     1     -21.790 -11.950   5.162  1.00  0.00    -0.263 OA
HETATM    6  C7  UNL     1     -23.049 -11.498   3.110  1.00  0.00     0.200 C
HETATM    7  C14 UNL     1     -23.414 -10.123   2.646  1.00  0.00     0.111 C
HETATM    8  S1  UNL     1     -24.944  -9.954   1.729  1.00  0.00    -0.149 SA
HETATM    9  C15 UNL     1     -25.565  -8.503   2.697  1.00  0.00     0.016 C
HETATM   10  C16 UNL     1     -26.835  -8.974   3.377  1.00  0.00     0.028 C
HETATM   11  C17 UNL     1     -25.862  -7.365   1.801  1.00  0.00     0.028 C
ENDROOT
BRANCH   6  12
HETATM   12  N2  UNL     1     -21.906 -11.984   2.331  1.00  0.00    -0.345 N
HETATM   13  C8  UNL     1     -21.657 -13.359   2.179  1.00  0.00     0.232 C
HETATM   14  O4  UNL     1     -22.429 -14.175   2.726  1.00  0.00    -0.273 OA
ATOM     15  H2  UNL     1     -21.279 -11.311   1.890  1.00  0.00     0.163 HD
BRANCH  13  16
HETATM   16  C9  UNL     1     -20.515 -13.840   1.392  1.00  0.00     0.177 C
BRANCH  16  17
HETATM   17  C10 UNL     1     -20.797 -13.936  -0.099  1.00  0.00     0.020 C
HETATM   18  C11 UNL     1     -19.906 -13.083  -0.931  1.00  0.00     0.006 C
ENDBRANCH  16  17
BRANCH  16  19
HETATM   19  C12 UNL     1     -20.082 -15.180   1.848  1.00  0.00     0.271 C
HETATM   20  O5  UNL     1     -19.530 -15.336   2.951  1.00  0.00    -0.264 OA
BRANCH  19  21
HETATM   21  O6  UNL     1     -20.286 -16.289   1.043  1.00  0.00    -0.326 OA
HETATM   22  C13 UNL     1     -19.294 -17.255   0.817  1.00  0.00     0.213 C
ENDBRANCH  19  21
ENDBRANCH  16  19
ENDBRANCH  13  16
ENDBRANCH   6  12
BRANCH   1  23
HETATM   23  C3  UNL     1     -23.560  -7.192   3.482  1.00  0.00     0.225 C
HETATM   24  N1  UNL     1     -23.625  -5.934   4.110  1.00  0.00    -0.361 N
ATOM     25  H1  UNL     1     -24.363  -5.751   4.790  1.00  0.00     0.162 HD
HETATM   26  O1  UNL     1     -22.636  -7.373   2.656  1.00  0.00    -0.273 OA
BRANCH  24  27
HETATM   27  C2  UNL     1     -22.669  -4.900   3.808  1.00  0.00     0.118 C
HETATM   28  C1  UNL     1     -22.673  -3.784   4.802  1.00  0.00     0.026 C
ENDBRANCH  24  27
ENDBRANCH   1  23
TORSDOF 7
ENDMDL