MODEL 2
REMARK VINA RESULT: -5.146968559      3.806      8.663
REMARK  7 active torsions:
REMARK  status: ('A' for Active; 'I' for Inactive)
REMARK    1  A    between atoms: O1_2  and  C2_3
REMARK    2  A    between atoms: C2_3  and  C3_4
REMARK    3  A    between atoms: C3_4  and  N1_5
REMARK    4  A    between atoms: N1_5  and  C4_6
REMARK       I    between atoms: N1_5  and  C17_26
REMARK    5  A    between atoms: C9_14  and  O2_15
REMARK    6  A    between atoms: C11_19  and  C12_20
REMARK    7  A    between atoms: C12_20  and  C13_22
ROOT
HETATM    1  C4  UNL     1     -22.753 -14.581   5.340  1.00  0.00     0.119 C
HETATM    2  C5  UNL     1     -23.665 -14.960   6.147  1.00  0.00     0.030 C
HETATM    3  C6  UNL     1     -23.539 -16.411   6.675  1.00  0.00     0.132 C
HETATM    4  S1  UNL     1     -24.785 -16.534   7.984  1.00  0.00    -0.153 SA
HETATM    5  C7  UNL     1     -26.373 -15.997   7.255  1.00  0.00     0.115 C
HETATM    6  C8  UNL     1     -26.111 -14.673   6.605  1.00  0.00     0.157 C
HETATM    7  N2  UNL     1     -24.737 -14.270   6.693  1.00  0.00    -0.381 N
ATOM      8  H2  UNL     1     -24.532 -13.408   7.198  1.00  0.00     0.160 HD
HETATM    9  C9  UNL     1     -27.001 -13.712   7.341  1.00  0.00     0.381 C
HETATM   10  N3  UNL     1     -27.944 -14.474   8.094  1.00  0.00     0.128 N
HETATM   11  C10 UNL     1     -28.088 -13.763   9.379  1.00  0.00     0.314 C
HETATM   12  C11 UNL     1     -27.408 -15.759   8.282  1.00  0.00     0.311 C
ENDROOT
BRANCH   1  13
HETATM   13  N1  UNL     1     -22.420 -13.447   4.613  1.00  0.00    -0.325 N
HETATM   14  C17 UNL     1     -22.519 -12.117   5.011  1.00  0.00     0.219 C
HETATM   15  C18 UNL     1     -22.071 -11.013   4.066  1.00  0.00     0.117 C
HETATM   16  O4  UNL     1     -22.949 -11.682   6.086  1.00  0.00    -0.274 OA
BRANCH  13  17
HETATM   17  C3  UNL     1     -21.844 -13.628   3.240  1.00  0.00     0.157 C
BRANCH  17  18
HETATM   18  C2  UNL     1     -20.801 -14.694   3.219  1.00  0.00     0.187 C
BRANCH  18  19
HETATM   19  O1  UNL     1     -19.986 -14.552   2.100  1.00  0.00    -0.394 OA
HETATM   20  C1  UNL     1     -20.312 -13.419   1.383  1.00  0.00     0.201 C
ENDBRANCH  18  19
ENDBRANCH  17  18
ENDBRANCH  13  17
ENDBRANCH   1  13
BRANCH   9  21
HETATM   21  O2  UNL     1     -27.577 -12.840   6.417  1.00  0.00    -0.366 OA
ATOM     22  H2  UNL     1     -28.519 -12.854   6.533  1.00  0.00     0.212 HD
ENDBRANCH   9  21
BRANCH  12  23
HETATM   23  C12 UNL     1     -28.373 -16.873   8.428  1.00  0.00     0.169 C
HETATM   24  O3  UNL     1     -29.305 -16.806   7.620  1.00  0.00    -0.295 OA
BRANCH  23  25
HETATM   25  C13 UNL     1     -28.378 -17.990   9.350  1.00  0.00     0.012 C
HETATM   26  C14 UNL     1     -27.544 -19.178   8.841  1.00  0.00     0.022 C
HETATM   27  C15 UNL     1     -29.696 -18.545   9.744  1.00  0.00     0.022 C
HETATM   28  C16 UNL     1     -27.660 -17.591  10.652  1.00  0.00     0.022 C
ENDBRANCH  23  25
ENDBRANCH  12  23
TORSDOF 7
ENDMDL