MODEL 3
REMARK VINA RESULT: -8.530367467      3.274      3.896
REMARK  7 active torsions:
REMARK  status: ('A' for Active; 'I' for Inactive)
REMARK    1  A    between atoms: N1_1  and  C1_4
REMARK    2  A    between atoms: C2_7  and  C3_8
REMARK       I    between atoms: C3_8  and  N3_10
REMARK    3  A    between atoms: N3_10  and  N4_12
REMARK       I    between atoms: N4_12  and  C4_14
REMARK    4  A    between atoms: C4_14  and  O3_16
REMARK    5  A    between atoms: O3_16  and  C5_17
REMARK    6  A    between atoms: C5_17  and  C6_18
REMARK    7  A    between atoms: C7_26  and  S1_27
ROOT
HETATM    1  C3  UNL     1      -9.342  10.481 -35.899  1.00  0.00     0.288 C
HETATM    2  O1  UNL     1      -9.960   9.558 -36.532  1.00  0.00    -0.264 OA
HETATM    3  N3  UNL     1      -9.405  11.761 -36.421  1.00  0.00    -0.260 N
ATOM      4  H3  UNL     1      -8.935  12.527 -35.938  1.00  0.00     0.190 HD
ENDROOT
BRANCH   3   5
HETATM    5  N4  UNL     1     -10.111  12.019 -37.614  1.00  0.00    -0.242 N
HETATM    6  C4  UNL     1      -9.876  13.204 -38.346  1.00  0.00     0.379 C
HETATM    7  O2  UNL     1      -9.043  14.042 -37.956  1.00  0.00    -0.237 OA
ATOM      8  H4  UNL     1     -10.797  11.344 -37.951  1.00  0.00     0.192 HD
BRANCH   6   9
HETATM    9  O3  UNL     1     -10.587  13.422 -39.510  1.00  0.00    -0.295 OA
BRANCH   9  10
HETATM   10  C5  UNL     1     -10.103  13.068 -40.806  1.00  0.00     0.259 C
BRANCH  10  11
HETATM   11  C6  UNL     1      -9.468  14.242 -41.433  1.00  0.00     0.134 A
HETATM   12  N5  UNL     1      -9.725  14.738 -42.669  1.00  0.00    -0.269 N
HETATM   13  N6  UNL     1      -8.931  15.783 -42.832  1.00  0.00    -0.005 NA
ATOM     14  H5  UNL     1     -10.400  14.376 -43.342  1.00  0.00     0.185 HD
HETATM   15  N7  UNL     1      -8.181  15.967 -41.747  1.00  0.00    -0.225 N
HETATM   16  N8  UNL     1      -8.518  15.024 -40.910  1.00  0.00    -0.273 N
ATOM     17  H7  UNL     1      -7.483  16.697 -41.600  1.00  0.00     0.205 HD
ATOM     18  H8  UNL     1      -8.112  14.899 -39.983  1.00  0.00     0.189 HD
ENDBRANCH  10  11
ENDBRANCH   9  10
ENDBRANCH   6   9
ENDBRANCH   3   5
BRANCH   1  19
HETATM   19  C2  UNL     1      -8.625  10.082 -34.657  1.00  0.00     0.136 A
HETATM   20  N2  UNL     1      -9.286   9.519 -33.662  1.00  0.00    -0.331 N
HETATM   21  C1  UNL     1      -8.624   9.141 -32.585  1.00  0.00     0.144 A
ATOM     22  H2  UNL     1     -10.294   9.378 -33.726  1.00  0.00     0.168 HD
HETATM   23  S2  UNL     1      -7.023   9.565 -32.929  1.00  0.00    -0.037 SA
HETATM   24  C7  UNL     1      -7.282  10.241 -34.517  1.00  0.00     0.157 A
BRANCH  21  25
HETATM   25  N1  UNL     1      -9.098   8.570 -31.501  1.00  0.00    -0.380 N
ATOM     26  H12 UNL     1      -8.711   8.590 -30.557  1.00  0.00     0.158 HD
ATOM     27  H11 UNL     1      -9.938   8.000 -31.405  1.00  0.00     0.158 HD
ENDBRANCH  21  25
BRANCH  24  28
HETATM   28  S1  UNL     1      -6.028  10.881 -35.579  1.00  0.00     0.147 S
HETATM   29  O4  UNL     1      -5.688   9.953 -36.695  1.00  0.00    -0.591 OA
HETATM   30  O5  UNL     1      -4.771  10.997 -34.686  1.00  0.00    -0.591 OA
HETATM   31  O6  UNL     1      -6.327  12.457 -36.052  1.00  0.00    -0.591 OA
ENDBRANCH  24  28
ENDBRANCH   1  19
TORSDOF 7
ENDMDL