MODEL 2
REMARK VINA RESULT: -8.038411011      1.599      1.768
REMARK  6 active torsions:
REMARK  status: ('A' for Active; 'I' for Inactive)
REMARK    1  A    between atoms: C2_2  and  N1_3
REMARK    2  A    between atoms: C2_2  and  C12_26
REMARK    3  A    between atoms: N1_3  and  C3_5
REMARK    4  A    between atoms: N2_8  and  N3_10
REMARK    5  A    between atoms: C7_17  and  N5_18
REMARK    6  A    between atoms: C13_32  and  N9_33
ROOT
HETATM    1  C3  UNL     1      -1.708   6.417 -33.638  1.00  0.00     0.123 C
HETATM    2  C4  UNL     1      -0.697   5.647 -33.146  1.00  0.00     0.085 C
HETATM    3  C5  UNL     1      -0.738   4.447 -32.411  1.00  0.00     0.119 C
HETATM    4  N2  UNL     1       0.276   3.798 -32.153  1.00  0.00    -0.302 N
ATOM      5  H2  UNL     1       0.035   2.971 -31.607  1.00  0.00     0.186 HD
HETATM    6  C6  UNL     1      -1.955   3.823 -31.946  1.00  0.00     0.287 C
HETATM    7  O1  UNL     1      -1.741   3.044 -31.008  1.00  0.00    -0.265 OA
HETATM    8  N4  UNL     1      -3.135   4.061 -32.482  1.00  0.00    -0.154 N
ATOM      9  H4  UNL     1      -3.889   3.519 -32.058  1.00  0.00     0.187 HD
HETATM   10  C7  UNL     1      -3.553   4.871 -33.473  1.00  0.00     0.684 C
HETATM   11  N6  UNL     1      -2.939   5.964 -34.011  1.00  0.00    -0.176 N
ATOM     12  H6  UNL     1      -3.434   6.478 -34.740  1.00  0.00     0.186 HD
ENDROOT
BRANCH   1  13
HETATM   13  N1  UNL     1      -1.517   7.837 -33.757  1.00  0.00    -0.344 N
ATOM     14  H1  UNL     1      -1.657   8.423 -32.934  1.00  0.00     0.167 HD
BRANCH  13  15
HETATM   15  C2  UNL     1      -1.142   8.449 -34.978  1.00  0.00     0.039 C
HETATM   16  C1  UNL     1      -2.149   8.436 -36.112  1.00  0.00     0.071 C
BRANCH  15  17
HETATM   17  C12 UNL     1       0.250   8.352 -35.437  1.00  0.00     0.124 A
HETATM   18  N7  UNL     1       0.946   7.155 -35.580  1.00  0.00    -0.236 N
HETATM   19  O3  UNL     1       2.043   7.417 -36.178  1.00  0.00    -0.155 OA
ATOM     20  H7  UNL     1       0.636   6.235 -35.265  1.00  0.00     0.197 HD
HETATM   21  N8  UNL     1       2.219   8.619 -36.461  1.00  0.00    -0.224 N
HETATM   22  C13 UNL     1       1.102   9.274 -36.009  1.00  0.00     0.152 A
ATOM     23  H8  UNL     1       3.027   9.029 -36.932  1.00  0.00     0.198 HD
BRANCH  22  24
HETATM   24  N9  UNL     1       0.859  10.564 -35.968  1.00  0.00    -0.382 N
ATOM     25  H92 UNL     1      -0.035  11.047 -35.880  1.00  0.00     0.157 HD
ATOM     26  H91 UNL     1       1.590  11.256 -36.131  1.00  0.00     0.157 HD
ENDBRANCH  22  24
ENDBRANCH  15  17
ENDBRANCH  13  15
ENDBRANCH   1  13
BRANCH  10  27
HETATM   27  N5  UNL     1      -4.812   4.467 -34.014  1.00  0.00    -0.213 N
HETATM   28  C8  UNL     1      -6.018   5.189 -33.667  1.00  0.00     0.167 C
HETATM   29  C9  UNL     1      -7.152   4.525 -34.396  1.00  0.00     0.188 C
HETATM   30  O2  UNL     1      -6.899   4.533 -35.744  1.00  0.00    -0.388 OA
HETATM   31  C10 UNL     1      -5.839   3.712 -36.096  1.00  0.00     0.188 C
HETATM   32  C11 UNL     1      -4.942   3.349 -34.925  1.00  0.00     0.167 C
ENDBRANCH  10  27
BRANCH   4  33
HETATM   33  N3  UNL     1       1.583   3.841 -32.362  1.00  0.00    -0.345 N
ATOM     34  H32 UNL     1       1.808   3.218 -33.138  1.00  0.00     0.176 HD
ATOM     35  H31 UNL     1       2.415   4.299 -31.991  1.00  0.00     0.176 HD
ENDBRANCH   4  33
TORSDOF 6
ENDMDL