MODEL 2
REMARK VINA RESULT: -7.837758596      1.809      2.221
REMARK  7 active torsions:
REMARK  status: ('A' for Active; 'I' for Inactive)
REMARK    1  A    between atoms: O1_2  and  N1_3
REMARK    2  A    between atoms: N1_3  and  C2_5
REMARK    3  A    between atoms: C2_5  and  C3_6
REMARK    4  A    between atoms: C2_5  and  C12_27
REMARK    5  A    between atoms: C4_9  and  N3_10
REMARK    6  A    between atoms: C6_16  and  C7_17
REMARK    7  A    between atoms: C13_33  and  N10_34
ROOT
HETATM    1  C3  UNL     1      -1.325   7.010 -35.027  1.00  0.00     0.140 A
HETATM    2  N2  UNL     1      -2.256   6.057 -35.006  1.00  0.00    -0.325 N
ATOM      3  H2  UNL     1      -3.074   6.166 -35.605  1.00  0.00     0.169 HD
HETATM    4  C4  UNL     1      -2.172   4.969 -34.243  1.00  0.00     0.131 A
HETATM    5  C5  UNL     1      -1.088   4.767 -33.410  1.00  0.00     0.122 A
HETATM    6  N4  UNL     1      -0.684   3.828 -32.537  1.00  0.00    -0.339 N
ATOM      7  H4  UNL     1      -1.198   2.976 -32.313  1.00  0.00     0.167 HD
HETATM    8  C6  UNL     1       0.496   4.179 -32.003  1.00  0.00     0.091 A
HETATM    9  N6  UNL     1       0.839   5.349 -32.545  1.00  0.00    -0.330 N
ATOM     10  H6  UNL     1       1.689   5.873 -32.338  1.00  0.00     0.168 HD
HETATM   11  C11 UNL     1      -0.125   5.725 -33.413  1.00  0.00     0.139 A
HETATM   12  N7  UNL     1      -0.246   6.808 -34.199  1.00  0.00    -0.325 N
ATOM     13  H7  UNL     1       0.494   7.510 -34.181  1.00  0.00     0.169 HD
ENDROOT
BRANCH   1  14
HETATM   14  C2  UNL     1      -1.348   8.214 -35.828  1.00  0.00     0.131 C
BRANCH  14  15
HETATM   15  N1  UNL     1      -2.291   8.466 -36.654  1.00  0.00    -0.261 N
ATOM     16  H1  UNL     1      -2.714   7.578 -36.925  1.00  0.00     0.194 HD
BRANCH  15  17
HETATM   17  O1  UNL     1      -2.902   9.386 -37.264  1.00  0.00    -0.285 OA
HETATM   18  C1  UNL     1      -4.250   9.330 -37.687  1.00  0.00     0.237 C
ENDBRANCH  15  17
ENDBRANCH  14  15
BRANCH  14  19
HETATM   19  C12 UNL     1      -0.331   9.268 -35.802  1.00  0.00     0.134 A
HETATM   20  N8  UNL     1       0.808   9.214 -36.584  1.00  0.00    -0.236 N
HETATM   21  O2  UNL     1       1.528  10.258 -36.371  1.00  0.00    -0.155 OA
ATOM     22  H8  UNL     1       1.042   8.460 -37.230  1.00  0.00     0.197 HD
HETATM   23  N9  UNL     1       0.970  11.023 -35.505  1.00  0.00    -0.224 N
HETATM   24  C13 UNL     1      -0.211  10.424 -35.125  1.00  0.00     0.152 A
ATOM     25  H9  UNL     1       1.334  11.912 -35.161  1.00  0.00     0.198 HD
BRANCH  24  26
HETATM   26  N10 UNL     1      -0.990  10.967 -34.259  1.00  0.00    -0.382 N
ATOM     27 2H10 UNL     1      -2.005  10.929 -34.359  1.00  0.00     0.157 HD
ATOM     28 1H10 UNL     1      -0.774  11.482 -33.406  1.00  0.00     0.157 HD
ENDBRANCH  24  26
ENDBRANCH  14  19
ENDBRANCH   1  14
BRANCH   4  29
HETATM   29  N3  UNL     1      -3.097   4.064 -34.250  1.00  0.00    -0.383 N
ATOM     30  H32 UNL     1      -3.615   3.928 -35.118  1.00  0.00     0.157 HD
ATOM     31  H31 UNL     1      -3.304   3.505 -33.422  1.00  0.00     0.157 HD
ENDBRANCH   4  29
BRANCH   8  32
HETATM   32  C7  UNL     1       1.274   3.436 -31.015  1.00  0.00     0.110 C
HETATM   33  C8  UNL     1       1.225   3.963 -29.596  1.00  0.00     0.285 C
HETATM   34  N5  UNL     1       1.290   2.554 -29.169  1.00  0.00     0.085 N
HETATM   35  C9  UNL     1       0.597   2.267 -27.949  1.00  0.00     0.309 C
HETATM   36  C10 UNL     1       0.539   2.247 -30.386  1.00  0.00     0.285 C
ENDBRANCH   8  32
TORSDOF 7
ENDMDL