MODEL 2
REMARK VINA RESULT: -6.742752282      1.294      1.680
REMARK  7 active torsions:
REMARK  status: ('A' for Active; 'I' for Inactive)
REMARK    1  A    between atoms: O1_2  and  C2_3
REMARK    2  A    between atoms: C2_3  and  C3_5
REMARK    3  A    between atoms: C3_5  and  S1_6
REMARK    4  A    between atoms: C5_10  and  O3_11
REMARK    5  A    between atoms: C5_10  and  C6_13
REMARK    6  A    between atoms: C6_13  and  O4_14
REMARK    7  A    between atoms: C6_13  and  C7_16
ROOT
HETATM    1  C3  UNL     1      -8.502   5.172 -31.778  1.00  0.00     0.217 C
HETATM    2  N1  UNL     1      -9.464   4.392 -32.355  1.00  0.00    -0.353 N
ATOM      3  H1  UNL     1      -9.858   3.598 -31.848  1.00  0.00     0.159 HD
HETATM    4  C5  UNL     1      -9.903   4.694 -33.647  1.00  0.00     0.184 C
HETATM    5  C8  UNL     1     -10.143   6.171 -33.689  1.00  0.00     0.080 C
HETATM    6  C9  UNL     1     -10.402   6.711 -35.051  1.00  0.00     0.044 C
HETATM    7  C10 UNL     1     -11.785   7.265 -35.272  1.00  0.00     0.132 C
HETATM    8  N2  UNL     1     -12.414   7.751 -34.093  1.00  0.00    -0.149 NA
HETATM    9  N3  UNL     1     -12.529   6.653 -33.229  1.00  0.00    -0.147 NA
HETATM   10  C11 UNL     1     -11.208   6.490 -32.657  1.00  0.00     0.156 C
HETATM   11  S2  UNL     1      -8.577   6.702 -32.923  1.00  0.00    -0.100 SA
ENDROOT
BRANCH   4  12
HETATM   12  O3  UNL     1     -11.213   4.068 -33.739  1.00  0.00    -0.367 OA
ATOM     13  H3  UNL     1     -11.824   4.795 -33.736  1.00  0.00     0.212 HD
ENDBRANCH   4  12
BRANCH   4  14
HETATM   14  C6  UNL     1      -9.096   4.139 -34.682  1.00  0.00     0.275 C
BRANCH  14  15
HETATM   15  O4  UNL     1      -9.788   3.580 -35.646  1.00  0.00    -0.380 OA
ATOM     16  H4  UNL     1     -10.401   2.921 -35.342  1.00  0.00     0.210 HD
ENDBRANCH  14  15
BRANCH  14  17
HETATM   17  C7  UNL     1      -7.682   4.057 -34.931  1.00  0.00     0.208 C
HETATM   18  O5  UNL     1      -6.885   4.935 -35.341  1.00  0.00    -0.646 OA
HETATM   19  O6  UNL     1      -7.081   2.789 -34.700  1.00  0.00    -0.646 OA
ENDBRANCH  14  17
ENDBRANCH   4  14
BRANCH   1  20
HETATM   20  C2  UNL     1      -8.845   5.836 -30.465  1.00  0.00     0.308 C
HETATM   21  O2  UNL     1      -8.521   6.983 -30.166  1.00  0.00    -0.260 OA
BRANCH  20  22
HETATM   22  O1  UNL     1      -9.591   5.127 -29.505  1.00  0.00    -0.323 OA
HETATM   23  C1  UNL     1      -9.145   5.195 -28.155  1.00  0.00     0.213 C
ENDBRANCH  20  22
ENDBRANCH   1  20
BRANCH   1  24
HETATM   24  S1  UNL     1      -6.851   4.541 -31.767  1.00  0.00    -0.121 SA
HETATM   25  C4  UNL     1      -6.188   4.243 -30.140  1.00  0.00     0.093 C
ENDBRANCH   1  24
TORSDOF 7
ENDMDL