MODEL 4
REMARK VINA RESULT: -8.303992349      8.180      9.794
REMARK  6 active torsions:
REMARK  status: ('A' for Active; 'I' for Inactive)
REMARK    1  A    between atoms: N1_4  and  C4_5
REMARK    2  A    between atoms: C4_5  and  C5_6
REMARK    3  A    between atoms: C8_19  and  N7_20
REMARK    4  A    between atoms: N7_20  and  C9_22
REMARK    5  A    between atoms: C9_22  and  C10_23
REMARK    6  A    between atoms: C11_24  and  O1_25
ROOT
HETATM    1  C1  UNL     1       0.553   9.211 -36.064  1.00  0.00     0.054 C
HETATM    2  C2  UNL     1       0.007   7.952 -35.528  1.00  0.00     0.001 A
HETATM    3  C3  UNL     1       0.705   6.925 -34.935  1.00  0.00     0.121 A
HETATM    4  N1  UNL     1      -0.160   5.953 -34.582  1.00  0.00    -0.294 N
HETATM    5  N6  UNL     1      -1.366   6.343 -34.937  1.00  0.00    -0.283 N
ATOM      6  H6  UNL     1      -2.217   5.801 -34.791  1.00  0.00     0.189 HD
HETATM    7  C8  UNL     1      -1.321   7.556 -35.519  1.00  0.00     0.127 A
ENDROOT
BRANCH   7   8
HETATM    8  N7  UNL     1      -2.396   8.331 -36.042  1.00  0.00    -0.350 N
ATOM      9  H7  UNL     1      -2.383   8.586 -37.029  1.00  0.00     0.166 HD
BRANCH   8  10
HETATM   10  C9  UNL     1      -3.378   8.720 -35.320  1.00  0.00     0.111 C
BRANCH  10  11
HETATM   11  C10 UNL     1      -3.846  10.094 -35.452  1.00  0.00     0.098 A
HETATM   12  C11 UNL     1      -3.216  11.128 -34.793  1.00  0.00     0.161 A
HETATM   13  N8  UNL     1      -3.679  12.395 -34.940  1.00  0.00    -0.288 N
HETATM   14  C12 UNL     1      -4.741  12.688 -35.711  1.00  0.00     0.329 A
ATOM     15  H8  UNL     1      -3.205  13.152 -34.448  1.00  0.00     0.172 HD
HETATM   16  O2  UNL     1      -5.116  13.892 -35.801  1.00  0.00    -0.247 OA
HETATM   17  N9  UNL     1      -5.351  11.688 -36.351  1.00  0.00    -0.275 N
HETATM   18  C13 UNL     1      -4.933  10.414 -36.240  1.00  0.00     0.265 A
ATOM     19  H9  UNL     1      -6.157  11.896 -36.941  1.00  0.00     0.173 HD
HETATM   20  O3  UNL     1      -5.499   9.464 -36.836  1.00  0.00    -0.267 OA
BRANCH  12  21
HETATM   21  O1  UNL     1      -2.111  10.904 -33.975  1.00  0.00    -0.345 OA
ATOM     22  H1  UNL     1      -1.913  11.475 -33.242  1.00  0.00     0.219 HD
ENDBRANCH  12  21
ENDBRANCH  10  11
ENDBRANCH   8  10
ENDBRANCH   7   8
BRANCH   4  23
HETATM   23  C4  UNL     1       0.112   4.694 -33.935  1.00  0.00     0.226 C
BRANCH  23  24
HETATM   24  C5  UNL     1       0.408   4.841 -32.490  1.00  0.00     0.134 A
HETATM   25  N2  UNL     1       1.565   4.931 -31.844  1.00  0.00    -0.273 N
HETATM   26  N3  UNL     1       1.365   5.050 -30.556  1.00  0.00    -0.131 N
ATOM     27  H2  UNL     1       2.482   4.910 -32.289  1.00  0.00     0.189 HD
HETATM   28  C6  UNL     1       0.044   5.038 -30.356  1.00  0.00     0.693 A
ATOM     29  H3  UNL     1       2.084   5.137 -29.838  1.00  0.00     0.205 HD
HETATM   30  N4  UNL     1      -0.558   5.135 -29.197  1.00  0.00    -0.233 N
HETATM   31  N5  UNL     1      -0.554   4.908 -31.554  1.00  0.00    -0.172 N
ATOM     32  H42 UNL     1      -0.104   5.234 -28.289  1.00  0.00     0.174 HD
ATOM     33  H41 UNL     1      -1.567   5.126 -29.045  1.00  0.00     0.174 HD
HETATM   34  C7  UNL     1      -1.997   4.861 -31.700  1.00  0.00     0.177 C
ENDBRANCH  23  24
ENDBRANCH   4  23
TORSDOF 6
ENDMDL