MODEL 2
REMARK VINA RESULT: -9.357923701      3.765      6.229
REMARK  7 active torsions:
REMARK  status: ('A' for Active; 'I' for Inactive)
REMARK    1  A    between atoms: C2_3  and  C9_17
REMARK    2  A    between atoms: N2_4  and  N3_6
REMARK    3  A    between atoms: N3_6  and  C3_8
REMARK    4  A    between atoms: C8_13  and  N4_14
REMARK       I    between atoms: C9_17  and  N5_19
REMARK    5  A    between atoms: N5_19  and  N6_20
REMARK    6  A    between atoms: N6_20  and  C10_22
REMARK    7  A    between atoms: C12_26  and  O4_27
ROOT
HETATM    1  N1  UNL     1      -5.531   9.314 -38.241  1.00  0.00    -0.190 NA
HETATM    2  C1  UNL     1      -6.087  10.264 -37.894  1.00  0.00     0.126 C
HETATM    3  C2  UNL     1      -6.826  11.457 -37.458  1.00  0.00     0.213 C
HETATM    4  N2  UNL     1      -7.016  12.333 -38.281  1.00  0.00    -0.285 N
ATOM      5  H2  UNL     1      -6.590  12.020 -39.153  1.00  0.00     0.188 HD
ENDROOT
BRANCH   3   6
HETATM    6  C9  UNL     1      -7.254  11.410 -36.031  1.00  0.00     0.374 C
HETATM    7  O3  UNL     1      -6.392  11.700 -35.154  1.00  0.00    -0.247 OA
HETATM    8  N5  UNL     1      -8.563  11.049 -35.759  1.00  0.00    -0.264 NA
BRANCH   8   9
HETATM    9  N6  UNL     1      -9.789  10.710 -35.499  1.00  0.00    -0.062 N
ATOM     10  H6  UNL     1     -10.502  11.435 -35.579  1.00  0.00     0.221 HD
BRANCH   9  11
HETATM   11  C10 UNL     1     -10.223   9.402 -35.111  1.00  0.00     0.699 C
HETATM   12  N7  UNL     1      -9.765   8.837 -34.053  1.00  0.00    -0.222 N
HETATM   13  C11 UNL     1     -10.116   7.544 -33.562  1.00  0.00     0.171 C
ATOM     14  H7  UNL     1      -9.083   9.365 -33.510  1.00  0.00     0.177 HD
HETATM   15  C12 UNL     1     -11.440   7.081 -34.158  1.00  0.00     0.154 C
HETATM   16  C13 UNL     1     -11.316   7.276 -35.671  1.00  0.00     0.171 C
HETATM   17  N8  UNL     1     -11.189   8.701 -35.862  1.00  0.00    -0.222 N
ATOM     18  H8  UNL     1     -11.787   9.192 -36.528  1.00  0.00     0.177 HD
BRANCH  15  19
HETATM   19  O4  UNL     1     -11.739   5.760 -33.863  1.00  0.00    -0.392 OA
ATOM     20  H4  UNL     1     -12.672   5.582 -33.851  1.00  0.00     0.210 HD
ENDBRANCH  15  19
ENDBRANCH   9  11
ENDBRANCH   8   9
ENDBRANCH   3   6
BRANCH   4  21
HETATM   21  N3  UNL     1      -7.546  13.525 -38.515  1.00  0.00    -0.297 N
ATOM     22  H3  UNL     1      -7.308  14.333 -37.940  1.00  0.00     0.187 HD
BRANCH  21  23
HETATM   23  C3  UNL     1      -8.486  13.634 -39.627  1.00  0.00     0.081 A
HETATM   24  C4  UNL     1      -8.058  14.111 -40.851  1.00  0.00     0.033 A
HETATM   25  C5  UNL     1      -8.943  14.213 -41.917  1.00  0.00     0.002 A
HETATM   26  C6  UNL     1     -10.228  13.829 -41.694  1.00  0.00     0.003 A
HETATM   27  C7  UNL     1     -10.673  13.352 -40.475  1.00  0.00     0.038 A
HETATM   28  C8  UNL     1      -9.779  13.246 -39.388  1.00  0.00     0.130 A
BRANCH  28  29
HETATM   29  N4  UNL     1     -10.284  12.765 -38.153  1.00  0.00    -0.113 N
HETATM   30  O1  UNL     1     -10.979  11.741 -38.149  1.00  0.00    -0.532 OA
HETATM   31  O2  UNL     1     -10.001  13.406 -36.995  1.00  0.00    -0.532 OA
ENDBRANCH  28  29
ENDBRANCH  21  23
ENDBRANCH   4  21
TORSDOF 7
ENDMDL