MODEL 5
REMARK VINA RESULT: -7.853016845      3.459      5.149
REMARK  7 active torsions:
REMARK  status: ('A' for Active; 'I' for Inactive)
REMARK    1  A    between atoms: C2_3  and  O1_4
REMARK    2  A    between atoms: C3_6  and  C4_7
REMARK    3  A    between atoms: N2_8  and  N3_10
REMARK    4  A    between atoms: N3_10  and  C5_12
REMARK    5  A    between atoms: C5_12  and  C6_13
REMARK    6  A    between atoms: C5_12  and  S1_20
REMARK    7  A    between atoms: C7_17  and  O3_18
ROOT
HETATM    1  C4  UNL     1      -9.044  11.860 -37.210  1.00  0.00     0.128 C
HETATM    2  N2  UNL     1      -7.880  11.313 -37.140  1.00  0.00    -0.314 N
ATOM      3  H2  UNL     1      -7.253  11.295 -37.945  1.00  0.00     0.185 HD
ENDROOT
BRANCH   2   4
HETATM    4  N3  UNL     1      -7.511  10.745 -35.920  1.00  0.00    -0.311 N
ATOM      5  H3  UNL     1      -8.209  10.418 -35.252  1.00  0.00     0.182 HD
BRANCH   4   6
HETATM    6  C5  UNL     1      -6.078  10.639 -35.643  1.00  0.00     0.284 C
BRANCH   6   7
HETATM    7  C6  UNL     1      -5.581  11.759 -34.850  1.00  0.00     0.167 A
HETATM    8  O2  UNL     1      -5.610  12.059 -33.576  1.00  0.00    -0.233 OA
HETATM    9  N4  UNL     1      -4.973  13.169 -33.739  1.00  0.00    -0.237 N
HETATM   10  C7  UNL     1      -4.899  12.943 -35.038  1.00  0.00     0.196 A
ATOM     11  H4  UNL     1      -4.656  13.915 -33.119  1.00  0.00     0.197 HD
BRANCH  10  12
HETATM   12  O3  UNL     1      -4.376  13.591 -36.128  1.00  0.00    -0.343 OA
ATOM     13  H3  UNL     1      -4.418  14.481 -36.461  1.00  0.00     0.219 HD
ENDBRANCH  10  12
ENDBRANCH   6   7
BRANCH   6  14
HETATM   14  S1  UNL     1      -5.268  10.475 -37.206  1.00  0.00     0.169 S
HETATM   15  C8  UNL     1      -3.601   9.882 -37.000  1.00  0.00     0.164 C
HETATM   16  O4  UNL     1      -5.991   9.460 -38.047  1.00  0.00    -0.226 OA
HETATM   17  O5  UNL     1      -5.243  11.754 -37.976  1.00  0.00    -0.226 OA
ENDBRANCH   6  14
ENDBRANCH   4   6
ENDBRANCH   2   4
BRANCH   1  18
HETATM   18  C3  UNL     1      -9.444  12.457 -38.474  1.00  0.00     0.100 A
HETATM   19  C2  UNL     1      -8.596  13.306 -39.127  1.00  0.00     0.163 A
HETATM   20  N1  UNL     1      -8.993  13.839 -40.288  1.00  0.00    -0.283 N
HETATM   21  C1  UNL     1      -8.103  14.739 -40.988  1.00  0.00     0.163 C
HETATM   22  C10 UNL     1     -10.196  13.547 -40.800  1.00  0.00     0.331 A
HETATM   23  N5  UNL     1     -11.047  12.700 -40.152  1.00  0.00    -0.274 N
HETATM   24  O7  UNL     1     -10.581  14.040 -41.890  1.00  0.00    -0.246 OA
HETATM   25  C9  UNL     1     -10.704  12.136 -38.986  1.00  0.00     0.265 A
ATOM     26  H5  UNL     1     -11.958  12.493 -40.562  1.00  0.00     0.173 HD
HETATM   27  O6  UNL     1     -11.473  11.343 -38.358  1.00  0.00    -0.267 OA
BRANCH  19  28
HETATM   28  O1  UNL     1      -7.328  13.626 -38.606  1.00  0.00    -0.345 OA
ATOM     29  H1  UNL     1      -6.718  14.138 -39.125  1.00  0.00     0.219 HD
ENDBRANCH  19  28
ENDBRANCH   1  18
TORSDOF 7
ENDMDL