MODEL 2
REMARK VINA RESULT: -8.310237114      1.843      8.492
REMARK  6 active torsions:
REMARK  status: ('A' for Active; 'I' for Inactive)
REMARK    1  A    between atoms: C2_3  and  N2_4
REMARK    2  A    between atoms: C3_9  and  C4_10
REMARK    3  A    between atoms: C4_10  and  S1_11
REMARK    4  A    between atoms: S1_11  and  C5_12
REMARK    5  A    between atoms: C7_20  and  N7_21
REMARK    6  A    between atoms: N7_21  and  O1_23
ROOT
HETATM    1  C5  UNL     1      -8.581  10.862 -36.439  1.00  0.00     0.104 A
HETATM    2  N4  UNL     1      -7.290  10.993 -36.094  1.00  0.00    -0.291 N
ATOM      3  H4  UNL     1      -6.843  10.495 -35.325  1.00  0.00     0.187 HD
HETATM    4  N5  UNL     1      -6.680  11.854 -36.885  1.00  0.00    -0.283 N
ATOM      5  H5  UNL     1      -5.696  12.116 -36.815  1.00  0.00     0.188 HD
HETATM    6  C6  UNL     1      -7.542  12.335 -37.793  1.00  0.00     0.154 A
HETATM    7  N6  UNL     1      -7.437  13.216 -38.806  1.00  0.00    -0.172 N
ATOM      8  H6  UNL     1      -6.541  13.665 -38.995  1.00  0.00     0.186 HD
HETATM    9  C7  UNL     1      -8.499  13.508 -39.566  1.00  0.00     0.708 A
HETATM   10  N8  UNL     1      -9.695  12.916 -39.325  1.00  0.00    -0.149 N
HETATM   11  C8  UNL     1     -10.862  13.211 -40.132  1.00  0.00     0.179 C
HETATM   12  C9  UNL     1      -9.840  12.026 -38.319  1.00  0.00     0.278 A
HETATM   13  O2  UNL     1     -10.964  11.483 -38.107  1.00  0.00    -0.266 OA
HETATM   14  C10 UNL     1      -8.760  11.703 -37.514  1.00  0.00     0.113 A
ENDROOT
BRANCH   1  15
HETATM   15  S1  UNL     1      -9.866   9.848 -35.729  1.00  0.00    -0.102 SA
BRANCH  15  16
HETATM   16  C4  UNL     1      -9.254   9.208 -34.145  1.00  0.00     0.158 C
BRANCH  16  17
HETATM   17  C3  UNL     1      -9.980   7.937 -33.879  1.00  0.00     0.111 A
HETATM   18  N3  UNL     1     -10.486   7.607 -32.685  1.00  0.00    -0.180 N
HETATM   19  C2  UNL     1     -11.143   6.424 -32.505  1.00  0.00     0.683 A
ATOM     20  H3  UNL     1     -10.378   8.248 -31.898  1.00  0.00     0.185 HD
HETATM   21  N1  UNL     1     -11.302   5.555 -33.520  1.00  0.00    -0.137 N
HETATM   22  C1  UNL     1     -12.002   4.290 -33.338  1.00  0.00     0.180 C
HETATM   23  C11 UNL     1     -10.794   5.888 -34.719  1.00  0.00     0.341 A
HETATM   24  N9  UNL     1     -10.148   7.057 -34.888  1.00  0.00    -0.296 N
HETATM   25  O3  UNL     1     -10.946   5.063 -35.680  1.00  0.00    -0.246 OA
ATOM     26  H9  UNL     1      -9.772   7.284 -35.809  1.00  0.00     0.172 HD
BRANCH  19  27
HETATM   27  N2  UNL     1     -11.628   6.115 -31.358  1.00  0.00    -0.234 N
ATOM     28  H22 UNL     1     -12.312   5.364 -31.269  1.00  0.00     0.174 HD
ATOM     29  H21 UNL     1     -11.310   6.638 -30.542  1.00  0.00     0.174 HD
ENDBRANCH  19  27
ENDBRANCH  16  17
ENDBRANCH  15  16
ENDBRANCH   1  15
BRANCH   9  30
HETATM   30  N7  UNL     1      -8.456  14.350 -40.554  1.00  0.00    -0.098 N
ATOM     31  H7  UNL     1      -9.116  15.125 -40.618  1.00  0.00     0.213 HD
BRANCH  30  32
HETATM   32  O1  UNL     1      -7.489  14.158 -41.510  1.00  0.00    -0.276 OA
ATOM     33  H1  UNL     1      -7.607  14.589 -42.348  1.00  0.00     0.245 HD
ENDBRANCH  30  32
ENDBRANCH   9  30
TORSDOF 6
ENDMDL