MODEL 2
REMARK VINA RESULT: -6.749616678      6.222      9.456
REMARK  8 active torsions:
REMARK  status: ('A' for Active; 'I' for Inactive)
REMARK    1  A    between atoms: O1_2  and  C2_3
REMARK    2  A    between atoms: C2_3  and  C3_5
REMARK    3  A    between atoms: C3_5  and  C4_6
REMARK    4  A    between atoms: C3_5  and  N5_18
REMARK    5  A    between atoms: C5_12  and  N3_13
REMARK    6  A    between atoms: N3_13  and  N4_15
REMARK    7  A    between atoms: N5_18  and  O4_19
REMARK       I    between atoms: N5_18  and  C6_21
REMARK    8  A    between atoms: C6_21  and  C7_23
ROOT
HETATM    1  C3  UNL     1      -1.512   8.114 -35.370  1.00  0.00     0.272 C
ENDROOT
BRANCH   1   2
HETATM    2  C2  UNL     1      -2.982   8.315 -35.634  1.00  0.00     0.290 C
HETATM    3  O2  UNL     1      -3.817   7.438 -35.299  1.00  0.00    -0.262 OA
BRANCH   2   4
HETATM    4  O1  UNL     1      -3.470   9.457 -36.250  1.00  0.00    -0.325 OA
HETATM    5  C1  UNL     1      -4.087   9.415 -37.531  1.00  0.00     0.213 C
ENDBRANCH   2   4
ENDBRANCH   1   2
BRANCH   1   6
HETATM    6  C4  UNL     1      -0.840   9.398 -35.092  1.00  0.00     0.116 A
HETATM    7  N1  UNL     1      -1.162  10.361 -34.215  1.00  0.00    -0.239 N
HETATM    8  O3  UNL     1      -0.289  11.337 -34.296  1.00  0.00    -0.155 OA
ATOM      9  H1  UNL     1      -1.962  10.337 -33.583  1.00  0.00     0.196 HD
HETATM   10  N2  UNL     1       0.617  11.056 -35.210  1.00  0.00    -0.222 N
HETATM   11  C5  UNL     1       0.294   9.848 -35.723  1.00  0.00     0.169 A
ATOM     12  H2  UNL     1       1.410  11.640 -35.480  1.00  0.00     0.198 HD
BRANCH  11  13
HETATM   13  N3  UNL     1       0.949   9.234 -36.647  1.00  0.00    -0.289 N
ATOM     14  H3  UNL     1       0.722   9.434 -37.621  1.00  0.00     0.188 HD
BRANCH  13  15
HETATM   15  N4  UNL     1       1.958   8.306 -36.373  1.00  0.00    -0.344 N
ATOM     16  H42 UNL     1       1.759   7.585 -35.679  1.00  0.00     0.176 HD
ATOM     17  H41 UNL     1       2.867   8.324 -36.834  1.00  0.00     0.176 HD
ENDBRANCH  13  15
ENDBRANCH  11  13
ENDBRANCH   1   6
BRANCH   1  18
HETATM   18  N5  UNL     1      -1.381   7.267 -34.204  1.00  0.00    -0.206 N
HETATM   19  C6  UNL     1      -0.464   6.187 -34.104  1.00  0.00     0.281 C
HETATM   20  O5  UNL     1       0.267   5.987 -35.119  1.00  0.00    -0.268 OA
BRANCH  18  21
HETATM   21  O4  UNL     1      -2.181   7.518 -33.148  1.00  0.00    -0.284 OA
ATOM     22  H4  UNL     1      -1.772   7.801 -32.339  1.00  0.00     0.245 HD
ENDBRANCH  18  21
BRANCH  19  23
HETATM   23  C7  UNL     1      -0.335   5.337 -32.933  1.00  0.00     0.217 C
HETATM   24  C8  UNL     1      -1.290   4.170 -32.911  1.00  0.00     0.053 C
HETATM   25  C9  UNL     1      -1.760   4.064 -31.451  1.00  0.00     0.047 C
HETATM   26  C10 UNL     1      -0.799   4.968 -30.765  1.00  0.00     0.248 C
HETATM   27  N6  UNL     1      -0.699   6.072 -31.734  1.00  0.00    -0.044 N
HETATM   28  S1  UNL     1       0.909   4.314 -30.954  1.00  0.00    -0.133 SA
ATOM     29  H62 UNL     1      -0.071   6.833 -31.473  1.00  0.00     0.280 HD
ATOM     30  H61 UNL     1      -1.524   6.667 -31.813  1.00  0.00     0.280 HD
HETATM   31  C11 UNL     1       1.112   4.876 -32.699  1.00  0.00     0.125 C
ENDBRANCH  19  23
ENDBRANCH   1  18
TORSDOF 8
ENDMDL