MODEL 5
REMARK VINA RESULT: -5.476018895      2.772      4.282
REMARK  3 active torsions:
REMARK  status: ('A' for Active; 'I' for Inactive)
REMARK    1  A    between atoms: O1_2  and  C2_3
REMARK    2  A    between atoms: C2_3  and  C3_4
REMARK    3  A    between atoms: C9_10  and  O2_11
ROOT
HETATM    1  C3  UNL     1      17.082   2.726  11.818  1.00  0.00     0.247 C
HETATM    2  C4  UNL     1      16.743   4.050  11.158  1.00  0.00     0.038 C
HETATM    3  C5  UNL     1      17.274   5.234  11.891  1.00  0.00     0.004 C
HETATM    4  C6  UNL     1      17.158   5.139  13.385  1.00  0.00     0.036 C
HETATM    5  C7  UNL     1      17.721   3.792  13.785  1.00  0.00     0.226 C
HETATM    6  C8  UNL     1      17.714   3.550  15.250  1.00  0.00     0.069 C
HETATM    7  C9  UNL     1      17.003   2.217  15.392  1.00  0.00     0.148 C
HETATM    8  C10 UNL     1      16.922   1.648  13.968  1.00  0.00     0.305 C
HETATM    9  N1  UNL     1      16.769   2.831  13.204  1.00  0.00     0.102 N
ENDROOT
BRANCH   1  10
HETATM   10  C2  UNL     1      16.278   1.661  11.110  1.00  0.00     0.202 C
BRANCH  10  11
HETATM   11  O1  UNL     1      16.994   1.031  10.101  1.00  0.00    -0.394 OA
HETATM   12  C1  UNL     1      17.627  -0.071  10.677  1.00  0.00     0.201 C
ENDBRANCH  10  11
ENDBRANCH   1  10
BRANCH   7  13
HETATM   13  O2  UNL     1      17.690   1.387  16.241  1.00  0.00    -0.394 OA
ATOM     14  H2  UNL     1      17.651   1.710  17.134  1.00  0.00     0.210 HD
ENDBRANCH   7  13
TORSDOF 3
ENDMDL