MODEL 3
REMARK VINA RESULT: -4.516786868      1.258      1.704
REMARK  2 active torsions:
REMARK  status: ('A' for Active; 'I' for Inactive)
REMARK    1  A    between atoms: C4_5  and  S1_6
REMARK    2  A    between atoms: S1_6  and  C5_7
ROOT
HETATM    1  C1  UNL     1      19.587   1.735  11.065  1.00  0.00     0.309 C
HETATM    2  N1  UNL     1      18.148   1.700  11.122  1.00  0.00     0.085 N
HETATM    3  C2  UNL     1      17.538   2.977  10.880  1.00  0.00     0.273 C
HETATM    4  C3  UNL     1      16.209   2.858  11.540  1.00  0.00     0.047 C
HETATM    5  C4  UNL     1      16.489   2.079  12.783  1.00  0.00     0.084 C
HETATM    6  C6  UNL     1      17.635   1.187  12.355  1.00  0.00     0.287 C
ENDROOT
BRANCH   5   7
HETATM    7  S1  UNL     1      16.947   3.097  14.182  1.00  0.00    -0.097 SA
BRANCH   7   8
HETATM    8  C5  UNL     1      16.698   2.176  15.688  1.00  0.00     0.150 C
HETATM    9  N2  UNL     1      17.739   1.425  16.293  1.00  0.00    -0.082 NA
HETATM   10  S2  UNL     1      15.234   2.189  16.406  1.00  0.00    -0.056 SA
ENDBRANCH   7   8
ENDBRANCH   5   7
TORSDOF 2
ENDMDL