MODEL 2
REMARK VINA RESULT: -5.807298958      1.762      4.881
REMARK  1 active torsions:
REMARK  status: ('A' for Active; 'I' for Inactive)
REMARK    1  A    between atoms: N1_5  and  N2_7
ROOT
HETATM    1  N2  UNL     1      16.878   3.042  14.545  1.00  0.00    -0.326 N
HETATM    2  C5  UNL     1      17.327   2.411  15.749  1.00  0.00     0.144 C
HETATM    3  C6  UNL     1      16.250   1.642  16.472  1.00  0.00     0.049 C
HETATM    4  C7  UNL     1      14.866   2.153  16.207  1.00  0.00     0.234 C
HETATM    5  N3  UNL     1      14.928   3.593  16.453  1.00  0.00    -0.073 N
ATOM      6  H31 UNL     1      15.757   3.871  16.978  1.00  0.00     0.277 HD
ATOM      7  H32 UNL     1      14.230   3.911  17.125  1.00  0.00     0.277 HD
HETATM    8  C8  UNL     1      14.825   4.250  15.195  1.00  0.00     0.253 C
HETATM    9  C9  UNL     1      15.744   3.802  14.139  1.00  0.00     0.170 C
ENDROOT
BRANCH   1  10
HETATM   10  N1  UNL     1      17.773   2.883  13.473  1.00  0.00    -0.311 N
HETATM   11  C4  UNL     1      17.686   1.914  12.653  1.00  0.00     0.003 C
HETATM   12  C3  UNL     1      16.742   0.777  12.560  1.00  0.00     0.054 C
HETATM   13  C10 UNL     1      18.646   1.748  11.506  1.00  0.00     0.054 C
HETATM   14  C2  UNL     1      16.687   0.535  11.059  1.00  0.00     0.006 C
HETATM   15  C1  UNL     1      18.148   0.605  10.689  1.00  0.00     0.006 C
ATOM     16  H1  UNL     1      18.518   3.568  13.348  1.00  0.00     0.186 HD
ENDBRANCH   1  10
TORSDOF 1
ENDMDL