MODEL 1
REMARK VINA RESULT: -5.944145277      0.000      0.000
REMARK  1 active torsions:
REMARK  status: ('A' for Active; 'I' for Inactive)
REMARK    1  A    between atoms: N1_4  and  C4_5
ROOT
HETATM    1  C4  UNL     1      17.104   1.854  13.255  1.00  0.00     0.671 C
HETATM    2  N2  UNL     1      16.947   0.727  12.654  1.00  0.00    -0.226 N
ATOM      3  H2  UNL     1      16.258   0.083  13.043  1.00  0.00     0.177 HD
HETATM    4  C5  UNL     1      17.663   0.295  11.475  1.00  0.00     0.139 C
HETATM    5  C6  UNL     1      18.963   1.057  11.353  1.00  0.00     0.040 C
HETATM    6  C7  UNL     1      18.563   2.535  11.398  1.00  0.00     0.139 C
HETATM    7  N3  UNL     1      18.056   2.759  12.727  1.00  0.00    -0.226 N
ATOM      8  H3  UNL     1      18.378   3.555  13.278  1.00  0.00     0.177 HD
ENDROOT
BRANCH   1   9
HETATM    9  N1  UNL     1      16.338   2.194  14.429  1.00  0.00    -0.218 N
HETATM   10  C3  UNL     1      15.560   3.390  14.375  1.00  0.00     0.141 C
HETATM   11  C2  UNL     1      15.082   3.882  15.697  1.00  0.00     0.020 C
HETATM   12  C1  UNL     1      14.638   2.660  16.504  1.00  0.00     0.003 C
HETATM   13  C9  UNL     1      15.937   1.918  16.835  1.00  0.00     0.020 C
HETATM   14  C8  UNL     1      16.424   1.301  15.553  1.00  0.00     0.141 C
ENDBRANCH   1   9
TORSDOF 1
ENDMDL