MODEL 4
REMARK VINA RESULT: -5.807524294      1.897      2.462
REMARK  3 active torsions:
REMARK  status: ('A' for Active; 'I' for Inactive)
REMARK    1  A    between atoms: C2_2  and  O1_3
REMARK    2  A    between atoms: C5_7  and  C6_8
REMARK    3  A    between atoms: N1_9  and  O2_10
ROOT
HETATM    1  C6  UNL     1      18.005   3.545  12.224  1.00  0.00     0.113 C
HETATM    2  N1  UNL     1      17.526   3.886  11.086  1.00  0.00    -0.173 N
HETATM    3  C7  UNL     1      18.334   4.351  10.030  1.00  0.00     0.209 C
HETATM    4  N2  UNL     1      18.993   4.747   9.181  1.00  0.00    -0.170 NA
ENDROOT
BRANCH   2   5
HETATM    5  O2  UNL     1      16.177   3.800  10.877  1.00  0.00    -0.274 OA
ATOM      6  H2  UNL     1      15.750   2.954  10.948  1.00  0.00     0.246 HD
ENDBRANCH   2   5
BRANCH   1   7
HETATM    7  C5  UNL     1      17.111   3.069  13.281  1.00  0.00     0.028 C
HETATM    8  C4  UNL     1      17.204   1.585  13.428  1.00  0.00     0.013 C
HETATM    9  C3  UNL     1      16.592   1.040  14.670  1.00  0.00     0.038 C
HETATM   10  C2  UNL     1      16.763   1.895  15.885  1.00  0.00     0.054 C
HETATM   11  C1  UNL     1      15.784   1.462  16.951  1.00  0.00     0.045 C
HETATM   12  C9  UNL     1      16.465   3.366  15.592  1.00  0.00     0.038 C
HETATM   13  C8  UNL     1      17.499   3.794  14.566  1.00  0.00     0.013 C
BRANCH  10  14
HETATM   14  O1  UNL     1      18.088   1.834  16.360  1.00  0.00    -0.390 OA
ATOM     15  H1  UNL     1      18.624   2.511  15.963  1.00  0.00     0.210 HD
ENDBRANCH  10  14
ENDBRANCH   1   7
TORSDOF 3
ENDMDL