MODEL 1
REMARK VINA RESULT: -5.830078286      0.000      0.000
REMARK  3 active torsions:
REMARK  status: ('A' for Active; 'I' for Inactive)
REMARK    1  A    between atoms: C2_2  and  C5_5
REMARK    2  A    between atoms: C5_5  and  C6_6
REMARK    3  A    between atoms: C6_6  and  N1_7
ROOT
HETATM    1  N1  UNL     1      16.548   1.982  14.351  1.00  0.00    -0.354 N
HETATM    2  C7  UNL     1      16.489   3.393  14.041  1.00  0.00     0.145 C
HETATM    3  C8  UNL     1      17.827   3.499  13.289  1.00  0.00     0.142 C
HETATM    4  N2  UNL     1      17.821   2.252  12.550  1.00  0.00    -0.363 N
ATOM      5  H2  UNL     1      18.320   2.080  11.678  1.00  0.00     0.162 HD
HETATM    6  C9  UNL     1      17.082   1.389  13.175  1.00  0.00     0.186 C
HETATM    7  N3  UNL     1      16.811   0.044  12.795  1.00  0.00    -0.064 NA
ENDROOT
BRANCH   1   8
HETATM    8  C6  UNL     1      16.143   1.371  15.583  1.00  0.00     0.126 C
BRANCH   8   9
HETATM    9  C5  UNL     1      16.165   2.361  16.707  1.00  0.00     0.028 C
BRANCH   9  10
HETATM   10  C2  UNL     1      14.801   2.560  17.323  1.00  0.00    -0.050 C
HETATM   11  C1  UNL     1      14.289   3.918  16.911  1.00  0.00     0.014 C
HETATM   12  C3  UNL     1      14.904   2.528  18.843  1.00  0.00     0.014 C
HETATM   13  C4  UNL     1      13.802   1.516  16.920  1.00  0.00     0.014 C
ENDBRANCH   9  10
ENDBRANCH   8   9
ENDBRANCH   1   8
TORSDOF 3
ENDMDL