MODEL 3
REMARK VINA RESULT: -5.049155515      1.272      1.714
REMARK  2 active torsions:
REMARK  status: ('A' for Active; 'I' for Inactive)
REMARK    1  A    between atoms: N1_1  and  C1_5
REMARK    2  A    between atoms: C4_8  and  N2_9
ROOT
HETATM    1  C1  UNL     1      14.950   1.615  16.490  1.00  0.00     0.185 C
HETATM    2  C2  UNL     1      14.331   2.915  16.948  1.00  0.00     0.035 C
HETATM    3  C3  UNL     1      14.803   3.978  15.989  1.00  0.00     0.038 C
HETATM    4  C4  UNL     1      15.549   3.226  14.924  1.00  0.00     0.225 C
HETATM    5  C9  UNL     1      16.170   2.105  15.696  1.00  0.00     0.068 C
ENDROOT
BRANCH   4   6
HETATM    6  N2  UNL     1      16.520   4.065  14.231  1.00  0.00     0.094 N
HETATM    7  C5  UNL     1      17.683   4.117  15.075  1.00  0.00     0.283 C
HETATM    8  C6  UNL     1      18.881   4.768  14.377  1.00  0.00     0.104 C
HETATM    9  S1  UNL     1      18.364   6.506  14.099  1.00  0.00    -0.166 SA
HETATM   10  C7  UNL     1      16.699   6.392  13.388  1.00  0.00     0.104 C
HETATM   11  C8  UNL     1      15.877   5.326  14.013  1.00  0.00     0.283 C
ENDBRANCH   4   6
BRANCH   1  12
HETATM   12  N1  UNL     1      15.472   0.846  17.600  1.00  0.00    -0.075 N
ATOM     13  H13 UNL     1      15.258  -0.146  17.498  1.00  0.00     0.274 HD
ATOM     14  H12 UNL     1      16.490   0.794  17.569  1.00  0.00     0.274 HD
ATOM     15  H11 UNL     1      15.147   1.205  18.498  1.00  0.00     0.274 HD
ENDBRANCH   1  12
TORSDOF 2
ENDMDL