MODEL 2
REMARK VINA RESULT: -6.108453207      1.789      4.954
REMARK  2 active torsions:
REMARK  status: ('A' for Active; 'I' for Inactive)
REMARK    1  A    between atoms: C2_3  and  C3_4
REMARK    2  A    between atoms: C3_4  and  O1_5
ROOT
HETATM    1  N1  UNL     1      16.995   3.607  10.137  1.00  0.00    -0.197 NA
HETATM    2  C1  UNL     1      16.750   2.840  10.980  1.00  0.00     0.062 C
HETATM    3  C2  UNL     1      16.431   1.898  12.051  1.00  0.00     0.163 C
ENDROOT
BRANCH   3   4
HETATM    4  C3  UNL     1      16.868   2.415  13.402  1.00  0.00     0.098 C
HETATM    5  C4  UNL     1      16.779   1.315  14.466  1.00  0.00     0.076 C
HETATM    6  C5  UNL     1      16.349   2.154  15.652  1.00  0.00     0.226 C
HETATM    7  C6  UNL     1      15.752   1.342  16.752  1.00  0.00     0.036 C
HETATM    8  N2  UNL     1      15.260   2.908  15.036  1.00  0.00     0.096 N
HETATM    9  C7  UNL     1      14.945   2.103  17.715  1.00  0.00     0.004 C
HETATM   10  C8  UNL     1      14.355   3.378  17.267  1.00  0.00     0.030 C
HETATM   11  C9  UNL     1      14.780   3.888  15.944  1.00  0.00     0.273 C
HETATM   12  C10 UNL     1      15.904   3.477  13.893  1.00  0.00     0.311 C
BRANCH   4  13
HETATM   13  O1  UNL     1      18.170   2.874  13.322  1.00  0.00    -0.387 OA
ATOM     14  H1  UNL     1      18.768   2.174  13.557  1.00  0.00     0.210 HD
ENDBRANCH   4  13
ENDBRANCH   3   4
TORSDOF 2
ENDMDL