MODEL 1
REMARK VINA RESULT: -5.279325437      0.000      0.000
REMARK  1 active torsions:
REMARK  status: ('A' for Active; 'I' for Inactive)
REMARK    1  A    between atoms: C5_7  and  C6_8
ROOT
HETATM    1  N1  UNL     1      15.695   2.446  11.393  1.00  0.00    -0.196 NA
HETATM    2  C1  UNL     1      16.248   2.493  12.409  1.00  0.00     0.075 C
HETATM    3  C2  UNL     1      16.972   2.545  13.697  1.00  0.00     0.164 C
HETATM    4  S1  UNL     1      17.783   4.167  13.797  1.00  0.00    -0.149 SA
HETATM    5  C3  UNL     1      16.618   4.990  14.940  1.00  0.00     0.076 C
HETATM    6  C4  UNL     1      15.481   4.028  14.930  1.00  0.00     0.024 C
HETATM    7  C5  UNL     1      15.971   2.631  14.813  1.00  0.00     0.072 C
ENDROOT
BRANCH   7   8
HETATM    8  C6  UNL     1      16.437   2.039  16.066  1.00  0.00     0.097 C
HETATM    9  N2  UNL     1      17.725   1.461  16.192  1.00  0.00    -0.094 NA
HETATM   10  S2  UNL     1      15.448   2.034  17.359  1.00  0.00    -0.068 SA
ENDBRANCH   7   8
TORSDOF 1
ENDMDL