MODEL 5
REMARK VINA RESULT: -7.176267522      2.124      3.504
REMARK  3 active torsions:
REMARK  status: ('A' for Active; 'I' for Inactive)
REMARK    1  A    between atoms: C4_5  and  C5_6
REMARK    2  A    between atoms: C5_6  and  C6_7
REMARK    3  A    between atoms: C6_7  and  N2_8
ROOT
HETATM    1  C1  UNL     1      -6.714   3.499  16.514  1.00  0.00     0.060 C
HETATM    2  C2  UNL     1      -5.875   2.369  16.071  1.00  0.00     0.015 C
HETATM    3  C3  UNL     1      -5.962   1.121  16.748  1.00  0.00     0.094 C
HETATM    4  N1  UNL     1      -6.020   0.109  17.312  1.00  0.00    -0.192 NA
HETATM    5  C4  UNL     1      -5.063   2.537  15.059  1.00  0.00    -0.007 C
ENDROOT
BRANCH   5   6
HETATM    6  C5  UNL     1      -4.223   1.394  14.619  1.00  0.00     0.048 C
BRANCH   6   7
HETATM    7  C6  UNL     1      -4.255   1.225  13.113  1.00  0.00     0.142 C
BRANCH   7   8
HETATM    8  N2  UNL     1      -2.940   1.471  12.603  1.00  0.00    -0.226 N
HETATM    9  C7  UNL     1      -2.695   2.486  11.854  1.00  0.00     0.682 A
HETATM   10  N3  UNL     1      -3.683   3.342  11.535  1.00  0.00    -0.166 N
HETATM   11  N7  UNL     1      -1.453   2.714  11.376  1.00  0.00    -0.166 N
HETATM   12  C8  UNL     1      -3.488   4.418  10.758  1.00  0.00     0.205 A
ATOM     13  H3  UNL     1      -4.619   3.166  11.899  1.00  0.00     0.186 HD
HETATM   14  C9  UNL     1      -4.572   5.306  10.441  1.00  0.00     0.137 C
HETATM   15  N5  UNL     1      -2.228   4.616  10.295  1.00  0.00    -0.310 N
HETATM   16  N4  UNL     1      -5.453   6.033  10.164  1.00  0.00    -0.188 NA
HETATM   17  C10 UNL     1      -1.214   3.782  10.593  1.00  0.00     0.205 A
ATOM     18  H5  UNL     1      -2.043   5.424   9.700  1.00  0.00     0.170 HD
HETATM   19  C11 UNL     1       0.119   3.971  10.118  1.00  0.00     0.137 C
HETATM   20  N6  UNL     1       1.203   4.110   9.743  1.00  0.00    -0.188 NA
ATOM     21  H7  UNL     1      -0.693   2.074  11.609  1.00  0.00     0.186 HD
ATOM     22  H2  UNL     1      -2.183   0.829  12.838  1.00  0.00     0.177 HD
ENDBRANCH   7   8
ENDBRANCH   6   7
ENDBRANCH   5   6
TORSDOF 3
ENDMDL