MODEL 1
REMARK VINA RESULT: -7.452663258      0.000      0.000
REMARK  3 active torsions:
REMARK  status: ('A' for Active; 'I' for Inactive)
REMARK    1  A    between atoms: N1_4  and  C4_5
REMARK    2  A    between atoms: C4_5  and  C5_6
REMARK       I    between atoms: C5_6  and  N2_8
REMARK    3  A    between atoms: N2_8  and  N3_10
ROOT
HETATM    1  C5  UNL     1      -3.855   1.554  12.483  1.00  0.00     0.255 C
HETATM    2  O1  UNL     1      -4.878   0.943  12.061  1.00  0.00    -0.270 OA
HETATM    3  N2  UNL     1      -3.628   1.590  13.865  1.00  0.00    -0.269 N
ATOM      4  H2  UNL     1      -2.805   2.081  14.213  1.00  0.00     0.190 HD
ENDROOT
BRANCH   1   5
HETATM    5  C4  UNL     1      -2.917   2.216  11.541  1.00  0.00     0.254 C
BRANCH   5   6
HETATM    6  N1  UNL     1      -2.315   3.349  12.201  1.00  0.00    -0.278 N
HETATM    7  C3  UNL     1      -2.951   4.396  12.764  1.00  0.00     0.138 A
HETATM    8  C2  UNL     1      -2.027   5.271  13.292  1.00  0.00     0.040 A
HETATM    9  C1  UNL     1      -2.244   6.558  14.006  1.00  0.00     0.071 C
HETATM   10  N5  UNL     1      -0.820   4.703  13.022  1.00  0.00    -0.289 N
HETATM   11  N4  UNL     1      -1.013   3.571  12.379  1.00  0.00    -0.240 N
ATOM     12  H5  UNL     1       0.088   5.091  13.278  1.00  0.00     0.188 HD
ATOM     13  H4  UNL     1      -0.270   2.951  12.060  1.00  0.00     0.208 HD
ENDBRANCH   5   6
ENDBRANCH   1   5
BRANCH   3  14
HETATM   14  N3  UNL     1      -4.480   0.982  14.786  1.00  0.00    -0.306 N
HETATM   15  C6  UNL     1      -5.134   1.664  15.662  1.00  0.00     0.004 C
HETATM   16  C7  UNL     1      -6.027   1.018  16.625  1.00  0.00     0.054 C
HETATM   17  C11 UNL     1      -4.966   3.138  15.682  1.00  0.00     0.054 C
HETATM   18  C8  UNL     1      -7.184   1.846  17.064  1.00  0.00     0.006 C
HETATM   19  C9  UNL     1      -6.921   3.314  17.118  1.00  0.00     0.001 C
HETATM   20  C10 UNL     1      -6.375   3.728  15.752  1.00  0.00     0.006 C
ATOM     21  H3  UNL     1      -4.590  -0.032  14.766  1.00  0.00     0.186 HD
ENDBRANCH   3  14
TORSDOF 3
ENDMDL