MODEL 1
REMARK VINA RESULT: -6.964467532      0.000      0.000
REMARK  3 active torsions:
REMARK  status: ('A' for Active; 'I' for Inactive)
REMARK    1  A    between atoms: C2_3  and  N2_4
REMARK       I    between atoms: N2_4  and  C3_6
REMARK    2  A    between atoms: C3_6  and  C4_8
REMARK    3  A    between atoms: C4_8  and  N3_9
ROOT
HETATM    1  N1  UNL     1      -2.581   2.320  16.261  1.00  0.00    -0.195 NA
HETATM    2  C1  UNL     1      -3.683   2.379  15.932  1.00  0.00     0.091 C
HETATM    3  C2  UNL     1      -5.090   2.465  15.540  1.00  0.00     0.122 C
HETATM    4  C7  UNL     1      -5.696   3.747  16.021  1.00  0.00     0.046 C
HETATM    5  C8  UNL     1      -6.871   3.562  16.949  1.00  0.00     0.004 C
HETATM    6  C9  UNL     1      -6.492   2.626  18.060  1.00  0.00     0.000 C
HETATM    7  C10 UNL     1      -6.146   1.271  17.514  1.00  0.00     0.004 C
HETATM    8  C11 UNL     1      -5.768   1.239  16.090  1.00  0.00     0.046 C
ENDROOT
BRANCH   3   9
HETATM    9  N2  UNL     1      -5.276   2.427  14.093  1.00  0.00    -0.338 N
HETATM   10  C3  UNL     1      -4.636   3.379  13.262  1.00  0.00     0.240 C
HETATM   11  O1  UNL     1      -3.884   4.259  13.777  1.00  0.00    -0.272 OA
ATOM     12  H2  UNL     1      -5.870   1.710  13.677  1.00  0.00     0.164 HD
BRANCH  10  13
HETATM   13  C4  UNL     1      -4.836   3.366  11.796  1.00  0.00     0.272 C
BRANCH  13  14
HETATM   14  N3  UNL     1      -4.477   2.110  11.177  1.00  0.00    -0.226 N
HETATM   15  N4  UNL     1      -3.256   1.592  11.181  1.00  0.00    -0.294 N
HETATM   16  C5  UNL     1      -3.213   0.422  10.539  1.00  0.00     0.127 A
ATOM     17  H4  UNL     1      -2.449   2.034  11.621  1.00  0.00     0.187 HD
HETATM   18  C6  UNL     1      -4.507   0.210  10.108  1.00  0.00     0.127 A
HETATM   19  N5  UNL     1      -5.237   1.262  10.519  1.00  0.00    -0.294 N
ATOM     20  H5  UNL     1      -6.234   1.384  10.346  1.00  0.00     0.187 HD
ENDBRANCH  13  14
ENDBRANCH  10  13
ENDBRANCH   3   9
TORSDOF 3
ENDMDL