MODEL 3
REMARK VINA RESULT: -6.272075875      0.836      1.042
REMARK  4 active torsions:
REMARK  status: ('A' for Active; 'I' for Inactive)
REMARK    1  A    between atoms: C2_2  and  C3_3
REMARK    2  A    between atoms: C3_3  and  C4_4
REMARK       I    between atoms: C4_4  and  N1_6
REMARK    3  A    between atoms: C7_9  and  N2_10
REMARK    4  A    between atoms: C8_14  and  C9_15
ROOT
HETATM    1  C4  UNL     1      -4.507   0.887  13.286  1.00  0.00     0.220 C
HETATM    2  O1  UNL     1      -4.533  -0.197  13.947  1.00  0.00    -0.273 OA
HETATM    3  N1  UNL     1      -4.727   2.097  13.951  1.00  0.00    -0.339 N
HETATM    4  C5  UNL     1      -5.002   2.237  15.363  1.00  0.00     0.129 C
HETATM    5  C6  UNL     1      -5.200   3.703  15.627  1.00  0.00     0.055 C
HETATM    6  C7  UNL     1      -5.707   4.194  14.296  1.00  0.00     0.214 C
HETATM    7  C8  UNL     1      -4.733   3.445  13.369  1.00  0.00     0.177 C
ENDROOT
BRANCH   7   8
HETATM    8  C9  UNL     1      -3.384   4.062  13.513  1.00  0.00     0.110 A
HETATM    9  N3  UNL     1      -2.512   3.811  14.490  1.00  0.00    -0.280 N
HETATM   10  N4  UNL     1      -1.397   4.406  14.488  1.00  0.00    -0.236 N
ATOM     11  H3  UNL     1      -2.743   3.147  15.230  1.00  0.00     0.189 HD
HETATM   12  N5  UNL     1      -1.112   5.253  13.536  1.00  0.00    -0.254 N
ATOM     13  H4  UNL     1      -0.720   4.224  15.229  1.00  0.00     0.209 HD
HETATM   14  S1  UNL     1      -2.509   5.202  12.588  1.00  0.00     0.020 SA
ATOM     15  H5  UNL     1      -0.265   5.803  13.399  1.00  0.00     0.197 HD
ENDBRANCH   7   8
BRANCH   6  16
HETATM   16  N2  UNL     1      -5.685   5.604  14.120  1.00  0.00    -0.073 N
ATOM     17  H23 UNL     1      -6.236   6.056  14.850  1.00  0.00     0.274 HD
ATOM     18  H22 UNL     1      -4.759   5.970  14.341  1.00  0.00     0.274 HD
ATOM     19  H21 UNL     1      -5.982   5.933  13.202  1.00  0.00     0.274 HD
ENDBRANCH   6  16
BRANCH   1  20
HETATM   20  C3  UNL     1      -4.238   0.733  11.844  1.00  0.00     0.103 C
BRANCH  20  21
HETATM   21  C2  UNL     1      -2.833   0.363  11.519  1.00  0.00     0.005 C
HETATM   22  C1  UNL     1      -1.980   1.552  11.139  1.00  0.00     0.005 C
ENDBRANCH  20  21
ENDBRANCH   1  20
TORSDOF 4
ENDMDL