MODEL 2
REMARK VINA RESULT: -6.957986769      1.983      5.530
REMARK  4 active torsions:
REMARK  status: ('A' for Active; 'I' for Inactive)
REMARK    1  A    between atoms: C3_3  and  C4_4
REMARK    2  A    between atoms: C4_4  and  C5_5
REMARK    3  A    between atoms: N4_12  and  N5_13
REMARK    4  A    between atoms: N5_13  and  C6_15
ROOT
HETATM    1  C5  UNL     1      -3.091   3.128  12.808  1.00  0.00     0.139 A
HETATM    2  N1  UNL     1      -1.904   3.793  12.865  1.00  0.00    -0.270 N
ATOM      3  H1  UNL     1      -1.246   3.948  12.101  1.00  0.00     0.190 HD
HETATM    4  N2  UNL     1      -1.783   4.194  14.119  1.00  0.00    -0.225 N
ATOM      5  H2  UNL     1      -0.992   4.724  14.486  1.00  0.00     0.210 HD
HETATM    6  N3  UNL     1      -2.821   3.818  14.824  1.00  0.00    -0.205 N
ATOM      7  H3  UNL     1      -2.967   4.006  15.815  1.00  0.00     0.212 HD
HETATM    8  N4  UNL     1      -3.647   3.154  14.034  1.00  0.00    -0.167 N
ENDROOT
BRANCH   8   9
HETATM    9  N5  UNL     1      -4.877   2.560  14.324  1.00  0.00    -0.285 N
ATOM     10  H5  UNL     1      -5.409   2.123  13.571  1.00  0.00     0.188 HD
BRANCH   9  11
HETATM   11  C6  UNL     1      -5.356   2.549  15.515  1.00  0.00     0.009 C
HETATM   12  C7  UNL     1      -5.005   1.432  16.427  1.00  0.00     0.087 C
HETATM   13  C8  UNL     1      -6.094   1.327  17.490  1.00  0.00     0.193 C
HETATM   14  C9  UNL     1      -7.442   1.547  16.835  1.00  0.00     0.066 C
HETATM   15  N6  UNL     1      -6.285   2.563  18.198  1.00  0.00    -0.066 N
HETATM   16  C10 UNL     1      -7.143   3.000  17.101  1.00  0.00     0.193 C
HETATM   17  C11 UNL     1      -6.254   3.605  16.041  1.00  0.00     0.087 C
ATOM     18  H62 UNL     1      -6.624   2.568  19.161  1.00  0.00     0.278 HD
ATOM     19  H61 UNL     1      -5.487   3.126  18.494  1.00  0.00     0.278 HD
ENDBRANCH   9  11
ENDBRANCH   8   9
BRANCH   1  20
HETATM   20  C4  UNL     1      -3.656   2.492  11.591  1.00  0.00     0.086 C
BRANCH  20  21
HETATM   21  C3  UNL     1      -3.217   1.053  11.479  1.00  0.00    -0.007 A
HETATM   22  C1  UNL     1      -4.138  -0.034  11.869  1.00  0.00     0.005 A
HETATM   23  C2  UNL     1      -3.768   0.244  10.385  1.00  0.00     0.005 A
ENDBRANCH  20  21
ENDBRANCH   1  20
TORSDOF 4
ENDMDL