MODEL 1
REMARK VINA RESULT: -7.366994874      0.000      0.000
REMARK  5 active torsions:
REMARK  status: ('A' for Active; 'I' for Inactive)
REMARK    1  A    between atoms: N1_1  and  N2_4
REMARK       I    between atoms: N3_6  and  C1_8
REMARK    2  A    between atoms: C1_8  and  C2_10
REMARK    3  A    between atoms: C3_11  and  O2_12
REMARK    4  A    between atoms: C6_16  and  C7_17
REMARK    5  A    between atoms: C7_17  and  N4_18
ROOT
HETATM    1  C2  UNL     1      -5.085   2.189  16.814  1.00  0.00     0.114 C
HETATM    2  C3  UNL     1      -6.100   1.206  17.358  1.00  0.00     0.131 C
HETATM    3  C4  UNL     1      -7.431   1.816  17.012  1.00  0.00     0.033 C
HETATM    4  C5  UNL     1      -7.141   3.306  17.166  1.00  0.00     0.010 C
HETATM    5  C6  UNL     1      -5.828   3.425  16.388  1.00  0.00     0.021 C
ENDROOT
BRANCH   1   6
HETATM    6  C1  UNL     1      -4.291   1.529  15.792  1.00  0.00     0.244 C
HETATM    7  N3  UNL     1      -4.827   1.170  14.537  1.00  0.00    -0.256 N
HETATM    8  N2  UNL     1      -4.119   0.875  13.570  1.00  0.00    -0.247 N
ATOM      9  H3  UNL     1      -5.841   1.155  14.425  1.00  0.00     0.191 HD
ATOM     10  H2  UNL     1      -3.651   1.756  13.359  1.00  0.00     0.207 HD
HETATM   11  O1  UNL     1      -3.088   1.261  16.013  1.00  0.00    -0.271 OA
BRANCH   8  12
HETATM   12  N1  UNL     1      -3.654   0.108  12.706  1.00  0.00    -0.331 N
ATOM     13  H12 UNL     1      -4.511  -0.346  12.391  1.00  0.00     0.178 HD
ATOM     14  H11 UNL     1      -2.910  -0.312  12.148  1.00  0.00     0.178 HD
ENDBRANCH   8  12
ENDBRANCH   1   6
BRANCH   2  15
HETATM   15  O2  UNL     1      -5.938  -0.059  16.794  1.00  0.00    -0.395 OA
ATOM     16  H2  UNL     1      -6.430  -0.718  17.270  1.00  0.00     0.210 HD
ENDBRANCH   2  15
BRANCH   5  17
HETATM   17  C7  UNL     1      -6.035   3.546  14.929  1.00  0.00     0.155 C
BRANCH  17  18
HETATM   18  N4  UNL     1      -5.239   4.582  14.305  1.00  0.00    -0.287 N
HETATM   19  C8  UNL     1      -4.607   4.588  13.115  1.00  0.00     0.130 A
HETATM   20  C9  UNL     1      -3.960   5.788  12.913  1.00  0.00     0.127 A
HETATM   21  N5  UNL     1      -4.226   6.505  14.021  1.00  0.00    -0.296 N
HETATM   22  N6  UNL     1      -4.968   5.796  14.822  1.00  0.00    -0.241 N
ATOM     23  H5  UNL     1      -3.898   7.452  14.204  1.00  0.00     0.187 HD
ATOM     24  H6  UNL     1      -5.302   6.120  15.729  1.00  0.00     0.208 HD
ENDBRANCH  17  18
ENDBRANCH   5  17
TORSDOF 5
ENDMDL