MODEL 3
REMARK VINA RESULT: -6.224341677      1.541      3.849
REMARK  4 active torsions:
REMARK  status: ('A' for Active; 'I' for Inactive)
REMARK    1  A    between atoms: C2_2  and  N1_4
REMARK    2  A    between atoms: C7_8  and  N2_9
REMARK    3  A    between atoms: C7_8  and  C8_13
REMARK    4  A    between atoms: C8_13  and  N3_14
ROOT
HETATM    1  N1  UNL     1      -5.656   3.014  16.319  1.00  0.00    -0.409 N
HETATM    2  C4  UNL     1      -4.756   1.941  16.117  1.00  0.00     0.117 C
HETATM    3  C5  UNL     1      -3.353   2.446  16.069  1.00  0.00     0.022 C
HETATM    4  C6  UNL     1      -3.207   3.532  15.063  1.00  0.00     0.042 C
HETATM    5  C7  UNL     1      -3.902   3.346  13.766  1.00  0.00     0.143 C
HETATM    6  C11 UNL     1      -5.407   3.231  13.882  1.00  0.00     0.059 C
HETATM    7  C12 UNL     1      -5.962   3.787  15.153  1.00  0.00     0.119 C
ENDROOT
BRANCH   5   8
HETATM    8  N2  UNL     1      -3.464   2.099  13.114  1.00  0.00    -0.069 N
ATOM      9  H23 UNL     1      -3.616   2.126  12.106  1.00  0.00     0.275 HD
ATOM     10  H22 UNL     1      -2.449   2.010  13.114  1.00  0.00     0.275 HD
ATOM     11  H21 UNL     1      -3.915   1.291  13.543  1.00  0.00     0.275 HD
ENDBRANCH   5   8
BRANCH   5  12
HETATM   12  C8  UNL     1      -3.621   4.529  12.868  1.00  0.00     0.188 C
BRANCH  12  13
HETATM   13  N3  UNL     1      -3.105   5.690  13.529  1.00  0.00    -0.284 N
HETATM   14  C9  UNL     1      -1.844   6.117  13.626  1.00  0.00     0.201 A
HETATM   15  N4  UNL     1      -1.855   7.251  14.339  1.00  0.00    -0.346 N
HETATM   16  C10 UNL     1      -3.108   7.518  14.677  1.00  0.00     0.198 A
ATOM     17  H4  UNL     1      -1.038   7.812  14.581  1.00  0.00     0.167 HD
HETATM   18  N5  UNL     1      -3.859   6.555  14.174  1.00  0.00    -0.293 N
ATOM     19  H5  UNL     1      -4.873   6.490  14.271  1.00  0.00     0.188 HD
ENDBRANCH  12  13
ENDBRANCH   5  12
BRANCH   1  20
HETATM   20  C2  UNL     1      -6.779   2.775  17.160  1.00  0.00     0.070 C
HETATM   21  C1  UNL     1      -7.608   1.583  16.825  1.00  0.00     0.031 C
HETATM   22  C3  UNL     1      -6.321   2.631  18.597  1.00  0.00     0.031 C
ENDBRANCH   1  20
TORSDOF 4
ENDMDL