MODEL 1
REMARK VINA RESULT: -7.081565145      0.000      0.000
REMARK  3 active torsions:
REMARK  status: ('A' for Active; 'I' for Inactive)
REMARK    1  A    between atoms: C2_7  and  S1_8
REMARK    2  A    between atoms: S1_8  and  C3_9
REMARK    3  A    between atoms: C3_9  and  C4_10
REMARK       I    between atoms: C4_10  and  N4_12
ROOT
HETATM    1  S1  UNL     1      -4.402   3.275  13.362  1.00  0.00    -0.094 SA
ENDROOT
BRANCH   1   2
HETATM    2  C2  UNL     1      -3.673   1.790  12.667  1.00  0.00     0.130 A
HETATM    3  N3  UNL     1      -2.532   1.644  12.004  1.00  0.00    -0.286 N
HETATM    4  N2  UNL     1      -2.183   0.505  11.587  1.00  0.00    -0.281 N
ATOM      5  H3  UNL     1      -1.937   2.454  11.832  1.00  0.00     0.188 HD
HETATM    6  C1  UNL     1      -2.958  -0.549  11.811  1.00  0.00     0.175 A
ATOM      7  H2  UNL     1      -1.306   0.395  11.077  1.00  0.00     0.188 HD
HETATM    8  N1  UNL     1      -2.708  -1.908  11.406  1.00  0.00    -0.073 NA
HETATM    9  S2  UNL     1      -4.251   0.167  12.670  1.00  0.00    -0.030 SA
ENDBRANCH   1   2
BRANCH   1  10
HETATM   10  C3  UNL     1      -3.653   3.627  14.985  1.00  0.00     0.184 C
BRANCH  10  11
HETATM   11  C4  UNL     1      -3.918   2.511  15.931  1.00  0.00     0.229 C
HETATM   12  O1  UNL     1      -3.026   1.648  16.127  1.00  0.00    -0.273 OA
HETATM   13  N4  UNL     1      -5.154   2.395  16.619  1.00  0.00    -0.351 N
HETATM   14  C5  UNL     1      -5.596   1.405  17.554  1.00  0.00     0.126 C
HETATM   15  C8  UNL     1      -6.253   3.326  16.483  1.00  0.00     0.126 C
HETATM   16  C6  UNL     1      -7.032   1.182  17.226  1.00  0.00     0.021 C
HETATM   17  C7  UNL     1      -7.491   2.452  16.564  1.00  0.00     0.021 C
ENDBRANCH  10  11
ENDBRANCH   1  10
TORSDOF 3
ENDMDL