MODEL 3
REMARK VINA RESULT: -6.346035274      2.287      3.904
REMARK  3 active torsions:
REMARK  status: ('A' for Active; 'I' for Inactive)
REMARK    1  A    between atoms: N2_10  and  N3_11
REMARK    2  A    between atoms: C8_13  and  C9_14
REMARK    3  A    between atoms: C10_15  and  C11_16
ROOT
HETATM    1  N1  UNL     1      -2.675  -2.135  11.688  1.00  0.00    -0.195 NA
HETATM    2  C1  UNL     1      -3.325  -1.194  11.522  1.00  0.00     0.086 C
HETATM    3  C2  UNL     1      -4.154   0.004  11.308  1.00  0.00     0.211 C
HETATM    4  C3  UNL     1      -3.819   0.516   9.924  1.00  0.00     0.045 C
HETATM    5  C4  UNL     1      -2.724   1.518  10.229  1.00  0.00     0.052 C
HETATM    6  C5  UNL     1      -3.305   2.196  11.450  1.00  0.00     0.119 A
HETATM    7  C6  UNL     1      -4.329   3.224  11.103  1.00  0.00     0.024 A
HETATM    8  C7  UNL     1      -3.718   4.260  11.669  1.00  0.00     0.047 A
HETATM    9  S1  UNL     1      -2.272   3.374  12.282  1.00  0.00    -0.104 SA
HETATM   10  N2  UNL     1      -3.789   1.076  12.215  1.00  0.00    -0.286 N
ENDROOT
BRANCH  10  11
HETATM   11  N3  UNL     1      -3.880   1.056  13.599  1.00  0.00    -0.311 N
HETATM   12  C8  UNL     1      -4.792   1.668  14.264  1.00  0.00     0.107 C
ATOM     13  H3  UNL     1      -3.182   0.525  14.119  1.00  0.00     0.185 HD
BRANCH  12  14
HETATM   14  C9  UNL     1      -4.800   1.584  15.715  1.00  0.00     0.025 C
HETATM   15  C10 UNL     1      -5.868   1.927  16.406  1.00  0.00     0.086 C
BRANCH  15  16
HETATM   16  C11 UNL     1      -5.863   1.837  17.871  1.00  0.00     0.198 C
HETATM   17  O1  UNL     1      -5.350   0.831  18.416  1.00  0.00    -0.645 OA
HETATM   18  O2  UNL     1      -6.426   2.863  18.608  1.00  0.00    -0.645 OA
ENDBRANCH  15  16
ENDBRANCH  12  14
ENDBRANCH  10  11
TORSDOF 3
ENDMDL