MODEL 5
REMARK VINA RESULT: -5.709370307      3.251      5.564
REMARK  4 active torsions:
REMARK  status: ('A' for Active; 'I' for Inactive)
REMARK    1  A    between atoms: C2_2  and  C3_3
REMARK    2  A    between atoms: C3_3  and  C4_4
REMARK    3  A    between atoms: C3_3  and  N1_7
REMARK    4  A    between atoms: C4_4  and  O1_5
ROOT
HETATM    1  N1  UNL     1      -4.958   4.507  14.671  1.00  0.00    -0.375 N
HETATM    2  C5  UNL     1      -6.305   4.210  15.134  1.00  0.00     0.143 C
HETATM    3  C6  UNL     1      -6.361   3.751  16.555  1.00  0.00     0.151 C
HETATM    4  N2  UNL     1      -5.988   2.362  16.622  1.00  0.00    -0.329 N
HETATM    5  C7  UNL     1      -6.263   1.570  17.692  1.00  0.00     0.201 A
HETATM    6  N3  UNL     1      -5.755   0.363  17.366  1.00  0.00    -0.295 N
ATOM      7  H3  UNL     1      -5.794  -0.467  17.959  1.00  0.00     0.187 HD
HETATM    8  N4  UNL     1      -5.206   0.414  16.178  1.00  0.00    -0.288 N
ATOM      9  H4  UNL     1      -4.753  -0.368  15.704  1.00  0.00     0.188 HD
HETATM   10  C8  UNL     1      -5.333   1.657  15.677  1.00  0.00     0.101 A
HETATM   11  C9  UNL     1      -4.839   2.083  14.368  1.00  0.00     0.108 C
HETATM   12  C10 UNL     1      -4.124   3.452  14.411  1.00  0.00     0.031 C
HETATM   13  C11 UNL     1      -3.179   3.299  15.630  1.00  0.00     0.038 C
HETATM   14  C12 UNL     1      -3.201   3.447  13.243  1.00  0.00     0.038 C
ENDROOT
BRANCH   1  15
HETATM   15  C3  UNL     1      -4.975   5.758  14.077  1.00  0.00     0.008 C
BRANCH  15  16
HETATM   16  C2  UNL     1      -4.111   6.742  14.853  1.00  0.00     0.050 C
HETATM   17  C1  UNL     1      -2.818   7.070  14.199  1.00  0.00     0.011 C
ENDBRANCH  15  16
BRANCH  15  18
HETATM   18  C4  UNL     1      -6.234   6.340  13.565  1.00  0.00     0.216 C
BRANCH  18  19
HETATM   19  O1  UNL     1      -6.080   6.797  12.231  1.00  0.00    -0.395 OA
ATOM     20  H1  UNL     1      -5.371   6.341  11.793  1.00  0.00     0.209 HD
ENDBRANCH  18  19
ENDBRANCH  15  18
ENDBRANCH   1  15
TORSDOF 4
ENDMDL