MODEL 1
REMARK VINA RESULT: -6.120641806      0.000      0.000
REMARK  3 active torsions:
REMARK  status: ('A' for Active; 'I' for Inactive)
REMARK    1  A    between atoms: C2_2  and  C5_5
REMARK    2  A    between atoms: C5_5  and  N1_8
REMARK    3  A    between atoms: N1_8  and  N2_10
ROOT
HETATM    1  N2  UNL     1      -5.195   2.824  13.404  1.00  0.00    -0.286 N
ATOM      2  H2  UNL     1      -5.411   3.819  13.343  1.00  0.00     0.188 HD
HETATM    3  C8  UNL     1      -4.729   2.221  12.358  1.00  0.00     0.209 C
HETATM    4  C9  UNL     1      -4.397   0.831  12.353  1.00  0.00     0.130 C
HETATM    5  N3  UNL     1      -4.120  -0.295  12.335  1.00  0.00    -0.189 NA
HETATM    6  C10 UNL     1      -4.524   2.956  11.142  1.00  0.00     0.130 C
HETATM    7  N4  UNL     1      -4.346   3.567  10.156  1.00  0.00    -0.189 NA
ENDROOT
BRANCH   1   8
HETATM    8  N1  UNL     1      -5.413   2.162  14.609  1.00  0.00    -0.325 N
ATOM      9  H1  UNL     1      -5.770   1.206  14.624  1.00  0.00     0.181 HD
BRANCH   8  10
HETATM   10  C5  UNL     1      -5.122   2.862  15.832  1.00  0.00     0.045 C
HETATM   11  C6  UNL     1      -3.916   2.221  16.457  1.00  0.00     0.040 C
HETATM   12  C7  UNL     1      -4.768   4.283  15.486  1.00  0.00     0.040 C
BRANCH  10  13
HETATM   13  C2  UNL     1      -6.256   2.796  16.822  1.00  0.00    -0.025 C
HETATM   14  C1  UNL     1      -6.900   4.147  16.950  1.00  0.00     0.017 C
HETATM   15  C3  UNL     1      -7.226   1.735  16.431  1.00  0.00     0.017 C
HETATM   16  C4  UNL     1      -5.753   2.425  18.216  1.00  0.00     0.017 C
ENDBRANCH  10  13
ENDBRANCH   8  10
ENDBRANCH   1   8
TORSDOF 3
ENDMDL