MODEL 2
REMARK VINA RESULT: -6.627334361      1.019      1.130
REMARK  1 active torsions:
REMARK  status: ('A' for Active; 'I' for Inactive)
REMARK    1  A    between atoms: C2_2  and  C3_3
ROOT
HETATM    1  C1  UNL     1      -3.747   3.869  15.009  1.00  0.00     0.047 C
HETATM    2  C2  UNL     1      -4.777   2.763  14.799  1.00  0.00     0.087 C
HETATM    3  C6  UNL     1      -4.444   1.660  15.746  1.00  0.00     0.039 C
HETATM    4  C7  UNL     1      -5.596   1.226  16.611  1.00  0.00     0.003 C
HETATM    5  C8  UNL     1      -5.945   2.252  17.668  1.00  0.00     0.000 C
HETATM    6  C9  UNL     1      -7.122   3.110  17.243  1.00  0.00     0.002 C
HETATM    7  C10 UNL     1      -6.574   4.477  16.901  1.00  0.00     0.019 C
HETATM    8  C11 UNL     1      -6.259   4.565  15.403  1.00  0.00     0.115 C
HETATM    9  N2  UNL     1      -6.123   3.244  14.905  1.00  0.00    -0.406 N
ATOM     10  H2  UNL     1      -6.928   2.675  14.642  1.00  0.00     0.154 HD
ENDROOT
BRANCH   2  11
HETATM   11  C3  UNL     1      -4.583   2.278  13.406  1.00  0.00     0.142 C
HETATM   12  N1  UNL     1      -3.790   1.348  13.017  1.00  0.00    -0.370 N
HETATM   13  C4  UNL     1      -3.896   1.175  11.565  1.00  0.00     0.148 C
ATOM     14  H1  UNL     1      -3.175   0.809  13.627  1.00  0.00     0.161 HD
HETATM   15  C5  UNL     1      -4.733   2.356  11.111  1.00  0.00     0.197 C
HETATM   16  O1  UNL     1      -5.278   2.812  12.325  1.00  0.00    -0.336 OA
ENDBRANCH   2  11
TORSDOF 1
ENDMDL