MODEL 2
REMARK VINA RESULT: -6.422204437      1.709      2.030
REMARK  2 active torsions:
REMARK  status: ('A' for Active; 'I' for Inactive)
REMARK    1  A    between atoms: C2_2  and  C3_4
REMARK    2  A    between atoms: C3_4  and  O2_5
ROOT
HETATM    1  C3  UNL     1      -4.498   4.264  12.706  1.00  0.00     0.121 C
HETATM    2  C4  UNL     1      -3.326   4.007  13.614  1.00  0.00     0.052 C
HETATM    3  C5  UNL     1      -3.634   4.498  15.013  1.00  0.00     0.006 C
HETATM    4  C6  UNL     1      -4.233   5.885  14.885  1.00  0.00     0.006 C
HETATM    5  C7  UNL     1      -5.616   5.767  14.241  1.00  0.00     0.008 C
HETATM    6  C8  UNL     1      -5.719   4.391  13.571  1.00  0.00     0.029 C
HETATM    7  C9  UNL     1      -5.750   3.345  14.647  1.00  0.00     0.027 C
HETATM    8  C10 UNL     1      -4.683   3.627  15.671  1.00  0.00     0.097 C
HETATM    9  C11 UNL     1      -4.112   2.363  16.098  1.00  0.00     0.064 C
HETATM   10  N1  UNL     1      -3.656   1.355  16.460  1.00  0.00    -0.197 NA
ENDROOT
BRANCH   1  11
HETATM   11  C2  UNL     1      -4.606   3.231  11.649  1.00  0.00     0.157 C
HETATM   12  C1  UNL     1      -4.219   1.817  11.871  1.00  0.00     0.094 C
HETATM   13  O1  UNL     1      -5.028   3.558  10.559  1.00  0.00    -0.295 OA
ENDBRANCH   1  11
BRANCH   1  14
HETATM   14  O2  UNL     1      -4.338   5.511  12.067  1.00  0.00    -0.382 OA
ATOM     15  H2  UNL     1      -3.536   5.901  12.395  1.00  0.00     0.211 HD
ENDBRANCH   1  14
TORSDOF 2
ENDMDL