MODEL 5
REMARK VINA RESULT: -6.000189640      1.878      2.246
REMARK  3 active torsions:
REMARK  status: ('A' for Active; 'I' for Inactive)
REMARK    1  A    between atoms: C2_2  and  C8_11
REMARK       I    between atoms: N1_3  and  C3_5
REMARK    2  A    between atoms: C3_5  and  C4_7
REMARK    3  A    between atoms: C8_11  and  N2_12
ROOT
HETATM    1  C8  UNL     1      -4.125   3.789  12.952  1.00  0.00     0.334 C
HETATM    2  C9  UNL     1      -4.920   2.873  12.144  1.00  0.00     0.098 C
HETATM    3  N3  UNL     1      -5.557   2.155  11.490  1.00  0.00    -0.195 NA
ENDROOT
BRANCH   1   4
HETATM    4  C2  UNL     1      -4.633   3.781  14.345  1.00  0.00     0.029 C
HETATM    5  C1  UNL     1      -3.665   4.213  15.380  1.00  0.00     0.066 C
HETATM    6  N1  UNL     1      -5.802   3.437  14.682  1.00  0.00    -0.331 N
HETATM    7  C3  UNL     1      -6.262   3.436  16.011  1.00  0.00     0.229 C
ATOM      8  H1  UNL     1      -6.447   3.144  13.949  1.00  0.00     0.168 HD
HETATM    9  O1  UNL     1      -6.650   4.550  16.463  1.00  0.00    -0.272 OA
BRANCH   7  10
HETATM   10  C4  UNL     1      -6.324   2.272  16.891  1.00  0.00     0.030 C
HETATM   11  C5  UNL     1      -7.700   1.606  16.802  1.00  0.00     0.025 C
HETATM   12  C6  UNL     1      -5.315   1.191  16.583  1.00  0.00     0.025 C
HETATM   13  C7  UNL     1      -6.076   2.701  18.320  1.00  0.00     0.025 C
ENDBRANCH   7  10
ENDBRANCH   1   4
BRANCH   1  14
HETATM   14  N2  UNL     1      -2.726   3.523  12.847  1.00  0.00    -0.057 N
ATOM     15  H23 UNL     1      -2.252   4.280  12.353  1.00  0.00     0.276 HD
ATOM     16  H22 UNL     1      -2.276   3.605  13.758  1.00  0.00     0.276 HD
ATOM     17  H21 UNL     1      -2.509   2.623  12.418  1.00  0.00     0.276 HD
ENDBRANCH   1  14
TORSDOF 3
ENDMDL