MODEL 5
REMARK VINA RESULT: -5.627722576      2.355      4.008
REMARK  2 active torsions:
REMARK  status: ('A' for Active; 'I' for Inactive)
REMARK    1  A    between atoms: C2_2  and  C3_4
REMARK    2  A    between atoms: C10_12  and  O2_14
ROOT
HETATM    1  C3  UNL     1      -4.735   3.234  14.248  1.00  0.00     0.140 C
HETATM    2  C4  UNL     1      -4.108   2.609  15.435  1.00  0.00     0.080 C
HETATM    3  N1  UNL     1      -3.626   2.102  16.360  1.00  0.00    -0.196 NA
HETATM    4  C5  UNL     1      -6.079   3.764  14.698  1.00  0.00     0.036 C
HETATM    5  C6  UNL     1      -6.183   5.187  14.194  1.00  0.00     0.014 C
HETATM    6  C7  UNL     1      -4.748   5.656  14.065  1.00  0.00    -0.015 C
HETATM    7  C8  UNL     1      -4.401   6.356  15.360  1.00  0.00     0.018 C
HETATM    8  C9  UNL     1      -4.616   6.662  12.960  1.00  0.00     0.018 C
HETATM    9  C10 UNL     1      -3.918   4.439  13.820  1.00  0.00     0.089 C
HETATM   10  C11 UNL     1      -2.623   4.503  14.642  1.00  0.00     0.049 C
ENDROOT
BRANCH   1  11
HETATM   11  C2  UNL     1      -4.866   2.233  13.166  1.00  0.00     0.148 C
HETATM   12  C1  UNL     1      -4.229   0.909  13.170  1.00  0.00     0.093 C
HETATM   13  O1  UNL     1      -5.549   2.519  12.197  1.00  0.00    -0.296 OA
ENDBRANCH   1  11
BRANCH   9  14
HETATM   14  O2  UNL     1      -3.515   4.366  12.491  1.00  0.00    -0.387 OA
ATOM     15  H2  UNL     1      -2.606   4.102  12.399  1.00  0.00     0.210 HD
ENDBRANCH   9  14
TORSDOF 2
ENDMDL