MODEL 4
REMARK VINA RESULT: -5.126927408      1.646      2.963
REMARK  2 active torsions:
REMARK  status: ('A' for Active; 'I' for Inactive)
REMARK    1  A    between atoms: C4_5  and  C5_6
REMARK    2  A    between atoms: C5_6  and  O2_9
ROOT
HETATM    1  C1  UNL     1      -7.305   2.351  16.601  1.00  0.00     0.078 C
HETATM    2  C2  UNL     1      -5.839   2.483  16.261  1.00  0.00     0.158 C
HETATM    3  C3  UNL     1      -5.045   1.648  17.259  1.00  0.00     0.078 C
HETATM    4  O1  UNL     1      -5.628   1.922  15.013  1.00  0.00    -0.345 OA
HETATM    5  C4  UNL     1      -4.595   2.705  14.495  1.00  0.00     0.192 C
HETATM    6  C8  UNL     1      -5.022   4.062  14.904  1.00  0.00     0.086 C
HETATM    7  C9  UNL     1      -3.942   5.080  14.988  1.00  0.00     0.048 C
HETATM    8  C10 UNL     1      -6.218   4.594  14.173  1.00  0.00     0.048 C
HETATM    9  O3  UNL     1      -5.448   3.794  16.226  1.00  0.00    -0.343 OA
ENDROOT
BRANCH   5  10
HETATM   10  C5  UNL     1      -4.516   2.449  13.029  1.00  0.00     0.079 C
HETATM   11  C6  UNL     1      -4.215   0.972  12.834  1.00  0.00     0.048 C
HETATM   12  C7  UNL     1      -3.431   3.225  12.336  1.00  0.00     0.048 C
BRANCH  10  13
HETATM   13  O2  UNL     1      -5.707   2.709  12.358  1.00  0.00    -0.388 OA
ATOM     14  H2  UNL     1      -6.151   3.490  12.668  1.00  0.00     0.210 HD
ENDBRANCH  10  13
ENDBRANCH   5  10
TORSDOF 2
ENDMDL