MODEL 5
REMARK VINA RESULT: -5.498910057      2.000      4.329
REMARK  2 active torsions:
REMARK  status: ('A' for Active; 'I' for Inactive)
REMARK    1  A    between atoms: C8_10  and  N2_11
REMARK    2  A    between atoms: N2_11  and  C9_13
ROOT
HETATM    1  C1  UNL     1      -2.475   4.840  11.366  1.00  0.00     0.097 C
HETATM    2  C2  UNL     1      -3.282   3.574  11.522  1.00  0.00     0.113 C
HETATM    3  N1  UNL     1      -4.311   3.269  10.824  1.00  0.00    -0.365 N
ATOM      4  H1  UNL     1      -4.702   3.846  10.081  1.00  0.00     0.161 HD
HETATM    5  C3  UNL     1      -4.839   1.985  11.242  1.00  0.00     0.139 C
HETATM    6  C4  UNL     1      -4.362   0.940  10.313  1.00  0.00     0.030 C
HETATM    7  C5  UNL     1      -3.599  -0.193  10.927  1.00  0.00     0.002 C
HETATM    8  C6  UNL     1      -4.323  -0.552  12.213  1.00  0.00     0.005 C
HETATM    9  C7  UNL     1      -4.013   0.584  13.168  1.00  0.00     0.063 C
HETATM   10  C8  UNL     1      -4.324   1.916  12.644  1.00  0.00     0.158 C
HETATM   11  O1  UNL     1      -3.045   2.568  12.422  1.00  0.00    -0.307 OA
ENDROOT
BRANCH  10  12
HETATM   12  N2  UNL     1      -4.997   2.746  13.550  1.00  0.00    -0.386 N
ATOM     13  H2  UNL     1      -5.746   3.347  13.204  1.00  0.00     0.156 HD
BRANCH  12  14
HETATM   14  C9  UNL     1      -4.679   2.781  14.914  1.00  0.00     0.071 C
HETATM   15  C10 UNL     1      -3.857   3.945  15.407  1.00  0.00     0.031 C
HETATM   16  C11 UNL     1      -6.027   2.913  15.662  1.00  0.00     0.031 C
ENDBRANCH  12  14
ENDBRANCH  10  12
TORSDOF 2
ENDMDL