MODEL 5
REMARK VINA RESULT: -6.159001859      1.059      1.326
REMARK  4 active torsions:
REMARK  status: ('A' for Active; 'I' for Inactive)
REMARK    1  A    between atoms: C2_2  and  O1_4
REMARK    2  A    between atoms: O1_4  and  C4_5
REMARK    3  A    between atoms: C4_5  and  N1_7
REMARK       I    between atoms: N1_7  and  C5_8
REMARK    4  A    between atoms: C5_8  and  C6_10
ROOT
HETATM    1  N1  UNL     1      -4.639   2.823  15.587  1.00  0.00    -0.333 NA
HETATM    2  C5  UNL     1      -5.167   2.200  16.660  1.00  0.00     0.302 C
HETATM    3  O2  UNL     1      -4.686   1.158  17.216  1.00  0.00    -0.256 OA
ENDROOT
BRANCH   1   4
HETATM    4  C4  UNL     1      -4.106   3.452  14.505  1.00  0.00     0.292 C
HETATM    5  S1  UNL     1      -3.795   5.098  14.760  1.00  0.00    -0.017 SA
BRANCH   4   6
HETATM    6  O1  UNL     1      -3.798   2.948  13.288  1.00  0.00    -0.311 OA
BRANCH   6   7
HETATM    7  C2  UNL     1      -4.588   2.185  12.433  1.00  0.00     0.124 C
HETATM    8  C1  UNL     1      -4.520   2.566  10.980  1.00  0.00     0.040 C
HETATM    9  C3  UNL     1      -4.159   0.734  12.576  1.00  0.00     0.040 C
ENDBRANCH   6   7
ENDBRANCH   4   6
ENDBRANCH   1   4
BRANCH   2  10
HETATM   10  C6  UNL     1      -6.438   2.683  17.344  1.00  0.00     0.044 C
HETATM   11  C7  UNL     1      -7.507   1.660  16.969  1.00  0.00     0.026 C
HETATM   12  C8  UNL     1      -6.241   2.685  18.825  1.00  0.00     0.026 C
HETATM   13  C9  UNL     1      -6.820   4.064  16.916  1.00  0.00     0.026 C
ENDBRANCH   2  10
TORSDOF 4
ENDMDL