MODEL 3
REMARK VINA RESULT: -6.539909763      0.391      1.264
REMARK  4 active torsions:
REMARK  status: ('A' for Active; 'I' for Inactive)
REMARK    1  A    between atoms: C2_2  and  C5_5
REMARK    2  A    between atoms: C5_5  and  O2_7
REMARK    3  A    between atoms: O2_7  and  C6_8
REMARK    4  A    between atoms: C11_13  and  N1_14
ROOT
HETATM    1  C6  UNL     1      -5.256   2.546  14.792  1.00  0.00     0.162 C
HETATM    2  C7  UNL     1      -5.403   3.967  14.332  1.00  0.00     0.035 C
HETATM    3  C8  UNL     1      -5.875   4.915  15.361  1.00  0.00     0.003 C
HETATM    4  C9  UNL     1      -6.610   4.332  16.507  1.00  0.00     0.002 C
HETATM    5  C10 UNL     1      -6.059   3.081  17.072  1.00  0.00     0.035 C
HETATM    6  C11 UNL     1      -5.014   2.410  16.256  1.00  0.00     0.212 C
ENDROOT
BRANCH   1   7
HETATM    7  O2  UNL     1      -4.142   1.991  14.112  1.00  0.00    -0.313 OA
BRANCH   7   8
HETATM    8  C5  UNL     1      -4.228   0.863  13.306  1.00  0.00     0.267 C
HETATM    9  O1  UNL     1      -4.629  -0.191  13.867  1.00  0.00    -0.264 OA
BRANCH   8  10
HETATM   10  C2  UNL     1      -3.881   0.856  11.876  1.00  0.00     0.037 C
HETATM   11  C1  UNL     1      -4.999   1.300  10.988  1.00  0.00     0.025 C
HETATM   12  C3  UNL     1      -2.677   1.741  11.641  1.00  0.00     0.025 C
HETATM   13  C4  UNL     1      -3.474  -0.550  11.412  1.00  0.00     0.025 C
ENDBRANCH   8  10
ENDBRANCH   7   8
ENDBRANCH   1   7
BRANCH   6  14
HETATM   14  N1  UNL     1      -5.054   0.980  16.575  1.00  0.00    -0.073 N
ATOM     15  H13 UNL     1      -4.949   0.790  17.572  1.00  0.00     0.274 HD
ATOM     16  H12 UNL     1      -5.982   0.572  16.460  1.00  0.00     0.274 HD
ATOM     17  H11 UNL     1      -4.344   0.521  16.006  1.00  0.00     0.274 HD
ENDBRANCH   6  14
TORSDOF 4
ENDMDL