MODEL 4
REMARK VINA RESULT: -5.949288322      2.308      4.215
REMARK  2 active torsions:
REMARK  status: ('A' for Active; 'I' for Inactive)
REMARK    1  A    between atoms: C2_2  and  C4_4
REMARK    2  A    between atoms: N2_14  and  O1_15
ROOT
HETATM    1  C4  UNL     1      -3.839   2.996  13.169  1.00  0.00     0.011 C
HETATM    2  N1  UNL     1      -3.051   3.982  13.402  1.00  0.00    -0.394 N
ATOM      3  H1  UNL     1      -3.205   4.501  14.267  1.00  0.00     0.159 HD
HETATM    4  C5  UNL     1      -1.994   4.416  12.577  1.00  0.00     0.119 C
HETATM    5  C6  UNL     1      -1.503   3.232  11.736  1.00  0.00     0.022 C
HETATM    6  C7  UNL     1      -2.720   2.689  11.045  1.00  0.00     0.035 C
HETATM    7  C8  UNL     1      -3.763   2.140  11.975  1.00  0.00     0.076 C
HETATM    8  C9  UNL     1      -3.378   0.720  12.332  1.00  0.00     0.035 C
HETATM    9  C10 UNL     1      -4.179  -0.157  11.435  1.00  0.00     0.019 C
HETATM   10  C11 UNL     1      -5.067   0.756  10.635  1.00  0.00     0.122 C
HETATM   11  N2  UNL     1      -4.992   2.054  11.218  1.00  0.00    -0.184 NA
ENDROOT
BRANCH   1  12
HETATM   12  C2  UNL     1      -4.885   2.741  14.210  1.00  0.00     0.025 C
HETATM   13  C1  UNL     1      -5.853   3.908  14.255  1.00  0.00     0.016 C
HETATM   14  C3  UNL     1      -4.295   2.598  15.587  1.00  0.00     0.016 C
ENDBRANCH   1  12
BRANCH  11  15
HETATM   15  O1  UNL     1      -5.090   2.981  10.246  1.00  0.00    -0.312 OA
ATOM     16  H1  UNL     1      -5.874   2.895   9.716  1.00  0.00     0.237 HD
ENDBRANCH  11  15
TORSDOF 2
ENDMDL