MODEL 1
REMARK VINA RESULT: -10.495893526      0.000      0.000
REMARK  8 active torsions:
REMARK  status: ('A' for Active; 'I' for Inactive)
REMARK    1  A    between atoms: C2_2  and  N1_3
REMARK    2  A    between atoms: C3_6  and  C4_7
REMARK    3  A    between atoms: C4_7  and  C5_9
REMARK    4  A    between atoms: C6_15  and  C7_16
REMARK    5  A    between atoms: C7_16  and  C8_17
REMARK    6  A    between atoms: C8_17  and  C9_18
REMARK    7  A    between atoms: C9_18  and  N5_19
REMARK       I    between atoms: N5_19  and  C10_21
REMARK    8  A    between atoms: C10_21  and  C11_23
ROOT
HETATM    1  C5  UNL     1      66.283  35.751  40.172  1.00  0.00     0.115 A
HETATM    2  N3  UNL     1      65.231  36.486  40.376  1.00  0.00    -0.290 N
ATOM      3  H3  UNL     1      65.030  37.264  39.748  1.00  0.00     0.187 HD
HETATM    4  N4  UNL     1      64.433  36.243  41.366  1.00  0.00    -0.269 N
ATOM      5  H4  UNL     1      63.584  36.740  41.630  1.00  0.00     0.195 HD
HETATM    6  S1  UNL     1      65.134  34.911  42.110  1.00  0.00    -0.001 SA
HETATM    7  C6  UNL     1      66.478  34.713  41.076  1.00  0.00     0.033 A
ENDROOT
BRANCH   7   8
HETATM    8  C7  UNL     1      67.582  33.695  41.041  1.00  0.00     0.052 C
BRANCH   8   9
HETATM    9  C8  UNL     1      66.993  32.405  40.426  1.00  0.00     0.025 C
BRANCH   9  10
HETATM   10  C9  UNL     1      67.225  31.260  41.347  1.00  0.00     0.123 C
BRANCH  10  11
HETATM   11  N5  UNL     1      66.011  30.841  42.024  1.00  0.00    -0.357 N
HETATM   12  C10 UNL     1      65.712  31.285  43.318  1.00  0.00     0.258 C
HETATM   13  O2  UNL     1      66.583  32.059  43.856  1.00  0.00    -0.267 OA
ATOM     14  H5  UNL     1      65.363  30.212  41.548  1.00  0.00     0.162 HD
BRANCH  12  15
HETATM   15  C11 UNL     1      64.560  30.989  44.138  1.00  0.00     0.115 A
HETATM   16  C12 UNL     1      63.284  31.339  43.644  1.00  0.00     0.176 A
HETATM   17  F1  UNL     1      63.195  31.951  42.441  1.00  0.00    -0.202 F
HETATM   18  C13 UNL     1      62.134  31.085  44.347  1.00  0.00     0.197 A
HETATM   19  F2  UNL     1      60.919  31.437  43.828  1.00  0.00    -0.199 F
HETATM   20  C14 UNL     1      62.188  30.474  45.568  1.00  0.00     0.199 A
HETATM   21  F3  UNL     1      61.061  30.213  46.294  1.00  0.00    -0.199 F
HETATM   22  C15 UNL     1      63.413  30.129  46.061  1.00  0.00     0.197 A
HETATM   23  F4  UNL     1      63.532  29.513  47.276  1.00  0.00    -0.199 F
HETATM   24  C16 UNL     1      64.610  30.374  45.369  1.00  0.00     0.176 A
HETATM   25  F5  UNL     1      65.780  29.993  45.918  1.00  0.00    -0.202 F
ENDBRANCH  12  15
ENDBRANCH  10  11
ENDBRANCH   9  10
ENDBRANCH   8   9
ENDBRANCH   7   8
BRANCH   1  26
HETATM   26  C4  UNL     1      67.256  35.991  39.091  1.00  0.00     0.230 C
HETATM   27  O1  UNL     1      67.370  35.090  38.203  1.00  0.00    -0.283 OA
BRANCH  26  28
HETATM   28  C3  UNL     1      68.084  37.184  38.990  1.00  0.00     0.126 A
HETATM   29  N2  UNL     1      69.380  37.295  39.421  1.00  0.00    -0.292 N
HETATM   30  N1  UNL     1      69.865  38.485  39.171  1.00  0.00    -0.279 N
ATOM     31  H2  UNL     1      69.901  36.546  39.877  1.00  0.00     0.187 HD
HETATM   32  C18 UNL     1      68.923  39.215  38.569  1.00  0.00     0.144 A
HETATM   33  C17 UNL     1      67.784  38.408  38.444  1.00  0.00     0.106 A
HETATM   34 CL2  UNL     1      69.021  40.872  38.004  1.00  0.00    -0.061 Cl
HETATM   35 CL1  UNL     1      66.282  38.911  37.706  1.00  0.00    -0.078 Cl
BRANCH  30  36
HETATM   36  C2  UNL     1      71.228  38.947  39.496  1.00  0.00     0.146 C
HETATM   37  C1  UNL     1      72.131  38.777  38.309  1.00  0.00     0.028 C
ENDBRANCH  30  36
ENDBRANCH  26  28
ENDBRANCH   1  26
TORSDOF 8
ENDMDL