MODEL 2
REMARK VINA RESULT: -9.870699328      0.070      1.825
REMARK  9 active torsions:
REMARK  status: ('A' for Active; 'I' for Inactive)
REMARK       I    between atoms: C1_2  and  N1_3
REMARK    1  A    between atoms: C1_2  and  O2_8
REMARK    2  A    between atoms: N1_3  and  C2_5
REMARK    3  A    between atoms: C2_5  and  C3_6
REMARK    4  A    between atoms: O2_8  and  C4_9
REMARK    5  A    between atoms: C9_14  and  O3_15
REMARK    6  A    between atoms: O3_15  and  C10_16
REMARK    7  A    between atoms: C10_16  and  C11_17
REMARK    8  A    between atoms: N3_21  and  C13_22
REMARK    9  A    between atoms: C19_33  and  N4_34
ROOT
HETATM    1  C11 UNL     1      68.322  37.212  39.244  1.00  0.00     0.085 A
HETATM    2  N2  UNL     1      68.870  37.748  40.337  1.00  0.00    -0.350 N
ATOM      3  H2  UNL     1      68.678  37.458  41.296  1.00  0.00     0.166 HD
HETATM    4  C12 UNL     1      69.710  38.728  39.975  1.00  0.00     0.191 A
HETATM    5  N3  UNL     1      69.712  38.834  38.635  1.00  0.00    -0.281 N
HETATM    6  C19 UNL     1      68.871  37.918  38.164  1.00  0.00     0.206 A
ENDROOT
BRANCH   1   7
HETATM    7  C10 UNL     1      67.355  36.126  39.132  1.00  0.00     0.229 C
BRANCH   7   8
HETATM    8  O3  UNL     1      66.588  35.865  40.233  1.00  0.00    -0.377 OA
BRANCH   8   9
HETATM    9  C9  UNL     1      67.069  34.947  41.128  1.00  0.00     0.151 C
HETATM   10  C4  UNL     1      65.927  34.331  41.941  1.00  0.00     0.162 C
HETATM   11  C5  UNL     1      66.317  33.007  42.529  1.00  0.00     0.035 C
HETATM   12  C6  UNL     1      66.496  31.979  41.455  1.00  0.00     0.003 C
HETATM   13  C7  UNL     1      67.059  32.652  40.242  1.00  0.00     0.003 C
HETATM   14  C8  UNL     1      67.923  33.867  40.575  1.00  0.00     0.034 C
BRANCH  10  15
HETATM   15  O2  UNL     1      64.756  34.153  41.175  1.00  0.00    -0.296 OA
BRANCH  15  16
HETATM   16  C1  UNL     1      63.546  33.852  41.821  1.00  0.00     0.361 C
HETATM   17  O1  UNL     1      63.172  34.666  42.703  1.00  0.00    -0.239 OA
HETATM   18  N1  UNL     1      62.800  32.695  41.487  1.00  0.00    -0.336 N
ATOM     19  H1  UNL     1      63.157  32.073  40.761  1.00  0.00     0.164 HD
BRANCH  18  20
HETATM   20  C2  UNL     1      61.561  32.367  42.131  1.00  0.00     0.140 C
BRANCH  20  21
HETATM   21  C3  UNL     1      61.735  31.581  43.407  1.00  0.00     0.134 C
HETATM   22 CL1  UNL     1      63.231  30.610  43.367  1.00  0.00    -0.129 Cl
ENDBRANCH  20  21
ENDBRANCH  18  20
ENDBRANCH  15  16
ENDBRANCH  10  15
ENDBRANCH   8   9
ENDBRANCH   7   8
ENDBRANCH   1   7
BRANCH   6  23
HETATM   23  N4  UNL     1      68.563  37.675  36.778  1.00  0.00    -0.095 N
HETATM   24  O4  UNL     1      69.431  37.270  35.987  1.00  0.00    -0.530 OA
HETATM   25  O5  UNL     1      67.279  37.903  36.354  1.00  0.00    -0.530 OA
ENDBRANCH   6  23
BRANCH   5  26
HETATM   26  C13 UNL     1      70.494  39.774  37.907  1.00  0.00     0.126 A
HETATM   27  C14 UNL     1      71.784  39.485  37.484  1.00  0.00     0.188 A
HETATM   28  F1  UNL     1      72.316  38.272  37.771  1.00  0.00    -0.200 F
HETATM   29  C15 UNL     1      72.471  40.457  36.783  1.00  0.00     0.199 A
HETATM   30  F2  UNL     1      73.727  40.171  36.372  1.00  0.00    -0.199 F
HETATM   31  C16 UNL     1      71.939  41.694  36.485  1.00  0.00     0.199 A
HETATM   32  F3  UNL     1      72.639  42.642  35.790  1.00  0.00    -0.199 F
HETATM   33  C17 UNL     1      70.651  41.983  36.908  1.00  0.00     0.199 A
HETATM   34  F4  UNL     1      70.089  43.203  36.631  1.00  0.00    -0.199 F
HETATM   35  C18 UNL     1      69.947  41.026  37.610  1.00  0.00     0.188 A
HETATM   36  F5  UNL     1      68.676  41.322  38.022  1.00  0.00    -0.200 F
ENDBRANCH   5  26
TORSDOF 9
ENDMDL