MODEL 2
REMARK VINA RESULT: -9.953558399      1.067      1.658
REMARK  10 active torsions:
REMARK  status: ('A' for Active; 'I' for Inactive)
REMARK    1  A    between atoms: N1_2  and  O1_3
REMARK    2  A    between atoms: N1_2  and  C18_31
REMARK    3  A    between atoms: O1_3  and  C2_4
REMARK    4  A    between atoms: C2_4  and  C3_5
REMARK    5  A    between atoms: C6_8  and  C7_9
REMARK    6  A    between atoms: C8_13  and  C9_14
REMARK    7  A    between atoms: C8_13  and  C15_24
REMARK    8  A    between atoms: C9_14  and  O3_15
REMARK    9  A    between atoms: O3_15  and  C10_16
REMARK   10  A    between atoms: C10_16  and  C11_17
ROOT
HETATM    1  C7  UNL     1      66.351  35.119  40.792  1.00  0.00     0.042 A
HETATM    2  N2  UNL     1      65.168  35.375  41.192  1.00  0.00    -0.271 N
ATOM      3  H2  UNL     1      64.690  36.256  41.003  1.00  0.00     0.193 HD
HETATM    4  O2  UNL     1      64.614  34.365  41.888  1.00  0.00    -0.257 OA
HETATM    5  C8  UNL     1      65.535  33.307  42.003  1.00  0.00     0.211 A
HETATM    6  C16 UNL     1      66.727  33.758  41.241  1.00  0.00     0.109 A
ENDROOT
BRANCH   5   7
HETATM    7  C9  UNL     1      64.967  31.973  41.721  1.00  0.00     0.218 C
BRANCH   7   8
HETATM    8  O3  UNL     1      63.727  31.805  41.295  1.00  0.00    -0.383 OA
BRANCH   8   9
HETATM    9  C10 UNL     1      62.673  31.658  42.107  1.00  0.00     0.214 C
BRANCH   9  10
HETATM   10  C11 UNL     1      63.025  30.846  43.343  1.00  0.00     0.009 A
HETATM   11  C12 UNL     1      64.045  29.954  43.501  1.00  0.00     0.042 A
HETATM   12  C13 UNL     1      64.155  29.355  44.695  1.00  0.00     0.063 A
HETATM   13 CL1  UNL     1      65.431  28.163  45.070  1.00  0.00    -0.082 Cl
HETATM   14  C14 UNL     1      63.239  29.687  45.656  1.00  0.00     0.096 A
HETATM   15 CL2  UNL     1      63.114  29.081  47.314  1.00  0.00    -0.074 Cl
HETATM   16  S1  UNL     1      62.249  30.832  44.848  1.00  0.00    -0.079 SA
ENDBRANCH   9  10
ENDBRANCH   8   9
ENDBRANCH   7   8
ENDBRANCH   5   7
BRANCH   5  17
HETATM   17  C15 UNL     1      65.956  33.367  43.510  1.00  0.00     0.423 C
HETATM   18  F1  UNL     1      66.915  34.304  43.717  1.00  0.00    -0.168 F
HETATM   19  F2  UNL     1      66.414  32.121  43.884  1.00  0.00    -0.168 F
HETATM   20  F3  UNL     1      64.808  33.635  44.201  1.00  0.00    -0.168 F
ENDBRANCH   5  17
BRANCH   1  21
HETATM   21  C6  UNL     1      67.206  36.037  40.006  1.00  0.00     0.168 C
HETATM   22  C5  UNL     1      68.293  35.172  39.358  1.00  0.00     0.039 C
HETATM   23  C4  UNL     1      69.219  36.132  38.643  1.00  0.00     0.012 C
HETATM   24  C3  UNL     1      68.385  36.874  37.610  1.00  0.00     0.036 C
HETATM   25  C17 UNL     1      67.156  37.506  38.228  1.00  0.00     0.175 C
HETATM   26  O4  UNL     1      66.451  36.652  39.041  1.00  0.00    -0.380 OA
BRANCH  24  27
HETATM   27  C2  UNL     1      69.195  37.990  36.990  1.00  0.00     0.207 C
BRANCH  27  28
HETATM   28  O1  UNL     1      69.412  38.945  37.950  1.00  0.00    -0.278 OA
BRANCH  28  29
HETATM   29  N1  UNL     1      70.676  39.346  38.086  1.00  0.00    -0.239 N
HETATM   30  C1  UNL     1      71.521  39.089  36.961  1.00  0.00     0.184 C
BRANCH  29  31
HETATM   31  C18 UNL     1      71.271  39.067  39.359  1.00  0.00     0.479 C
HETATM   32  F4  UNL     1      70.360  38.759  40.343  1.00  0.00    -0.189 F
HETATM   33  F5  UNL     1      72.112  37.969  39.241  1.00  0.00    -0.189 F
ENDBRANCH  29  31
ENDBRANCH  28  29
ENDBRANCH  27  28
ENDBRANCH  24  27
ENDBRANCH   1  21
TORSDOF 10
ENDMDL