MODEL 4
REMARK VINA RESULT: -8.426832582      1.739      2.042
REMARK  10 active torsions:
REMARK  status: ('A' for Active; 'I' for Inactive)
REMARK    1  A    between atoms: C2_2  and  N1_3
REMARK    2  A    between atoms: N1_3  and  C3_4
REMARK    3  A    between atoms: N1_3  and  C17_32
REMARK    4  A    between atoms: C3_4  and  C4_5
REMARK    5  A    between atoms: C4_5  and  O1_6
REMARK    6  A    between atoms: O1_6  and  C5_7
REMARK    7  A    between atoms: C5_7  and  C6_8
REMARK    8  A    between atoms: N2_12  and  C9_13
REMARK    9  A    between atoms: C10_16  and  N4_17
REMARK   10  A    between atoms: C14_25  and  C15_26
ROOT
HETATM    1  C9  UNL     1      65.975  35.963  40.634  1.00  0.00     0.697 A
HETATM    2  N3  UNL     1      64.924  36.608  41.124  1.00  0.00    -0.022 N
ATOM      3  H3  UNL     1      64.641  37.508  40.735  1.00  0.00     0.203 HD
HETATM    4  C10 UNL     1      64.239  36.058  42.140  1.00  0.00     0.698 A
HETATM    5  N5  UNL     1      64.607  34.867  42.661  1.00  0.00    -0.142 N
HETATM    6  C11 UNL     1      63.897  34.347  43.679  1.00  0.00     0.118 A
HETATM    7  C12 UNL     1      64.259  33.131  44.225  1.00  0.00     0.043 A
HETATM    8  C13 UNL     1      65.349  32.472  43.710  1.00  0.00     0.048 A
HETATM    9 CL1  UNL     1      65.855  30.919  44.366  1.00  0.00    -0.084 Cl
HETATM   10  C14 UNL     1      66.062  33.017  42.672  1.00  0.00     0.042 A
HETATM   11  C16 UNL     1      65.678  34.219  42.156  1.00  0.00     0.154 A
HETATM   12  N6  UNL     1      66.345  34.776  41.152  1.00  0.00    -0.174 N
ATOM     13  H6  UNL     1      67.156  34.294  40.764  1.00  0.00     0.186 HD
ENDROOT
BRANCH   1  14
HETATM   14  N2  UNL     1      66.787  36.460  39.548  1.00  0.00    -0.201 N
HETATM   15  C6  UNL     1      67.476  37.726  39.665  1.00  0.00     0.188 C
HETATM   16  S1  UNL     1      67.517  38.297  37.947  1.00  0.00    -0.139 SA
HETATM   17  C7  UNL     1      66.691  36.839  37.185  1.00  0.00     0.096 C
HETATM   18  C8  UNL     1      67.013  35.817  38.281  1.00  0.00     0.153 C
BRANCH  15  19
HETATM   19  C5  UNL     1      68.879  37.594  40.230  1.00  0.00     0.204 C
BRANCH  19  20
HETATM   20  O1  UNL     1      69.550  38.734  39.905  1.00  0.00    -0.387 OA
BRANCH  20  21
HETATM   21  C4  UNL     1      70.903  38.568  39.646  1.00  0.00     0.198 C
BRANCH  21  22
HETATM   22  C3  UNL     1      71.488  39.698  38.854  1.00  0.00     0.310 C
BRANCH  22  23
HETATM   23  N1  UNL     1      70.793  39.938  37.631  1.00  0.00     0.198 N
BRANCH  23  24
HETATM   24  C2  UNL     1      71.218  39.026  36.579  1.00  0.00     0.280 C
HETATM   25  C1  UNL     1      72.692  38.833  36.482  1.00  0.00     0.037 C
ENDBRANCH  23  24
BRANCH  23  26
HETATM   26  C17 UNL     1      70.763  41.276  37.153  1.00  0.00     0.603 C
HETATM   27  F1  UNL     1      69.624  41.951  37.590  1.00  0.00    -0.144 F
HETATM   28  F2  UNL     1      71.038  41.446  35.834  1.00  0.00    -0.144 F
HETATM   29  F3  UNL     1      71.852  41.917  37.819  1.00  0.00    -0.144 F
ENDBRANCH  23  26
ENDBRANCH  22  23
ENDBRANCH  21  22
ENDBRANCH  20  21
ENDBRANCH  19  20
ENDBRANCH  15  19
ENDBRANCH   1  14
BRANCH   4  30
HETATM   30  N4  UNL     1      63.202  36.641  42.661  1.00  0.00    -0.234 N
ATOM     31  H42 UNL     1      63.337  37.135  43.543  1.00  0.00     0.174 HD
ATOM     32  H41 UNL     1      62.287  36.611  42.212  1.00  0.00     0.174 HD
ENDBRANCH   4  30
BRANCH  10  33
HETATM   33  C15 UNL     1      67.262  32.316  42.087  1.00  0.00     0.216 C
HETATM   34 CL2  UNL     1      68.735  33.236  42.504  1.00  0.00    -0.103 Cl
HETATM   35 CL3  UNL     1      67.061  32.318  40.322  1.00  0.00    -0.103 Cl
ENDBRANCH  10  33
TORSDOF 10
ENDMDL