MODEL 2
REMARK VINA RESULT: -10.105386220      1.481      2.036
REMARK  13 active torsions:
REMARK  status: ('A' for Active; 'I' for Inactive)
REMARK    1  A    between atoms: N1_1  and  C1_5
REMARK    2  A    between atoms: C3_7  and  C4_8
REMARK    3  A    between atoms: C4_8  and  N2_9
REMARK    4  A    between atoms: C4_8  and  C5_12
REMARK    5  A    between atoms: N3_18  and  C8_19
REMARK    6  A    between atoms: C8_19  and  C9_20
REMARK    7  A    between atoms: C9_20  and  O3_21
REMARK    8  A    between atoms: O3_21  and  C10_22
REMARK    9  A    between atoms: C10_22  and  S1_24
REMARK   10  A    between atoms: S1_24  and  C11_25
REMARK   11  A    between atoms: C11_25  and  C12_26
REMARK   12  A    between atoms: C12_26  and  C13_27
REMARK   13  A    between atoms: C13_27  and  C19_33
ROOT
HETATM    1  C1  UNL     1      68.075  37.247  37.530  1.00  0.00     0.283 C
HETATM    2  C2  UNL     1      69.255  38.105  37.240  1.00  0.00     0.062 C
HETATM    3  C3  UNL     1      70.109  38.458  38.410  1.00  0.00     0.032 C
HETATM    4  C6  UNL     1      69.535  38.144  39.743  1.00  0.00     0.051 C
HETATM    5  C7  UNL     1      68.068  37.973  39.842  1.00  0.00     0.060 C
HETATM    6  N3  UNL     1      67.376  37.498  38.729  1.00  0.00    -0.364 N
ENDROOT
BRANCH   6   7
HETATM    7  C8  UNL     1      66.384  36.514  38.961  1.00  0.00     0.151 C
BRANCH   7   8
HETATM    8  C9  UNL     1      66.368  35.837  40.278  1.00  0.00     0.199 C
BRANCH   8   9
HETATM    9  O3  UNL     1      65.059  35.882  40.808  1.00  0.00    -0.311 OA
BRANCH   9  10
HETATM   10  C10 UNL     1      64.564  35.049  41.780  1.00  0.00     0.322 C
HETATM   11  O4  UNL     1      65.289  34.628  42.710  1.00  0.00    -0.252 OA
BRANCH  10  12
HETATM   12  S1  UNL     1      62.864  34.523  41.771  1.00  0.00    -0.061 SA
BRANCH  12  13
HETATM   13  C11 UNL     1      62.504  33.390  43.109  1.00  0.00     0.089 C
BRANCH  13  14
HETATM   14  C12 UNL     1      62.212  31.986  42.610  1.00  0.00     0.054 C
BRANCH  14  15
HETATM   15  C13 UNL     1      63.453  31.113  42.688  1.00  0.00     0.029 C
HETATM   16  C14 UNL     1      63.728  30.482  43.824  1.00  0.00    -0.069 C
HETATM   17  C15 UNL     1      64.880  29.607  44.081  1.00  0.00     0.034 C
HETATM   18  C18 UNL     1      62.869  30.538  45.059  1.00  0.00     0.034 C
HETATM   19  C16 UNL     1      64.867  29.429  45.606  1.00  0.00     0.005 C
HETATM   20  C17 UNL     1      63.395  29.390  45.900  1.00  0.00     0.005 C
BRANCH  15  21
HETATM   21  C19 UNL     1      64.316  30.992  41.509  1.00  0.00     0.414 C
HETATM   22  F4  UNL     1      65.493  31.726  41.682  1.00  0.00    -0.166 F
HETATM   23  F5  UNL     1      63.645  31.503  40.378  1.00  0.00    -0.166 F
HETATM   24  F6  UNL     1      64.659  29.701  41.237  1.00  0.00    -0.166 F
ENDBRANCH  15  21
ENDBRANCH  14  15
ENDBRANCH  13  14
ENDBRANCH  12  13
ENDBRANCH  10  12
ENDBRANCH   9  10
ENDBRANCH   8   9
ENDBRANCH   7   8
ENDBRANCH   6   7
BRANCH   1  25
HETATM   25  N1  UNL     1      68.471  35.845  37.564  1.00  0.00    -0.058 N
ATOM     26  H13 UNL     1      69.138  35.618  36.826  1.00  0.00     0.276 HD
ATOM     27  H12 UNL     1      69.062  35.635  38.368  1.00  0.00     0.276 HD
ATOM     28  H11 UNL     1      67.646  35.246  37.531  1.00  0.00     0.276 HD
ENDBRANCH   1  25
BRANCH   3  29
HETATM   29  C4  UNL     1      70.698  39.839  38.383  1.00  0.00     0.267 C
BRANCH  29  30
HETATM   30  N2  UNL     1      70.371  40.646  37.277  1.00  0.00    -0.141 N
HETATM   31  O1  UNL     1      70.896  40.668  36.148  1.00  0.00    -0.536 OA
HETATM   32  O2  UNL     1      69.326  41.539  37.435  1.00  0.00    -0.536 OA
ENDBRANCH  29  30
BRANCH  29  33
HETATM   33  C5  UNL     1      72.214  39.799  38.543  1.00  0.00     0.413 C
HETATM   34  F1  UNL     1      72.734  38.794  37.723  1.00  0.00    -0.169 F
HETATM   35  F2  UNL     1      72.816  41.004  38.339  1.00  0.00    -0.169 F
HETATM   36  F3  UNL     1      72.460  39.356  39.839  1.00  0.00    -0.169 F
ENDBRANCH  29  33
ENDBRANCH   3  29
TORSDOF 13
ENDMDL