MODEL 4
REMARK VINA RESULT: -7.948229823      2.267      2.849
REMARK  10 active torsions:
REMARK  status: ('A' for Active; 'I' for Inactive)
REMARK    1  A    between atoms: N1_2  and  C2_3
REMARK    2  A    between atoms: N1_2  and  C9_16
REMARK    3  A    between atoms: C2_3  and  C3_4
REMARK    4  A    between atoms: C3_4  and  N2_5
REMARK    5  A    between atoms: N2_5  and  C4_6
REMARK    6  A    between atoms: N2_5  and  C7_11
REMARK    7  A    between atoms: C4_6  and  C5_7
REMARK    8  A    between atoms: C5_7  and  S1_8
REMARK    9  A    between atoms: C7_11  and  C8_12
REMARK   10  A    between atoms: C16_26  and  O2_27
ROOT
HETATM    1  S1  UNL     1      66.613  39.524  38.306  1.00  0.00    -0.049 SA
HETATM    2  C6  UNL     1      66.607  38.154  37.160  1.00  0.00     0.133 C
HETATM    3  N3  UNL     1      66.616  37.273  36.407  1.00  0.00    -0.184 NA
ENDROOT
BRANCH   1   4
HETATM    4  C5  UNL     1      68.347  39.835  38.697  1.00  0.00     0.110 C
BRANCH   4   5
HETATM    5  C4  UNL     1      68.898  38.748  39.588  1.00  0.00     0.138 C
BRANCH   5   6
HETATM    6  N2  UNL     1      69.692  37.868  38.782  1.00  0.00    -0.364 N
BRANCH   6   7
HETATM    7  C3  UNL     1      69.378  36.504  38.877  1.00  0.00     0.083 C
BRANCH   7   8
HETATM    8  C2  UNL     1      68.486  36.186  40.062  1.00  0.00     0.167 C
BRANCH   8   9
HETATM    9  N1  UNL     1      67.621  35.084  39.805  1.00  0.00    -0.376 N
HETATM   10  C1  UNL     1      67.743  34.444  38.481  1.00  0.00     0.150 C
BRANCH   9  11
HETATM   11  C9  UNL     1      66.568  34.600  40.626  1.00  0.00     0.107 A
HETATM   12  C10 UNL     1      65.392  35.131  40.827  1.00  0.00     0.115 A
HETATM   13 CL1  UNL     1      64.966  36.628  40.032  1.00  0.00    -0.077 Cl
HETATM   14  C11 UNL     1      64.348  34.561  41.698  1.00  0.00     0.208 A
HETATM   15  O1  UNL     1      63.234  35.128  41.846  1.00  0.00    -0.286 OA
HETATM   16  C12 UNL     1      64.617  33.317  42.397  1.00  0.00     0.055 A
HETATM   17  C13 UNL     1      65.839  32.712  42.224  1.00  0.00     0.034 A
HETATM   18  C17 UNL     1      63.639  32.776  43.207  1.00  0.00     0.084 A
HETATM   19  C14 UNL     1      66.063  31.538  42.889  1.00  0.00     0.043 A
HETATM   20  C18 UNL     1      66.819  33.317  41.361  1.00  0.00     0.211 A
HETATM   21  C15 UNL     1      65.094  30.970  43.713  1.00  0.00     0.069 A
HETATM   22 CL2  UNL     1      65.372  29.468  44.570  1.00  0.00    -0.081 Cl
HETATM   23  C16 UNL     1      63.888  31.596  43.864  1.00  0.00     0.110 A
HETATM   24  O3  UNL     1      67.957  32.786  41.181  1.00  0.00    -0.285 OA
HETATM   25 CL3  UNL     1      62.104  33.566  43.405  1.00  0.00    -0.080 Cl
BRANCH  23  26
HETATM   26  O2  UNL     1      62.914  31.046  44.679  1.00  0.00    -0.357 OA
ATOM     27  H2  UNL     1      62.034  31.405  44.682  1.00  0.00     0.217 HD
ENDBRANCH  23  26
ENDBRANCH   9  11
ENDBRANCH   8   9
ENDBRANCH   7   8
ENDBRANCH   6   7
BRANCH   6  28
HETATM   28  C7  UNL     1      70.518  38.407  37.813  1.00  0.00     0.179 C
BRANCH  28  29
HETATM   29  C8  UNL     1      71.891  38.762  38.288  1.00  0.00     0.422 C
HETATM   30  F1  UNL     1      71.969  40.063  38.699  1.00  0.00    -0.166 F
HETATM   31  F2  UNL     1      72.811  38.604  37.249  1.00  0.00    -0.166 F
HETATM   32  F3  UNL     1      72.273  37.943  39.362  1.00  0.00    -0.166 F
ENDBRANCH  28  29
ENDBRANCH   6  28
ENDBRANCH   5   6
ENDBRANCH   4   5
ENDBRANCH   1   4
TORSDOF 10
ENDMDL