MODEL 2
REMARK VINA RESULT: -10.566237492      0.593      1.095
REMARK  11 active torsions:
REMARK  status: ('A' for Active; 'I' for Inactive)
REMARK    1  A    between atoms: O1_1  and  C1_3
REMARK    2  A    between atoms: C1_3  and  C2_4
REMARK    3  A    between atoms: C1_3  and  N1_16
REMARK    4  A    between atoms: C2_4  and  O2_5
REMARK    5  A    between atoms: O2_5  and  C3_6
REMARK    6  A    between atoms: C7_10  and  O3_11
REMARK    7  A    between atoms: O3_11  and  C8_12
REMARK    8  A    between atoms: N2_19  and  C12_20
REMARK    9  A    between atoms: C13_21  and  N3_22
REMARK   10  A    between atoms: N3_22  and  C14_24
REMARK   11  A    between atoms: C14_24  and  C15_26
ROOT
HETATM    1  N1  UNL     1      67.661  34.116  40.064  1.00  0.00    -0.361 N
HETATM    2  C10 UNL     1      67.512  35.299  40.928  1.00  0.00     0.144 C
HETATM    3  C11 UNL     1      66.794  36.303  40.067  1.00  0.00     0.143 C
HETATM    4  N2  UNL     1      67.707  36.690  39.015  1.00  0.00    -0.372 N
HETATM    5  C18 UNL     1      68.359  35.647  38.268  1.00  0.00     0.143 C
HETATM    6  C19 UNL     1      68.030  34.243  38.697  1.00  0.00     0.144 C
ENDROOT
BRANCH   4   7
HETATM    7  C12 UNL     1      67.948  38.068  38.728  1.00  0.00     0.124 A
HETATM    8  C13 UNL     1      69.067  38.826  39.038  1.00  0.00     0.155 A
HETATM    9  N4  UNL     1      68.783  40.059  38.545  1.00  0.00    -0.241 N
HETATM   10  O4  UNL     1      67.633  40.105  37.986  1.00  0.00    -0.221 OA
ATOM     11  H4  UNL     1      69.415  40.857  38.613  1.00  0.00     0.196 HD
HETATM   12  C17 UNL     1      67.075  38.899  38.072  1.00  0.00     0.198 A
HETATM   13 CL2  UNL     1      65.500  38.466  37.450  1.00  0.00    -0.052 Cl
BRANCH   8  14
HETATM   14  N3  UNL     1      70.215  38.374  39.706  1.00  0.00    -0.337 N
ATOM     15  H3  UNL     1      70.067  37.734  40.487  1.00  0.00     0.164 HD
BRANCH  14  16
HETATM   16  C14 UNL     1      71.571  38.716  39.409  1.00  0.00     0.338 C
HETATM   17  F3  UNL     1      72.353  37.573  39.628  1.00  0.00    -0.219 F
BRANCH  16  18
HETATM   18  C15 UNL     1      71.837  39.184  38.048  1.00  0.00     0.197 C
HETATM   19  F4  UNL     1      71.406  38.525  36.955  1.00  0.00    -0.202 F
HETATM   20  C16 UNL     1      72.541  40.321  37.889  1.00  0.00     0.225 C
HETATM   21  F5  UNL     1      72.998  41.026  38.954  1.00  0.00    -0.190 F
HETATM   22 CL1  UNL     1      72.911  40.961  36.297  1.00  0.00    -0.049 Cl
ENDBRANCH  16  18
ENDBRANCH  14  16
ENDBRANCH   8  14
ENDBRANCH   4   7
BRANCH   1  23
HETATM   23  C1  UNL     1      67.422  32.870  40.656  1.00  0.00     0.138 C
BRANCH  23  24
HETATM   24  O1  UNL     1      67.956  32.670  41.827  1.00  0.00    -0.348 OA
ATOM     25  H1  UNL     1      68.525  33.347  42.174  1.00  0.00     0.219 HD
ENDBRANCH  23  24
BRANCH  23  26
HETATM   26  C2  UNL     1      66.630  31.788  40.077  1.00  0.00     0.259 C
BRANCH  26  27
HETATM   27  O2  UNL     1      66.125  30.850  40.949  1.00  0.00    -0.343 OA
BRANCH  27  28
HETATM   28  C3  UNL     1      64.921  30.967  41.602  1.00  0.00     0.071 A
HETATM   29  C4  UNL     1      63.859  31.641  41.039  1.00  0.00     0.037 A
HETATM   30  C5  UNL     1      62.646  31.769  41.677  1.00  0.00     0.005 A
HETATM   31  C6  UNL     1      62.470  31.214  42.912  1.00  0.00     0.037 A
HETATM   32  C7  UNL     1      63.508  30.523  43.526  1.00  0.00     0.077 A
HETATM   33  C9  UNL     1      64.707  30.410  42.868  1.00  0.00     0.073 A
BRANCH  32  34
HETATM   34  O3  UNL     1      63.258  29.994  44.763  1.00  0.00    -0.290 OA
BRANCH  34  35
HETATM   35  C8  UNL     1      64.168  29.453  45.666  1.00  0.00     0.505 C
HETATM   36  F1  UNL     1      63.661  29.436  46.960  1.00  0.00    -0.184 F
HETATM   37  F2  UNL     1      64.367  28.111  45.313  1.00  0.00    -0.184 F
ENDBRANCH  34  35
ENDBRANCH  32  34
ENDBRANCH  27  28
ENDBRANCH  26  27
ENDBRANCH  23  26
ENDBRANCH   1  23
TORSDOF 11
ENDMDL