MODEL 2
REMARK VINA RESULT: -9.415347637      5.011      9.504
REMARK  11 active torsions:
REMARK  status: ('A' for Active; 'I' for Inactive)
REMARK    1  A    between atoms: C2_2  and  O1_3
REMARK    2  A    between atoms: O1_3  and  C3_4
REMARK    3  A    between atoms: C3_4  and  C4_6
REMARK    4  A    between atoms: C4_6  and  C5_7
REMARK    5  A    between atoms: N1_12  and  C8_13
REMARK    6  A    between atoms: C8_13  and  C9_14
REMARK    7  A    between atoms: C8_13  and  C15_28
REMARK    8  A    between atoms: C9_14  and  S1_15
REMARK    9  A    between atoms: S1_15  and  C10_16
REMARK   10  A    between atoms: C10_16  and  C11_17
REMARK   11  A    between atoms: C12_19  and  C13_20
ROOT
HETATM    1  C8  UNL     1      66.423  33.388  41.544  1.00  0.00     0.200 C
ENDROOT
BRANCH   1   2
HETATM    2  N1  UNL     1      65.421  32.645  42.149  1.00  0.00    -0.380 N
HETATM    3  C7  UNL     1      64.593  31.813  41.341  1.00  0.00     0.124 C
HETATM    4  C6  UNL     1      63.574  31.113  42.131  1.00  0.00     0.051 C
HETATM    5  C4  UNL     1      62.945  31.905  43.236  1.00  0.00     0.141 C
HETATM    6  C17 UNL     1      63.889  32.865  43.926  1.00  0.00     0.075 C
HETATM    7  C16 UNL     1      65.315  32.546  43.541  1.00  0.00     0.060 C
BRANCH   5   8
HETATM    8  C3  UNL     1      62.548  30.840  44.253  1.00  0.00     0.278 C
HETATM    9  O2  UNL     1      61.623  30.939  45.006  1.00  0.00    -0.264 OA
BRANCH   8  10
HETATM   10  O1  UNL     1      63.352  29.699  44.322  1.00  0.00    -0.321 OA
BRANCH  10  11
HETATM   11  C2  UNL     1      64.066  29.211  45.370  1.00  0.00     0.174 C
HETATM   12  C1  UNL     1      65.412  28.593  45.087  1.00  0.00     0.034 C
ENDBRANCH  10  11
ENDBRANCH   8  10
ENDBRANCH   5   8
BRANCH   5  13
HETATM   13  C5  UNL     1      61.747  32.600  42.733  1.00  0.00     0.192 C
HETATM   14  O3  UNL     1      61.650  33.852  42.763  1.00  0.00    -0.647 OA
HETATM   15  O4  UNL     1      60.670  31.876  42.196  1.00  0.00    -0.647 OA
ENDBRANCH   5  13
ENDBRANCH   1   2
BRANCH   1  16
HETATM   16  C9  UNL     1      66.140  34.858  41.236  1.00  0.00     0.108 C
BRANCH  16  17
HETATM   17  S1  UNL     1      66.826  35.237  39.624  1.00  0.00    -0.162 SA
BRANCH  17  18
HETATM   18  C10 UNL     1      66.582  36.850  38.985  1.00  0.00     0.123 C
BRANCH  18  19
HETATM   19  C11 UNL     1      67.907  37.562  38.811  1.00  0.00     0.032 A
HETATM   20  S2  UNL     1      69.488  36.848  39.038  1.00  0.00    -0.068 SA
HETATM   21  C12 UNL     1      70.428  38.251  38.853  1.00  0.00     0.160 A
HETATM   22  N2  UNL     1      69.511  39.172  38.628  1.00  0.00    -0.336 N
HETATM   23  C14 UNL     1      68.254  38.842  38.609  1.00  0.00     0.118 A
ATOM     24  H2  UNL     1      69.788  40.141  38.469  1.00  0.00     0.167 HD
HETATM   25 CL1  UNL     1      66.995  40.117  38.373  1.00  0.00    -0.063 Cl
BRANCH  21  26
HETATM   26  C13 UNL     1      71.903  38.524  38.978  1.00  0.00     0.439 C
HETATM   27  F1  UNL     1      72.482  37.472  39.622  1.00  0.00    -0.164 F
HETATM   28  F2  UNL     1      72.112  39.701  39.619  1.00  0.00    -0.164 F
HETATM   29  F3  UNL     1      72.328  38.571  37.655  1.00  0.00    -0.164 F
ENDBRANCH  21  26
ENDBRANCH  18  19
ENDBRANCH  17  18
ENDBRANCH  16  17
ENDBRANCH   1  16
BRANCH   1  30
HETATM   30  C15 UNL     1      67.809  33.317  42.160  1.00  0.00     0.408 C
HETATM   31  F4  UNL     1      68.190  32.017  42.389  1.00  0.00    -0.169 F
HETATM   32  F5  UNL     1      68.724  33.755  41.139  1.00  0.00    -0.169 F
HETATM   33  F6  UNL     1      67.958  34.195  43.185  1.00  0.00    -0.169 F
ENDBRANCH   1  30
TORSDOF 11
ENDMDL