MODEL 5
REMARK VINA RESULT: -9.569270347      2.288      3.370
REMARK  13 active torsions:
REMARK  status: ('A' for Active; 'I' for Inactive)
REMARK    1  A    between atoms: C2_2  and  C5_5
REMARK    2  A    between atoms: C5_5  and  O2_7
REMARK    3  A    between atoms: O2_7  and  C6_8
REMARK    4  A    between atoms: C6_8  and  C7_9
REMARK    5  A    between atoms: C7_9  and  O3_10
REMARK    6  A    between atoms: O3_10  and  C8_11
REMARK    7  A    between atoms: C8_11  and  C9_13
REMARK    8  A    between atoms: C14_21  and  C15_22
REMARK    9  A    between atoms: C15_22  and  O5_23
REMARK   10  A    between atoms: C15_22  and  C16_25
REMARK   11  A    between atoms: C16_25  and  C17_26
REMARK   12  A    between atoms: C17_26  and  N1_27
REMARK   13  A    between atoms: C20_32  and  C21_33
ROOT
HETATM    1  C9  UNL     1      66.145  34.194  41.189  1.00  0.00     0.202 C
HETATM    2  F1  UNL     1      65.567  33.328  40.241  1.00  0.00    -0.231 F
HETATM    3  C10 UNL     1      65.111  35.286  41.401  1.00  0.00     0.133 C
HETATM    4  C11 UNL     1      64.061  35.019  42.403  1.00  0.00     0.247 C
HETATM    5  F2  UNL     1      63.530  36.280  42.744  1.00  0.00    -0.206 F
HETATM    6  F3  UNL     1      62.965  34.342  41.874  1.00  0.00    -0.206 F
HETATM    7  C12 UNL     1      64.516  34.365  43.663  1.00  0.00     0.080 C
HETATM    8  C13 UNL     1      65.950  33.952  43.702  1.00  0.00     0.017 C
HETATM    9  C14 UNL     1      66.544  33.490  42.411  1.00  0.00     0.065 C
ENDROOT
BRANCH   9  10
HETATM   10  C15 UNL     1      66.346  31.946  42.250  1.00  0.00     0.127 C
BRANCH  10  11
HETATM   11  O5  UNL     1      67.395  31.419  41.586  1.00  0.00    -0.395 OA
ATOM     12  H5  UNL     1      67.470  30.493  41.788  1.00  0.00     0.210 HD
ENDBRANCH  10  11
BRANCH  10  13
HETATM   13  C16 UNL     1      65.946  31.322  43.499  1.00  0.00     0.052 C
BRANCH  13  14
HETATM   14  C17 UNL     1      65.022  30.167  43.437  1.00  0.00     0.132 C
BRANCH  14  15
HETATM   15  N1  UNL     1      63.687  30.479  43.868  1.00  0.00    -0.338 N
HETATM   16  C18 UNL     1      62.900  31.229  43.027  1.00  0.00     0.109 A
HETATM   17  C19 UNL     1      61.730  31.473  43.665  1.00  0.00     0.107 A
HETATM   18  N2  UNL     1      61.796  30.885  44.859  1.00  0.00    -0.347 N
HETATM   19  C20 UNL     1      63.001  30.276  44.974  1.00  0.00     0.192 A
ATOM     20  H2  UNL     1      61.063  30.893  45.568  1.00  0.00     0.166 HD
BRANCH  19  21
HETATM   21  C21 UNL     1      63.320  29.482  46.190  1.00  0.00     0.449 C
HETATM   22  F4  UNL     1      64.002  30.257  47.136  1.00  0.00    -0.163 F
HETATM   23  F5  UNL     1      63.901  28.286  45.983  1.00  0.00    -0.163 F
HETATM   24  F6  UNL     1      62.064  29.244  46.803  1.00  0.00    -0.163 F
ENDBRANCH  19  21
ENDBRANCH  14  15
ENDBRANCH  13  14
ENDBRANCH  10  13
ENDBRANCH   9  10
BRANCH   1  25
HETATM   25  C8  UNL     1      67.235  34.889  40.416  1.00  0.00     0.299 C
HETATM   26  O4  UNL     1      68.434  34.612  40.557  1.00  0.00    -0.261 OA
BRANCH  25  27
HETATM   27  O3  UNL     1      66.900  35.851  39.539  1.00  0.00    -0.317 OA
BRANCH  27  28
HETATM   28  C7  UNL     1      67.179  36.319  38.321  1.00  0.00     0.205 C
BRANCH  28  29
HETATM   29  C6  UNL     1      66.455  37.517  37.770  1.00  0.00     0.205 C
BRANCH  29  30
HETATM   30  O2  UNL     1      67.350  38.567  37.559  1.00  0.00    -0.319 OA
BRANCH  30  31
HETATM   31  C5  UNL     1      68.279  39.104  38.394  1.00  0.00     0.266 C
HETATM   32  O1  UNL     1      67.919  39.635  39.469  1.00  0.00    -0.264 OA
BRANCH  31  33
HETATM   33  C2  UNL     1      69.719  39.065  38.043  1.00  0.00     0.037 C
HETATM   34  C1  UNL     1      70.588  38.423  39.069  1.00  0.00     0.025 C
HETATM   35  C3  UNL     1      69.885  38.274  36.746  1.00  0.00     0.025 C
HETATM   36  C4  UNL     1      70.250  40.470  37.769  1.00  0.00     0.025 C
ENDBRANCH  31  33
ENDBRANCH  30  31
ENDBRANCH  29  30
ENDBRANCH  28  29
ENDBRANCH  27  28
ENDBRANCH  25  27
ENDBRANCH   1  25
TORSDOF 13
ENDMDL