MODEL 1
REMARK VINA RESULT: -9.238254949      0.000      0.000
REMARK  8 active torsions:
REMARK  status: ('A' for Active; 'I' for Inactive)
REMARK    1  A    between atoms: O1_2  and  C2_3
REMARK    2  A    between atoms: C3_6  and  C4_7
REMARK    3  A    between atoms: C5_9  and  C6_10
REMARK    4  A    between atoms: C6_10  and  C7_12
REMARK    5  A    between atoms: C7_12  and  C8_13
REMARK    6  A    between atoms: C9_16  and  C10_17
REMARK    7  A    between atoms: C10_17  and  C11_18
REMARK    8  A    between atoms: C13_21  and  C14_22
ROOT
HETATM    1  C2  UNL     1      63.646  34.965  42.490  1.00  0.00     0.223 A
HETATM    2  N1  UNL     1      62.935  33.918  42.944  1.00  0.00    -0.324 N
ATOM      3  H1  UNL     1      61.933  34.033  43.100  1.00  0.00     0.169 HD
HETATM    4  C3  UNL     1      63.510  32.705  43.203  1.00  0.00     0.042 A
HETATM    5  C5  UNL     1      64.872  32.599  42.976  1.00  0.00     0.057 A
HETATM    6  C9  UNL     1      65.612  33.667  42.512  1.00  0.00     0.034 A
HETATM    7  N3  UNL     1      64.970  34.839  42.278  1.00  0.00    -0.325 N
ATOM      8  H3  UNL     1      65.500  35.641  41.935  1.00  0.00     0.169 HD
ENDROOT
BRANCH   6   9
HETATM    9  C10 UNL     1      67.072  33.524  42.308  1.00  0.00     0.115 C
BRANCH   9  10
HETATM   10  C11 UNL     1      67.417  34.104  40.946  1.00  0.00     0.022 A
HETATM   11  C12 UNL     1      67.428  33.288  39.842  1.00  0.00     0.077 A
HETATM   12  S1  UNL     1      67.860  34.389  38.607  1.00  0.00    -0.081 SA
HETATM   13  C13 UNL     1      68.001  35.815  39.568  1.00  0.00     0.090 A
HETATM   14  N2  UNL     1      67.706  35.352  40.773  1.00  0.00    -0.352 N
ATOM     15  H2  UNL     1      67.708  35.986  41.573  1.00  0.00     0.166 HD
BRANCH  13  16
HETATM   16  C14 UNL     1      68.351  37.163  39.141  1.00  0.00     0.081 A
HETATM   17  C15 UNL     1      69.656  37.532  39.076  1.00  0.00     0.174 A
HETATM   18  F1  UNL     1      70.657  36.681  39.396  1.00  0.00    -0.202 F
HETATM   19  C16 UNL     1      70.007  38.830  38.667  1.00  0.00     0.197 A
HETATM   20  F2  UNL     1      71.291  39.241  38.587  1.00  0.00    -0.199 F
HETATM   21  C17 UNL     1      69.004  39.713  38.335  1.00  0.00     0.199 A
HETATM   22  F3  UNL     1      69.318  40.970  37.936  1.00  0.00    -0.199 F
HETATM   23  C18 UNL     1      67.664  39.318  38.408  1.00  0.00     0.197 A
HETATM   24  F4  UNL     1      66.715  40.228  38.071  1.00  0.00    -0.199 F
HETATM   25  C19 UNL     1      67.355  38.039  38.813  1.00  0.00     0.174 A
HETATM   26  F5  UNL     1      66.072  37.635  38.891  1.00  0.00    -0.202 F
ENDBRANCH  13  16
ENDBRANCH   9  10
ENDBRANCH   6   9
BRANCH   5  27
HETATM   27  C6  UNL     1      65.518  31.337  43.234  1.00  0.00     0.173 C
HETATM   28  O2  UNL     1      65.633  30.495  42.271  1.00  0.00    -0.292 OA
BRANCH  27  29
HETATM   29  C7  UNL     1      66.058  30.946  44.539  1.00  0.00     0.197 C
BRANCH  29  30
HETATM   30  C8  UNL     1      65.425  29.796  45.192  1.00  0.00     0.180 C
HETATM   31  O3  UNL     1      64.647  29.960  46.154  1.00  0.00    -0.648 OA
HETATM   32  O4  UNL     1      65.625  28.458  44.812  1.00  0.00    -0.648 OA
ENDBRANCH  29  30
ENDBRANCH  27  29
ENDBRANCH   5  27
BRANCH   4  33
HETATM   33  C4  UNL     1      62.693  31.609  43.724  1.00  0.00     0.172 C
HETATM   34 CL1  UNL     1      60.985  31.753  43.225  1.00  0.00    -0.124 Cl
ENDBRANCH   4  33
BRANCH   1  35
HETATM   35  O1  UNL     1      63.010  36.180  42.241  1.00  0.00    -0.327 OA
HETATM   36  C1  UNL     1      63.001  37.200  43.215  1.00  0.00     0.213 C
ENDBRANCH   1  35
TORSDOF 8
ENDMDL