MODEL 5
REMARK VINA RESULT: -6.339566055      2.049      5.090
REMARK  4 active torsions:
REMARK  status: ('A' for Active; 'I' for Inactive)
REMARK    1  A    between atoms: N1_1  and  C1_4
REMARK    2  A    between atoms: C2_9  and  S1_10
REMARK    3  A    between atoms: S1_10  and  C3_11
REMARK    4  A    between atoms: C3_11  and  C4_12
REMARK       I    between atoms: C4_12  and  N4_14
ROOT
HETATM    1  C1  UNL     1      -5.067   1.481  16.635  1.00  0.00     0.159 A
HETATM    2  N2  UNL     1      -3.813   1.275  16.226  1.00  0.00    -0.279 N
ATOM      3  H2  UNL     1      -3.341   0.393  16.424  1.00  0.00     0.189 HD
HETATM    4  N3  UNL     1      -3.219   2.194  15.589  1.00  0.00    -0.286 N
ATOM      5  H3  UNL     1      -2.261   2.051  15.269  1.00  0.00     0.188 HD
HETATM    6  C2  UNL     1      -3.835   3.339  15.334  1.00  0.00     0.130 A
HETATM    7  S2  UNL     1      -5.361   3.070  16.057  1.00  0.00    -0.027 SA
ENDROOT
BRANCH   6   8
HETATM    8  S1  UNL     1      -3.193   4.779  14.446  1.00  0.00    -0.094 SA
BRANCH   8   9
HETATM    9  C3  UNL     1      -3.562   4.492  12.686  1.00  0.00     0.184 C
BRANCH   9  10
HETATM   10  C4  UNL     1      -2.636   3.429  12.178  1.00  0.00     0.229 C
HETATM   11  O1  UNL     1      -1.405   3.663  12.315  1.00  0.00    -0.273 OA
HETATM   12  N4  UNL     1      -3.134   2.252  11.587  1.00  0.00    -0.351 N
HETATM   13  C5  UNL     1      -4.548   2.028  11.449  1.00  0.00     0.125 C
HETATM   14  C9  UNL     1      -2.226   1.246  11.112  1.00  0.00     0.125 C
HETATM   15  C6  UNL     1      -4.854   0.775  10.693  1.00  0.00     0.020 C
HETATM   16  C7  UNL     1      -4.090  -0.426  11.180  1.00  0.00     0.003 C
HETATM   17  C8  UNL     1      -2.708  -0.076  11.671  1.00  0.00     0.020 C
ENDBRANCH   9  10
ENDBRANCH   8   9
ENDBRANCH   6   8
BRANCH   1  18
HETATM   18  N1  UNL     1      -5.845   0.660  17.301  1.00  0.00    -0.379 N
ATOM     19  H12 UNL     1      -6.799   0.352  17.112  1.00  0.00     0.158 HD
ATOM     20  H11 UNL     1      -5.636   0.157  18.164  1.00  0.00     0.158 HD
ENDBRANCH   1  18
TORSDOF 4
ENDMDL