MODEL 2
REMARK VINA RESULT: -6.071185143      1.965      3.633
REMARK  5 active torsions:
REMARK  status: ('A' for Active; 'I' for Inactive)
REMARK       I    between atoms: C1_2  and  N1_3
REMARK    1  A    between atoms: C1_2  and  S2_12
REMARK    2  A    between atoms: N1_3  and  C2_5
REMARK    3  A    between atoms: S2_12  and  C4_13
REMARK    4  A    between atoms: C4_13  and  C5_14
REMARK    5  A    between atoms: C5_14  and  N4_15
ROOT
HETATM    1  O1  UNL     1      -1.746   1.003  11.425  1.00  0.00    -0.260 OA
HETATM    2  C1  UNL     1      -2.796   1.626  11.721  1.00  0.00     0.285 C
HETATM    3  N1  UNL     1      -2.918   2.965  11.352  1.00  0.00    -0.297 N
ATOM      4  H1  UNL     1      -3.350   3.225  10.465  1.00  0.00     0.171 HD
ENDROOT
BRANCH   2   5
HETATM    5  S2  UNL     1      -4.066   0.741  12.601  1.00  0.00    -0.067 SA
BRANCH   5   6
HETATM    6  C4  UNL     1      -4.113   1.228  14.349  1.00  0.00     0.114 C
BRANCH   6   7
HETATM    7  C5  UNL     1      -4.988   2.407  14.518  1.00  0.00     0.283 C
BRANCH   7   8
HETATM    8  N4  UNL     1      -5.250   2.810  15.862  1.00  0.00     0.089 N
HETATM    9  C6  UNL     1      -6.547   3.379  16.063  1.00  0.00     0.272 C
HETATM   10  C7  UNL     1      -7.345   2.339  16.766  1.00  0.00     0.032 C
HETATM   11  C8  UNL     1      -6.363   1.287  17.215  1.00  0.00     0.032 C
HETATM   12  C9  UNL     1      -5.007   1.863  16.879  1.00  0.00     0.272 C
ENDBRANCH   7   8
ENDBRANCH   6   7
ENDBRANCH   5   6
ENDBRANCH   2   5
BRANCH   3  13
HETATM   13  C2  UNL     1      -2.463   3.883  12.171  1.00  0.00     0.167 A
HETATM   14  N2  UNL     1      -1.363   3.824  12.935  1.00  0.00    -0.279 N
HETATM   15  N3  UNL     1      -1.077   4.821  13.666  1.00  0.00    -0.303 N
ATOM     16  H2  UNL     1      -0.768   2.996  12.928  1.00  0.00     0.189 HD
HETATM   17  C3  UNL     1      -1.852   5.892  13.672  1.00  0.00     0.160 A
ATOM     18  H3  UNL     1      -0.244   4.795  14.254  1.00  0.00     0.186 HD
HETATM   19  S1  UNL     1      -3.062   5.432  12.554  1.00  0.00    -0.046 SA
ENDBRANCH   3  13
TORSDOF 5
ENDMDL