MODEL 4
REMARK VINA RESULT: -6.587964189      1.939      2.882
REMARK  3 active torsions:
REMARK  status: ('A' for Active; 'I' for Inactive)
REMARK    1  A    between atoms: N3_7  and  N4_8
REMARK    2  A    between atoms: N4_8  and  C3_10
REMARK    3  A    between atoms: N5_13  and  C6_14
ROOT
HETATM    1  C3  UNL     1      -3.316   1.653  12.066  1.00  0.00     0.139 C
HETATM    2  C4  UNL     1      -3.893   2.986  11.637  1.00  0.00     0.052 C
HETATM    3  C5  UNL     1      -4.987   3.236  12.689  1.00  0.00     0.125 C
HETATM    4  N5  UNL     1      -4.549   2.525  13.792  1.00  0.00    -0.387 N
HETATM    5  C13 UNL     1      -3.578   1.567  13.565  1.00  0.00     0.085 C
ENDROOT
BRANCH   1   6
HETATM    6  N4  UNL     1      -3.917   0.532  11.399  1.00  0.00    -0.318 N
ATOM      7  H4  UNL     1      -4.807   0.682  10.925  1.00  0.00     0.181 HD
BRANCH   6   8
HETATM    8  N3  UNL     1      -3.369  -0.744  11.356  1.00  0.00    -0.248 N
HETATM    9  C1  UNL     1      -2.062  -1.027  11.321  1.00  0.00     0.223 A
HETATM   10  N1  UNL     1      -1.961  -2.365  11.280  1.00  0.00    -0.293 N
HETATM   11  N2  UNL     1      -3.165  -2.882  11.290  1.00  0.00    -0.293 N
ATOM     12  H1  UNL     1      -1.089  -2.893  11.246  1.00  0.00     0.187 HD
HETATM   13  C2  UNL     1      -4.069  -1.878  11.339  1.00  0.00     0.223 A
ATOM     14  H2  UNL     1      -3.384  -3.877  11.265  1.00  0.00     0.187 HD
ENDBRANCH   6   8
ENDBRANCH   1   6
BRANCH   4  15
HETATM   15  C6  UNL     1      -5.263   2.567  14.995  1.00  0.00     0.083 C
HETATM   16  C7  UNL     1      -4.729   1.723  16.107  1.00  0.00     0.025 C
HETATM   17  C8  UNL     1      -5.704   1.283  17.127  1.00  0.00     0.002 C
HETATM   18  C9  UNL     1      -7.024   1.978  17.126  1.00  0.00     0.000 C
HETATM   19  C10 UNL     1      -6.932   3.467  17.321  1.00  0.00     0.000 C
HETATM   20  C11 UNL     1      -6.785   4.203  16.002  1.00  0.00     0.002 C
HETATM   21  C12 UNL     1      -5.362   3.993  15.545  1.00  0.00     0.025 C
ENDBRANCH   4  15
TORSDOF 3
ENDMDL