MODEL 2
REMARK VINA RESULT: -6.727572629      2.846      5.584
REMARK  3 active torsions:
REMARK  status: ('A' for Active; 'I' for Inactive)
REMARK    1  A    between atoms: S1_2  and  N1_4
REMARK    2  A    between atoms: S1_2  and  C7_12
REMARK    3  A    between atoms: N1_4  and  C1_6
ROOT
HETATM    1  O1  UNL     1      -5.488   4.596  13.265  1.00  0.00    -0.200 OA
HETATM    2  S1  UNL     1      -4.314   3.668  13.478  1.00  0.00     0.268 S
HETATM    3  O2  UNL     1      -3.061   4.399  12.989  1.00  0.00    -0.200 OA
ENDROOT
BRANCH   2   4
HETATM    4  N1  UNL     1      -4.193   3.287  15.107  1.00  0.00    -0.310 N
ATOM      5  H1  UNL     1      -3.372   3.523  15.664  1.00  0.00     0.172 HD
BRANCH   4   6
HETATM    6  C1  UNL     1      -5.318   2.611  15.655  1.00  0.00     0.093 C
HETATM    7  C2  UNL     1      -6.228   3.487  16.449  1.00  0.00     0.026 C
HETATM    8  C3  UNL     1      -7.554   2.727  16.581  1.00  0.00     0.002 C
HETATM    9  C4  UNL     1      -7.279   1.443  17.281  1.00  0.00     0.000 C
HETATM   10  C5  UNL     1      -5.863   1.171  17.629  1.00  0.00     0.002 C
HETATM   11  C6  UNL     1      -4.873   1.443  16.555  1.00  0.00     0.026 C
ENDBRANCH   4   6
ENDBRANCH   2   4
BRANCH   2  12
HETATM   12  C7  UNL     1      -4.528   2.327  12.383  1.00  0.00     0.154 A
HETATM   13  C8  UNL     1      -5.112   2.222  11.151  1.00  0.00     0.142 A
HETATM   14  N2  UNL     1      -5.093   1.049  10.578  1.00  0.00    -0.304 N
HETATM   15  N3  UNL     1      -4.538   0.044  11.169  1.00  0.00    -0.269 N
ATOM     16  H2  UNL     1      -5.518   0.927   9.659  1.00  0.00     0.186 HD
HETATM   17  S2  UNL     1      -3.987   0.693  12.615  1.00  0.00     0.017 SA
ATOM     18  H3  UNL     1      -4.453  -0.917  10.836  1.00  0.00     0.195 HD
ENDBRANCH   2  12
TORSDOF 3
ENDMDL