MODEL 3
REMARK VINA RESULT: -6.936593278      1.139      1.739
REMARK  3 active torsions:
REMARK  status: ('A' for Active; 'I' for Inactive)
REMARK    1  A    between atoms: C4_8  and  N3_9
REMARK       I    between atoms: N3_9  and  C5_11
REMARK    2  A    between atoms: C5_11  and  C6_13
REMARK    3  A    between atoms: C6_13  and  N4_14
ROOT
HETATM    1  N1  UNL     1      -5.072   4.124  10.671  1.00  0.00    -0.190 NA
HETATM    2  C1  UNL     1      -4.759   3.036  10.877  1.00  0.00     0.120 C
HETATM    3  C2  UNL     1      -4.360   1.633  11.090  1.00  0.00     0.148 A
HETATM    4  N2  UNL     1      -4.355   0.848  10.027  1.00  0.00    -0.349 N
ATOM      5  H2  UNL     1      -4.625   1.228   9.119  1.00  0.00     0.166 HD
HETATM    6  C3  UNL     1      -4.010  -0.402  10.122  1.00  0.00     0.141 A
HETATM    7  S1  UNL     1      -3.663  -0.547  11.777  1.00  0.00    -0.064 SA
HETATM    8  C4  UNL     1      -4.002   1.113  12.280  1.00  0.00     0.116 A
ENDROOT
BRANCH   8   9
HETATM    9  N3  UNL     1      -3.884   1.584  13.609  1.00  0.00    -0.315 N
HETATM   10  C5  UNL     1      -4.205   1.116  14.865  1.00  0.00     0.256 C
HETATM   11  O1  UNL     1      -4.732   0.052  15.136  1.00  0.00    -0.267 OA
ATOM     12  H3  UNL     1      -3.449   2.506  13.646  1.00  0.00     0.170 HD
BRANCH  10  13
HETATM   13  C6  UNL     1      -3.860   2.037  16.006  1.00  0.00     0.134 C
BRANCH  13  14
HETATM   14  N4  UNL     1      -4.574   3.244  16.031  1.00  0.00    -0.288 NA
HETATM   15  C7  UNL     1      -5.989   3.194  15.997  1.00  0.00     0.095 C
HETATM   16  C8  UNL     1      -6.619   4.563  15.920  1.00  0.00     0.015 C
HETATM   17  C9  UNL     1      -6.091   5.243  14.669  1.00  0.00     0.002 C
HETATM   18  C10 UNL     1      -4.606   5.486  14.981  1.00  0.00     0.015 C
HETATM   19  C11 UNL     1      -3.968   4.144  15.078  1.00  0.00     0.095 C
ENDBRANCH  13  14
ENDBRANCH  10  13
ENDBRANCH   8   9
TORSDOF 3
ENDMDL