MODEL 1
REMARK VINA RESULT: -6.819262882      0.000      0.000
REMARK  3 active torsions:
REMARK  status: ('A' for Active; 'I' for Inactive)
REMARK       I    between atoms: C1_2  and  N1_3
REMARK    1  A    between atoms: C1_2  and  C7_11
REMARK    2  A    between atoms: N1_3  and  C2_5
REMARK    3  A    between atoms: N3_15  and  C9_16
ROOT
HETATM    1  C7  UNL     1      -3.103   1.972  12.472  1.00  0.00     0.134 A
HETATM    2  C8  UNL     1      -2.573   1.271  11.419  1.00  0.00     0.145 A
HETATM    3  N2  UNL     1      -1.727   2.050  10.735  1.00  0.00    -0.293 N
ATOM      4  H2  UNL     1      -1.189   1.796   9.906  1.00  0.00     0.187 HD
HETATM    5  N3  UNL     1      -1.734   3.214  11.355  1.00  0.00    -0.229 N
HETATM    6  N4  UNL     1      -2.540   3.201  12.392  1.00  0.00    -0.277 N
ATOM      7  H4  UNL     1      -2.712   3.981  13.026  1.00  0.00     0.189 HD
ENDROOT
BRANCH   1   8
HETATM    8  C1  UNL     1      -4.064   1.522  13.481  1.00  0.00     0.271 C
HETATM    9  O1  UNL     1      -4.454   0.313  13.374  1.00  0.00    -0.266 OA
HETATM   10  N1  UNL     1      -4.532   2.370  14.506  1.00  0.00    -0.351 N
ATOM     11  H1  UNL     1      -4.200   3.333  14.563  1.00  0.00     0.163 HD
BRANCH  10  12
HETATM   12  C2  UNL     1      -5.473   1.882  15.468  1.00  0.00     0.088 C
HETATM   13  C3  UNL     1      -4.785   1.525  16.793  1.00  0.00     0.051 C
HETATM   14  C4  UNL     1      -5.864   0.908  17.670  1.00  0.00     0.169 C
HETATM   15  O2  UNL     1      -7.118   0.989  17.107  1.00  0.00    -0.391 OA
HETATM   16  C5  UNL     1      -7.498   2.269  16.761  1.00  0.00     0.169 C
HETATM   17  C6  UNL     1      -6.509   2.951  15.835  1.00  0.00     0.051 C
ENDBRANCH  10  12
ENDBRANCH   1   8
BRANCH   5  18
HETATM   18  C9  UNL     1      -0.954   4.347  10.943  1.00  0.00     0.127 C
HETATM   19  C10 UNL     1      -0.580   5.281  12.089  1.00  0.00     0.029 C
HETATM   20  C11 UNL     1       0.786   5.417  11.454  1.00  0.00     0.004 C
HETATM   21  C12 UNL     1       0.522   4.080  10.763  1.00  0.00     0.029 C
ENDBRANCH   5  18
TORSDOF 3
ENDMDL