MODEL 3
REMARK VINA RESULT: -6.746754980      1.988      4.565
REMARK  3 active torsions:
REMARK  status: ('A' for Active; 'I' for Inactive)
REMARK    1  A    between atoms: C2_7  and  C3_8
REMARK    2  A    between atoms: C7_12  and  C8_13
REMARK    3  A    between atoms: C8_13  and  C9_14
ROOT
HETATM    1  C3  UNL     1      -4.498   3.070  14.921  1.00  0.00     0.056 C
HETATM    2  C4  UNL     1      -5.944   3.313  14.668  1.00  0.00     0.012 C
HETATM    3  C5  UNL     1      -6.445   4.374  15.628  1.00  0.00     0.001 C
HETATM    4  C6  UNL     1      -5.805   5.716  15.347  1.00  0.00     0.005 C
HETATM    5  C7  UNL     1      -4.497   5.591  14.657  1.00  0.00    -0.013 C
HETATM    6  C13 UNL     1      -3.741   4.334  14.995  1.00  0.00     0.017 C
ENDROOT
BRANCH   1   7
HETATM    7  C2  UNL     1      -3.922   2.244  13.797  1.00  0.00     0.117 A
HETATM    8  N3  UNL     1      -2.893   2.575  12.983  1.00  0.00    -0.272 N
HETATM    9  N2  UNL     1      -2.682   1.595  12.125  1.00  0.00    -0.225 N
ATOM     10  H3  UNL     1      -2.363   3.445  13.025  1.00  0.00     0.190 HD
HETATM   11  N1  UNL     1      -3.550   0.634  12.363  1.00  0.00    -0.223 N
ATOM     12  H2  UNL     1      -1.967   1.583  11.398  1.00  0.00     0.210 HD
HETATM   13  C1  UNL     1      -3.617  -0.608  11.610  1.00  0.00     0.202 C
HETATM   14  N5  UNL     1      -4.304   1.024  13.376  1.00  0.00    -0.270 N
ATOM     15  H5  UNL     1      -5.065   0.479  13.780  1.00  0.00     0.190 HD
ENDBRANCH   1   7
BRANCH   5  16
HETATM   16  C8  UNL     1      -3.597   6.783  14.698  1.00  0.00     0.011 C
BRANCH  16  17
HETATM   17  C9  UNL     1      -3.113   7.317  13.406  1.00  0.00     0.013 C
HETATM   18  C10 UNL     1      -4.132   7.005  12.290  1.00  0.00     0.034 C
HETATM   19  C11 UNL     1      -3.389   5.948  11.511  1.00  0.00     0.232 C
HETATM   20  N4  UNL     1      -2.070   6.597  11.414  1.00  0.00    -0.075 N
HETATM   21  C12 UNL     1      -1.835   6.805  12.862  1.00  0.00     0.237 C
ATOM     22  H42 UNL     1      -1.347   6.091  10.902  1.00  0.00     0.277 HD
ATOM     23  H41 UNL     1      -2.009   7.422  10.818  1.00  0.00     0.277 HD
ENDBRANCH  16  17
ENDBRANCH   5  16
TORSDOF 3
ENDMDL