MODEL 5
REMARK VINA RESULT: -6.644661148      3.299      5.872
REMARK  5 active torsions:
REMARK  status: ('A' for Active; 'I' for Inactive)
REMARK    1  A    between atoms: C1_2  and  C2_3
REMARK    2  A    between atoms: C1_2  and  C9_11
REMARK    3  A    between atoms: C2_3  and  N1_4
REMARK    4  A    between atoms: C11_14  and  N2_15
REMARK    5  A    between atoms: N2_15  and  O2_17
ROOT
HETATM    1  C9  UNL     1      -3.957   3.766  14.783  1.00  0.00     0.089 A
HETATM    2  C10 UNL     1      -5.110   4.487  14.529  1.00  0.00     0.086 A
HETATM    3  S1  UNL     1      -6.244   3.718  15.544  1.00  0.00    -0.062 SA
HETATM    4  C11 UNL     1      -5.217   2.540  16.228  1.00  0.00     0.169 A
HETATM    5  N3  UNL     1      -4.063   2.798  15.644  1.00  0.00    -0.332 N
ATOM      6  H3  UNL     1      -3.245   2.233  15.870  1.00  0.00     0.168 HD
ENDROOT
BRANCH   1   7
HETATM    7  C1  UNL     1      -2.683   4.089  14.104  1.00  0.00     0.204 C
HETATM    8  O1  UNL     1      -1.698   4.410  14.783  1.00  0.00    -0.289 OA
BRANCH   7   9
HETATM    9  C2  UNL     1      -2.610   4.023  12.652  1.00  0.00     0.357 C
BRANCH   9  10
HETATM   10  N1  UNL     1      -3.005   2.789  12.049  1.00  0.00     0.095 N
HETATM   11  C3  UNL     1      -4.058   2.973  11.060  1.00  0.00     0.273 C
HETATM   12  C4  UNL     1      -5.103   1.916  11.211  1.00  0.00     0.030 C
HETATM   13  C5  UNL     1      -4.765   0.602  10.606  1.00  0.00     0.002 C
HETATM   14  C6  UNL     1      -3.330   0.449  10.190  1.00  0.00     0.002 C
HETATM   15  C7  UNL     1      -2.374   0.605  11.358  1.00  0.00     0.030 C
HETATM   16  C8  UNL     1      -1.950   2.076  11.376  1.00  0.00     0.273 C
ENDBRANCH   9  10
ENDBRANCH   7   9
ENDBRANCH   1   7
BRANCH   4  17
HETATM   17  N2  UNL     1      -5.494   1.603  17.117  1.00  0.00    -0.247 N
ATOM     18  H2  UNL     1      -5.639   1.814  18.105  1.00  0.00     0.196 HD
BRANCH  17  19
HETATM   19  O2  UNL     1      -5.575   0.325  16.620  1.00  0.00    -0.288 OA
ATOM     20  H2  UNL     1      -4.935  -0.287  16.963  1.00  0.00     0.244 HD
ENDBRANCH  17  19
ENDBRANCH   4  17
TORSDOF 5
ENDMDL