MODEL 5
REMARK VINA RESULT: -6.572354195      2.720      5.028
REMARK  3 active torsions:
REMARK  status: ('A' for Active; 'I' for Inactive)
REMARK    1  A    between atoms: C2_2  and  C4_4
REMARK    2  A    between atoms: C4_4  and  N1_5
REMARK    3  A    between atoms: N1_5  and  C5_7
ROOT
HETATM    1  C5  UNL     1      -4.920   2.851  14.572  1.00  0.00     0.123 C
HETATM    2  C6  UNL     1      -5.352   4.294  14.439  1.00  0.00     0.031 C
HETATM    3  C7  UNL     1      -4.189   5.185  14.755  1.00  0.00     0.036 C
HETATM    4  C8  UNL     1      -3.036   4.844  13.810  1.00  0.00     0.148 C
HETATM    5  C9  UNL     1      -3.429   5.309  12.439  1.00  0.00     0.222 C
HETATM    6  O1  UNL     1      -3.536   4.350  11.475  1.00  0.00    -0.271 OA
HETATM    7  S1  UNL     1      -4.168   2.891  11.955  1.00  0.00     0.295 S
HETATM    8  O2  UNL     1      -5.630   2.742  11.716  1.00  0.00    -0.196 OA
HETATM    9  O3  UNL     1      -3.473   1.809  11.165  1.00  0.00    -0.196 OA
HETATM   10  C10 UNL     1      -3.722   2.649  13.661  1.00  0.00     0.293 C
HETATM   11  O4  UNL     1      -2.699   3.525  13.922  1.00  0.00    -0.359 OA
ENDROOT
BRANCH   1  12
HETATM   12  N1  UNL     1      -4.561   2.582  15.918  1.00  0.00    -0.410 N
ATOM     13  H1  UNL     1      -3.959   3.209  16.453  1.00  0.00     0.154 HD
BRANCH  12  14
HETATM   14  C4  UNL     1      -5.100   1.367  16.484  1.00  0.00     0.147 C
BRANCH  14  15
HETATM   15  C2  UNL     1      -6.287   1.802  17.307  1.00  0.00    -0.076 C
HETATM   16  C1  UNL     1      -6.140   2.187  18.566  1.00  0.00     0.015 C
HETATM   17  C3  UNL     1      -7.661   1.812  16.739  1.00  0.00     0.044 C
ENDBRANCH  14  15
ENDBRANCH  12  14
ENDBRANCH   1  12
TORSDOF 3
ENDMDL