MODEL 3
REMARK VINA RESULT: -6.407427344      3.129      6.253
REMARK  3 active torsions:
REMARK  status: ('A' for Active; 'I' for Inactive)
REMARK    1  A    between atoms: C9_9  and  N1_10
REMARK       I    between atoms: N1_10  and  C10_12
REMARK    2  A    between atoms: C10_12  and  C11_14
REMARK    3  A    between atoms: C11_14  and  N2_15
ROOT
HETATM    1  N1  UNL     1      -3.943   4.460  14.420  1.00  0.00    -0.354 N
ATOM      2  H1  UNL     1      -4.421   4.981  13.686  1.00  0.00     0.162 HD
HETATM    3  C10 UNL     1      -2.537   4.448  14.441  1.00  0.00     0.237 C
HETATM    4  O1  UNL     1      -1.924   3.815  15.326  1.00  0.00    -0.272 OA
ENDROOT
BRANCH   1   5
HETATM    5  C9  UNL     1      -4.743   3.747  15.423  1.00  0.00     0.092 C
HETATM    6  C2  UNL     1      -6.120   4.296  15.495  1.00  0.00    -0.027 C
HETATM    7  C1  UNL     1      -6.912   4.094  14.218  1.00  0.00     0.017 C
HETATM    8  C3  UNL     1      -6.031   5.794  15.751  1.00  0.00     0.017 C
HETATM    9  C4  UNL     1      -6.814   3.680  16.705  1.00  0.00     0.011 C
HETATM   10  C5  UNL     1      -6.986   2.187  16.567  1.00  0.00     0.001 C
HETATM   11  C6  UNL     1      -5.873   1.397  17.157  1.00  0.00     0.000 C
HETATM   12  C7  UNL     1      -4.565   1.541  16.428  1.00  0.00     0.002 C
HETATM   13  C8  UNL     1      -4.716   2.251  15.114  1.00  0.00     0.026 C
ENDBRANCH   1   5
BRANCH   3  14
HETATM   14  C11 UNL     1      -1.771   5.177  13.418  1.00  0.00     0.254 C
BRANCH  14  15
HETATM   15  N2  UNL     1      -1.352   4.216  12.416  1.00  0.00    -0.262 N
HETATM   16  C12 UNL     1      -0.445   4.469  11.431  1.00  0.00     0.220 A
HETATM   17  N3  UNL     1      -0.334   3.354  10.737  1.00  0.00    -0.279 N
HETATM   18  N4  UNL     1      -1.130   2.437  11.257  1.00  0.00    -0.227 N
ATOM     19  H3  UNL     1       0.272   3.220   9.927  1.00  0.00     0.189 HD
HETATM   20  N5  UNL     1      -1.747   2.980  12.286  1.00  0.00    -0.225 N
ATOM     21  H4  UNL     1      -1.247   1.482  10.922  1.00  0.00     0.210 HD
ATOM     22  H5  UNL     1      -2.425   2.509  12.885  1.00  0.00     0.210 HD
ENDBRANCH  14  15
ENDBRANCH   3  14
TORSDOF 3
ENDMDL