MODEL 4
REMARK VINA RESULT: -5.781575906      1.257      1.281
REMARK  3 active torsions:
REMARK  status: ('A' for Active; 'I' for Inactive)
REMARK    1  A    between atoms: C4_5  and  N2_6
REMARK       I    between atoms: N2_6  and  C5_8
REMARK    2  A    between atoms: C5_8  and  O2_10
REMARK    3  A    between atoms: O2_10  and  C6_11
ROOT
HETATM    1  N2  UNL     1      -3.953   3.673  13.647  1.00  0.00    -0.332 N
ATOM      2  H2  UNL     1      -3.263   3.096  14.128  1.00  0.00     0.165 HD
HETATM    3  C5  UNL     1      -5.293   3.771  14.137  1.00  0.00     0.361 C
HETATM    4  O1  UNL     1      -6.155   4.478  13.560  1.00  0.00    -0.238 OA
ENDROOT
BRANCH   1   5
HETATM    5  C4  UNL     1      -3.604   4.401  12.467  1.00  0.00     0.090 C
HETATM    6  C3  UNL     1      -3.789   3.595  11.203  1.00  0.00     0.055 C
HETATM    7  C2  UNL     1      -3.497   4.526  10.045  1.00  0.00     0.274 C
HETATM    8  N1  UNL     1      -2.148   5.031  10.112  1.00  0.00     0.084 N
HETATM    9  C1  UNL     1      -1.931   5.945   9.036  1.00  0.00     0.309 C
HETATM   10  C12 UNL     1      -1.756   5.585  11.360  1.00  0.00     0.274 C
HETATM   11  C11 UNL     1      -2.100   4.705  12.543  1.00  0.00     0.055 C
ENDBRANCH   1   5
BRANCH   3  12
HETATM   12  O2  UNL     1      -5.694   3.089  15.264  1.00  0.00    -0.299 OA
BRANCH  12  13
HETATM   13  C6  UNL     1      -5.199   2.849  16.430  1.00  0.00     0.133 C
HETATM   14  C7  UNL     1      -6.606   3.377  17.339  1.00  0.00     0.032 C
HETATM   15  C8  UNL     1      -6.397   2.441  18.461  1.00  0.00     0.002 C
HETATM   16  C9  UNL     1      -6.099   1.084  17.881  1.00  0.00     0.002 C
HETATM   17  C10 UNL     1      -5.837   1.225  16.452  1.00  0.00     0.032 C
ENDBRANCH  12  13
ENDBRANCH   3  12
TORSDOF 3
ENDMDL