MODEL 3
REMARK VINA RESULT: -6.011641460      1.530      3.977
REMARK  4 active torsions:
REMARK  status: ('A' for Active; 'I' for Inactive)
REMARK    1  A    between atoms: N1_2  and  C3_4
REMARK    2  A    between atoms: C7_8  and  O1_9
REMARK    3  A    between atoms: C7_8  and  C8_11
REMARK    4  A    between atoms: C8_11  and  C9_13
ROOT
HETATM    1  C3  UNL     1      -5.170   3.531  14.330  1.00  0.00     0.263 C
HETATM    2  C4  UNL     1      -5.932   3.975  15.598  1.00  0.00     0.039 C
HETATM    3  C5  UNL     1      -6.396   2.673  16.162  1.00  0.00     0.006 C
HETATM    4  C6  UNL     1      -5.124   1.848  16.091  1.00  0.00     0.048 C
HETATM    5  C7  UNL     1      -4.398   2.360  14.817  1.00  0.00     0.149 C
ENDROOT
BRANCH   5   6
HETATM    6  O1  UNL     1      -3.122   2.742  15.196  1.00  0.00    -0.380 OA
ATOM      7  H1  UNL     1      -3.088   3.677  15.358  1.00  0.00     0.211 HD
ENDBRANCH   5   6
BRANCH   5   8
HETATM    8  C8  UNL     1      -4.424   1.200  13.884  1.00  0.00     0.170 C
HETATM    9  O2  UNL     1      -4.733   0.124  14.419  1.00  0.00    -0.294 OA
BRANCH   8  10
HETATM   10  C9  UNL     1      -4.127   1.215  12.461  1.00  0.00     0.013 C
HETATM   11  C10 UNL     1      -5.161   1.843  11.568  1.00  0.00     0.023 C
HETATM   12  C11 UNL     1      -3.932  -0.225  11.952  1.00  0.00     0.023 C
HETATM   13  C12 UNL     1      -2.816   1.915  12.133  1.00  0.00     0.023 C
ENDBRANCH   8  10
ENDBRANCH   5   8
BRANCH   1  14
HETATM   14  N1  UNL     1      -4.395   4.699  13.972  1.00  0.00     0.088 N
HETATM   15  C1  UNL     1      -4.639   5.789  14.912  1.00  0.00     0.310 C
HETATM   16  C2  UNL     1      -4.581   5.149  12.612  1.00  0.00     0.310 C
ENDBRANCH   1  14
TORSDOF 4
ENDMDL