MODEL 4
REMARK VINA RESULT: -6.697102367      0.114      1.837
REMARK  4 active torsions:
REMARK  status: ('A' for Active; 'I' for Inactive)
REMARK    1  A    between atoms: O1_2  and  C2_3
REMARK    2  A    between atoms: C2_3  and  C3_5
REMARK    3  A    between atoms: C3_5  and  N1_6
REMARK    4  A    between atoms: C3_5  and  C4_10
ROOT
HETATM    1  C4  UNL     1      -4.684   3.501  15.346  1.00  0.00    -0.002 C
HETATM    2  C5  UNL     1      -5.218   3.177  13.994  1.00  0.00     0.016 C
HETATM    3  C6  UNL     1      -5.500   4.463  13.257  1.00  0.00    -0.013 C
HETATM    4  C7  UNL     1      -6.513   5.316  13.982  1.00  0.00     0.009 C
HETATM    5  C8  UNL     1      -5.906   5.696  15.314  1.00  0.00    -0.013 C
HETATM    6  C9  UNL     1      -4.581   6.419  15.150  1.00  0.00     0.009 C
HETATM    7  C10 UNL     1      -3.617   5.510  14.408  1.00  0.00    -0.013 C
HETATM    8  C11 UNL     1      -4.223   5.246  13.050  1.00  0.00     0.009 C
HETATM    9  C12 UNL     1      -3.375   4.241  15.182  1.00  0.00     0.016 C
HETATM   10  C13 UNL     1      -5.649   4.437  16.084  1.00  0.00     0.016 C
ENDROOT
BRANCH   1  11
HETATM   11  C3  UNL     1      -4.517   2.298  16.245  1.00  0.00     0.290 C
BRANCH  11  12
HETATM   12  C2  UNL     1      -5.379   1.161  15.889  1.00  0.00     0.290 C
HETATM   13  O2  UNL     1      -4.947   0.176  15.197  1.00  0.00    -0.263 OA
BRANCH  12  14
HETATM   14  O1  UNL     1      -6.714   1.060  16.265  1.00  0.00    -0.325 OA
HETATM   15  C1  UNL     1      -7.184   1.491  17.533  1.00  0.00     0.213 C
ENDBRANCH  12  14
ENDBRANCH  11  12
BRANCH  11  16
HETATM   16  N1  UNL     1      -3.120   1.867  16.067  1.00  0.00    -0.065 N
ATOM     17  H13 UNL     1      -2.962   0.902  16.356  1.00  0.00     0.275 HD
ATOM     18  H12 UNL     1      -2.861   1.756  15.086  1.00  0.00     0.275 HD
ATOM     19  H11 UNL     1      -2.527   2.533  16.562  1.00  0.00     0.275 HD
ENDBRANCH  11  16
ENDBRANCH   1  11
TORSDOF 4
ENDMDL