MODEL 5
REMARK VINA RESULT: -6.016741014      2.489      4.466
REMARK  3 active torsions:
REMARK  status: ('A' for Active; 'I' for Inactive)
REMARK    1  A    between atoms: O1_2  and  C2_3
REMARK    2  A    between atoms: N1_7  and  C6_8
REMARK    3  A    between atoms: C11_13  and  O2_14
ROOT
HETATM    1  C2  UNL     1      -4.016   6.126  14.986  1.00  0.00     0.126 C
HETATM    2  C3  UNL     1      -5.404   5.895  14.414  1.00  0.00     0.037 C
HETATM    3  C4  UNL     1      -5.991   4.734  15.182  1.00  0.00     0.047 C
HETATM    4  C5  UNL     1      -5.857   3.466  14.383  1.00  0.00     0.063 C
HETATM    5  N1  UNL     1      -4.538   2.992  14.259  1.00  0.00    -0.367 N
HETATM    6  C12 UNL     1      -3.518   3.651  14.940  1.00  0.00     0.066 C
HETATM    7  C13 UNL     1      -3.126   5.016  14.494  1.00  0.00     0.076 C
ENDROOT
BRANCH   5   8
HETATM    8  C6  UNL     1      -4.272   2.153  13.172  1.00  0.00     0.116 C
HETATM    9  C7  UNL     1      -4.335   0.679  13.460  1.00  0.00     0.028 C
HETATM   10  C8  UNL     1      -3.980  -0.170  12.280  1.00  0.00     0.002 C
HETATM   11  C9  UNL     1      -4.661   0.297  11.022  1.00  0.00     0.003 C
HETATM   12  C10 UNL     1      -4.196   1.733  10.794  1.00  0.00     0.034 C
HETATM   13  C11 UNL     1      -4.941   2.535  11.878  1.00  0.00     0.141 C
BRANCH  13  14
HETATM   14  O2  UNL     1      -4.715   3.864  11.608  1.00  0.00    -0.393 OA
ATOM     15  H2  UNL     1      -3.911   3.961  11.111  1.00  0.00     0.210 HD
ENDBRANCH  13  14
ENDBRANCH   5   8
BRANCH   1  16
HETATM   16  O1  UNL     1      -3.528   7.328  14.474  1.00  0.00    -0.390 OA
HETATM   17  C1  UNL     1      -2.170   7.322  14.240  1.00  0.00     0.202 C
ENDBRANCH   1  16
TORSDOF 3
ENDMDL