MODEL 4
REMARK VINA RESULT: -6.504303544      1.391      1.403
REMARK  3 active torsions:
REMARK  status: ('A' for Active; 'I' for Inactive)
REMARK    1  A    between atoms: C2_2  and  S1_4
REMARK    2  A    between atoms: C2_2  and  C5_8
REMARK    3  A    between atoms: S1_4  and  C4_5
REMARK       I    between atoms: C5_8  and  N2_10
ROOT
HETATM    1  C1  UNL     1      -3.193   4.717  14.438  1.00  0.00     0.037 C
HETATM    2  C2  UNL     1      -4.407   3.890  14.691  1.00  0.00     0.090 C
HETATM    3  C3  UNL     1      -5.434   4.791  15.376  1.00  0.00     0.037 C
ENDROOT
BRANCH   2   4
HETATM    4  S1  UNL     1      -3.965   2.576  15.853  1.00  0.00    -0.053 SA
BRANCH   4   5
HETATM    5  C4  UNL     1      -5.101   1.210  15.708  1.00  0.00     0.294 C
HETATM    6  N1  UNL     1      -4.666   0.042  15.020  1.00  0.00    -0.051 NA
HETATM    7  O1  UNL     1      -6.268   1.215  16.178  1.00  0.00    -0.264 OA
ENDBRANCH   4   5
ENDBRANCH   2   4
BRANCH   2   8
HETATM    8  C5  UNL     1      -5.058   3.320  13.524  1.00  0.00     0.238 C
HETATM    9  O2  UNL     1      -6.284   3.591  13.408  1.00  0.00    -0.272 OA
HETATM   10  N2  UNL     1      -4.426   2.506  12.539  1.00  0.00    -0.351 N
HETATM   11  C6  UNL     1      -3.068   2.060  12.444  1.00  0.00     0.126 C
HETATM   12  C9  UNL     1      -5.139   1.971  11.394  1.00  0.00     0.126 C
HETATM   13  C7  UNL     1      -3.106   0.850  11.515  1.00  0.00     0.021 C
HETATM   14  C8  UNL     1      -4.150   1.284  10.522  1.00  0.00     0.021 C
ENDBRANCH   2   8
TORSDOF 3
ENDMDL