MODEL 5
REMARK VINA RESULT: -6.284860601      1.432      3.010
REMARK  3 active torsions:
REMARK  status: ('A' for Active; 'I' for Inactive)
REMARK    1  A    between atoms: N1_2  and  O1_3
REMARK    2  A    between atoms: N1_2  and  C2_5
REMARK    3  A    between atoms: C3_6  and  C4_7
ROOT
HETATM    1  C2  UNL     1      -5.083   2.299  15.209  1.00  0.00     0.122 C
HETATM    2  C3  UNL     1      -4.046   1.695  14.340  1.00  0.00     0.072 C
HETATM    3  C5  UNL     1      -4.068   2.430  13.027  1.00  0.00     0.014 C
HETATM    4  C6  UNL     1      -3.342   3.691  12.923  1.00  0.00     0.006 C
HETATM    5  C7  UNL     1      -3.332   4.641  14.030  1.00  0.00    -0.006 C
HETATM    6  C8  UNL     1      -3.321   4.097  15.417  1.00  0.00     0.012 C
HETATM    7  C9  UNL     1      -4.739   3.714  15.636  1.00  0.00     0.012 C
HETATM    8  C10 UNL     1      -5.524   4.757  14.843  1.00  0.00     0.015 C
HETATM    9  C11 UNL     1      -4.518   5.589  14.107  1.00  0.00    -0.044 C
HETATM   10  C12 UNL     1      -4.052   6.770  14.969  1.00  0.00     0.015 C
HETATM   11  C13 UNL     1      -4.976   6.096  12.796  1.00  0.00     0.015 C
ENDROOT
BRANCH   1  12
HETATM   12  N1  UNL     1      -5.514   1.605  16.351  1.00  0.00    -0.295 N
HETATM   13  C1  UNL     1      -5.504   2.214  17.618  1.00  0.00     0.178 C
BRANCH  12  14
HETATM   14  O1  UNL     1      -6.590   0.820  16.122  1.00  0.00    -0.292 OA
ATOM     15  H1  UNL     1      -6.931   0.876  15.237  1.00  0.00     0.244 HD
ENDBRANCH  12  14
ENDBRANCH   1  12
BRANCH   2  16
HETATM   16  C4  UNL     1      -4.389   0.290  14.029  1.00  0.00     0.237 C
HETATM   17  O2  UNL     1      -4.528  -0.143  12.877  1.00  0.00    -0.306 OA
ENDBRANCH   2  16
TORSDOF 3
ENDMDL