MODEL 3
REMARK VINA RESULT: -6.243372980      2.281      3.759
REMARK  2 active torsions:
REMARK  status: ('A' for Active; 'I' for Inactive)
REMARK    1  A    between atoms: C2_2  and  C3_3
REMARK    2  A    between atoms: C3_3  and  N1_4
ROOT
HETATM    1  N1  UNL     1      -4.863   2.635  15.923  1.00  0.00    -0.323 N
HETATM    2  C4  UNL     1      -4.397   1.644  14.955  1.00  0.00     0.191 C
HETATM    3  N2  UNL     1      -4.712   0.258  14.910  1.00  0.00    -0.063 NA
HETATM    4  N3  UNL     1      -3.616   2.221  14.108  1.00  0.00    -0.353 N
ATOM      5  H3  UNL     1      -3.149   1.763  13.325  1.00  0.00     0.163 HD
HETATM    6  C5  UNL     1      -3.511   3.588  14.443  1.00  0.00     0.058 A
HETATM    7  C6  UNL     1      -2.582   4.552  13.926  1.00  0.00     0.036 A
HETATM    8  C7  UNL     1      -2.277   3.945  15.273  1.00  0.00     0.036 A
HETATM    9  C8  UNL     1      -4.814   3.841  15.146  1.00  0.00     0.064 C
HETATM   10  C9  UNL     1      -4.953   5.136  15.801  1.00  0.00     0.034 C
HETATM   11  C10 UNL     1      -6.340   5.713  15.487  1.00  0.00     0.002 C
HETATM   12  C11 UNL     1      -6.487   5.973  14.005  1.00  0.00     0.000 C
HETATM   13  C12 UNL     1      -5.992   4.802  13.185  1.00  0.00     0.002 C
HETATM   14  C13 UNL     1      -5.943   3.614  14.098  1.00  0.00     0.034 C
ENDROOT
BRANCH   1  15
HETATM   15  C3  UNL     1      -5.196   2.336  17.257  1.00  0.00     0.067 C
BRANCH  15  16
HETATM   16  C2  UNL     1      -6.606   2.549  17.696  1.00  0.00     0.040 C
HETATM   17  C1  UNL     1      -7.548   1.612  16.966  1.00  0.00     0.010 C
ENDBRANCH  15  16
ENDBRANCH   1  15
TORSDOF 2
ENDMDL