MODEL 5
REMARK VINA RESULT: -6.746442215      1.786      5.855
REMARK  3 active torsions:
REMARK  status: ('A' for Active; 'I' for Inactive)
REMARK    1  A    between atoms: O1_2  and  C2_3
REMARK    2  A    between atoms: C2_3  and  C5_7
REMARK       I    between atoms: C5_7  and  N2_9
REMARK    3  A    between atoms: N2_9  and  C6_11
ROOT
HETATM    1  C2  UNL     1      -5.850   1.878  16.152  1.00  0.00     0.225 C
HETATM    2  C3  UNL     1      -5.111   1.828  17.471  1.00  0.00     0.073 C
HETATM    3  C4  UNL     1      -6.141   3.303  15.873  1.00  0.00     0.107 C
HETATM    4  N1  UNL     1      -6.367   4.415  15.635  1.00  0.00    -0.193 NA
ENDROOT
BRANCH   1   5
HETATM    5  O1  UNL     1      -7.051   1.219  16.280  1.00  0.00    -0.362 OA
HETATM    6  C1  UNL     1      -7.671   1.408  17.489  1.00  0.00     0.204 C
ENDBRANCH   1   5
BRANCH   1   7
HETATM    7  C5  UNL     1      -5.040   1.342  15.037  1.00  0.00     0.267 C
HETATM    8  O2  UNL     1      -4.740   0.127  15.068  1.00  0.00    -0.269 OA
HETATM    9  N2  UNL     1      -4.616   2.145  13.979  1.00  0.00    -0.353 N
ATOM     10  H2  UNL     1      -4.885   3.129  13.998  1.00  0.00     0.163 HD
BRANCH   9  11
HETATM   11  C6  UNL     1      -3.822   1.690  12.855  1.00  0.00     0.084 C
HETATM   12  C7  UNL     1      -4.633   1.079  11.762  1.00  0.00     0.025 C
HETATM   13  C8  UNL     1      -3.954  -0.081  11.090  1.00  0.00     0.002 C
HETATM   14  C9  UNL     1      -2.792   0.298  10.246  1.00  0.00     0.000 C
HETATM   15  C10 UNL     1      -1.838   1.262  10.909  1.00  0.00     0.000 C
HETATM   16  C11 UNL     1      -2.379   2.641  11.032  1.00  0.00     0.002 C
HETATM   17  C12 UNL     1      -3.125   2.912  12.299  1.00  0.00     0.025 C
ENDBRANCH   9  11
ENDBRANCH   1   7
TORSDOF 3
ENDMDL