MODEL 4
REMARK VINA RESULT: -6.480945715      2.839      5.268
REMARK  2 active torsions:
REMARK  status: ('A' for Active; 'I' for Inactive)
REMARK    1  A    between atoms: C2_2  and  C3_3
REMARK    2  A    between atoms: C8_10  and  C9_11
ROOT
HETATM    1  C3  UNL     1      -2.933   4.686  13.336  1.00  0.00     0.045 C
HETATM    2  C4  UNL     1      -2.598   5.920  14.145  1.00  0.00     0.014 C
HETATM    3  C5  UNL     1      -4.086   6.282  13.997  1.00  0.00     0.043 C
HETATM    4  C6  UNL     1      -4.293   4.773  13.953  1.00  0.00     0.111 C
HETATM    5  O1  UNL     1      -5.357   4.318  13.238  1.00  0.00    -0.228 OA
HETATM    6  O2  UNL     1      -6.382   4.225  13.998  1.00  0.00    -0.232 OA
HETATM    7  C7  UNL     1      -5.997   4.040  15.321  1.00  0.00     0.204 C
HETATM    8  C8  UNL     1      -6.204   2.618  15.722  1.00  0.00     0.246 C
HETATM    9  N1  UNL     1      -5.005   1.912  15.302  1.00  0.00    -0.064 N
ATOM     10  H11 UNL     1      -5.028   1.563  14.344  1.00  0.00     0.278 HD
ATOM     11  H12 UNL     1      -4.871   1.001  15.739  1.00  0.00     0.278 HD
HETATM   12  C12 UNL     1      -3.959   2.873  15.570  1.00  0.00     0.243 C
HETATM   13  C13 UNL     1      -4.474   4.244  15.336  1.00  0.00     0.084 C
ENDROOT
BRANCH   1  14
HETATM   14  C2  UNL     1      -2.931   4.905  11.886  1.00  0.00    -0.029 C
HETATM   15  C1  UNL     1      -2.614   4.013  10.966  1.00  0.00     0.007 C
ENDBRANCH   1  14
BRANCH   8  16
HETATM   16  C9  UNL     1      -6.369   2.383  17.167  1.00  0.00    -0.060 C
HETATM   17  C10 UNL     1      -6.626   3.309  18.076  1.00  0.00     0.016 C
HETATM   18  C11 UNL     1      -6.226   0.956  17.628  1.00  0.00     0.044 C
ENDBRANCH   8  16
TORSDOF 2
ENDMDL