MODEL 5
REMARK VINA RESULT: -7.383857206      1.709      3.514
REMARK  5 active torsions:
REMARK  status: ('A' for Active; 'I' for Inactive)
REMARK    1  A    between atoms: C3_5  and  C4_6
REMARK    2  A    between atoms: C4_6  and  N2_7
REMARK    3  A    between atoms: N4_14  and  C9_15
REMARK    4  A    between atoms: C9_15  and  C10_16
REMARK    5  A    between atoms: C15_21  and  O1_22
ROOT
HETATM    1  C1  UNL     1      19.518   5.324  13.062  1.00  0.00     0.091 C
HETATM    2  C2  UNL     1      18.432   4.472  13.621  1.00  0.00     0.095 A
HETATM    3  N1  UNL     1      18.159   4.338  14.928  1.00  0.00    -0.332 N
ATOM      4  H1  UNL     1      18.661   4.806  15.682  1.00  0.00     0.168 HD
HETATM    5  C3  UNL     1      17.131   3.498  15.094  1.00  0.00     0.126 A
HETATM    6  N3  UNL     1      16.770   3.112  13.861  1.00  0.00    -0.284 N
ATOM      7  H3  UNL     1      16.011   2.466  13.645  1.00  0.00     0.188 HD
HETATM    8  N4  UNL     1      17.551   3.697  12.969  1.00  0.00    -0.279 N
ENDROOT
BRANCH   8   9
HETATM    9  C9  UNL     1      17.433   3.509  11.564  1.00  0.00     0.157 C
BRANCH   9  10
HETATM   10  C10 UNL     1      17.630   2.119  11.065  1.00  0.00     0.034 C
HETATM   11  C11 UNL     1      18.812   1.391  11.604  1.00  0.00     0.009 C
HETATM   12  C12 UNL     1      18.772  -0.027  11.070  1.00  0.00     0.001 C
HETATM   13  C13 UNL     1      17.782  -0.198   9.951  1.00  0.00     0.002 C
HETATM   14  C14 UNL     1      16.372   0.152  10.361  1.00  0.00     0.032 C
HETATM   15  C15 UNL     1      16.399   1.261  11.359  1.00  0.00     0.123 C
BRANCH  15  16
HETATM   16  O1  UNL     1      15.297   2.118  11.203  1.00  0.00    -0.395 OA
ATOM     17  H1  UNL     1      14.852   2.115  12.042  1.00  0.00     0.210 HD
ENDBRANCH  15  16
ENDBRANCH   9  10
ENDBRANCH   8   9
BRANCH   5  18
HETATM   18  C4  UNL     1      16.506   3.065  16.342  1.00  0.00     0.349 C
BRANCH  18  19
HETATM   19  N2  UNL     1      15.147   2.596  16.180  1.00  0.00     0.095 N
HETATM   20  C5  UNL     1      14.382   3.176  17.294  1.00  0.00     0.273 C
HETATM   21  C6  UNL     1      14.807   2.378  18.513  1.00  0.00     0.032 C
HETATM   22  C7  UNL     1      15.203   1.033  17.955  1.00  0.00     0.032 C
HETATM   23  C8  UNL     1      15.013   1.184  16.464  1.00  0.00     0.273 C
ENDBRANCH  18  19
ENDBRANCH   5  18
TORSDOF 5
ENDMDL