MODEL 5
REMARK VINA RESULT: -6.806028534      1.848      2.324
REMARK  5 active torsions:
REMARK  status: ('A' for Active; 'I' for Inactive)
REMARK    1  A    between atoms: O1_1  and  C1_3
REMARK    2  A    between atoms: C5_7  and  C6_8
REMARK    3  A    between atoms: C6_8  and  C7_9
REMARK    4  A    between atoms: C7_9  and  N1_10
REMARK    5  A    between atoms: N2_13  and  C10_14
ROOT
HETATM    1  N1  UNL     1      17.345   2.056  13.182  1.00  0.00    -0.371 N
HETATM    2  C8  UNL     1      17.937   3.309  13.435  1.00  0.00     0.083 C
HETATM    3  C9  UNL     1      18.065   4.162  12.176  1.00  0.00     0.169 C
HETATM    4  N2  UNL     1      18.756   3.413  11.188  1.00  0.00    -0.355 N
HETATM    5  C13 UNL     1      19.031   2.008  11.397  1.00  0.00     0.145 C
HETATM    6  C14 UNL     1      17.946   1.281  12.148  1.00  0.00     0.147 C
ENDROOT
BRANCH   1   7
HETATM    7  C7  UNL     1      16.817   1.299  14.248  1.00  0.00     0.063 C
BRANCH   7   8
HETATM    8  C6  UNL     1      17.316   1.753  15.599  1.00  0.00     0.051 C
BRANCH   8   9
HETATM    9  C5  UNL     1      16.173   2.015  16.509  1.00  0.00     0.019 C
HETATM   10  C1  UNL     1      15.053   1.017  16.482  1.00  0.00     0.122 C
HETATM   11  C2  UNL     1      13.818   1.779  16.970  1.00  0.00     0.032 C
HETATM   12  C3  UNL     1      14.302   3.186  17.216  1.00  0.00     0.003 C
HETATM   13  C4  UNL     1      15.418   3.310  16.166  1.00  0.00     0.007 C
BRANCH  10  14
HETATM   14  O1  UNL     1      15.338  -0.042  17.345  1.00  0.00    -0.395 OA
ATOM     15  H1  UNL     1      15.959   0.234  18.008  1.00  0.00     0.210 HD
ENDBRANCH  10  14
ENDBRANCH   8   9
ENDBRANCH   7   8
ENDBRANCH   1   7
BRANCH   4  16
HETATM   16  C10 UNL     1      19.222   3.951   9.930  1.00  0.00     0.146 A
HETATM   17  N3  UNL     1      20.295   3.565   9.243  1.00  0.00    -0.346 N
HETATM   18  C11 UNL     1      20.585   4.149   8.127  1.00  0.00     0.097 A
ATOM     19  H3  UNL     1      20.886   2.811   9.595  1.00  0.00     0.167 HD
HETATM   20  C12 UNL     1      19.755   5.156   7.695  1.00  0.00     0.070 A
HETATM   21  S1  UNL     1      18.589   5.198   8.952  1.00  0.00    -0.065 SA
ENDBRANCH   4  16
TORSDOF 5
ENDMDL