MODEL 4
REMARK VINA RESULT: -6.670325045      1.904      3.203
REMARK  4 active torsions:
REMARK  status: ('A' for Active; 'I' for Inactive)
REMARK    1  A    between atoms: N2_5  and  C3_6
REMARK    2  A    between atoms: C3_6  and  C4_7
REMARK    3  A    between atoms: C10_15  and  C11_16
REMARK    4  A    between atoms: C11_16  and  N4_17
ROOT
HETATM    1  C1  UNL     1      19.320   5.319  14.522  1.00  0.00     0.070 C
HETATM    2  C2  UNL     1      17.971   4.705  14.362  1.00  0.00     0.036 A
HETATM    3  N1  UNL     1      16.951   4.735  15.222  1.00  0.00    -0.301 N
ATOM      4  H1  UNL     1      16.982   5.204  16.128  1.00  0.00     0.187 HD
HETATM    5  N2  UNL     1      15.907   4.093  14.767  1.00  0.00    -0.278 N
HETATM    6  C9  UNL     1      16.269   3.617  13.539  1.00  0.00     0.146 A
HETATM    7  N3  UNL     1      15.388   2.842  12.740  1.00  0.00    -0.080 NA
HETATM    8  C10 UNL     1      17.556   3.970  13.230  1.00  0.00     0.041 A
ENDROOT
BRANCH   5   9
HETATM    9  C3  UNL     1      14.621   3.909  15.429  1.00  0.00     0.155 C
BRANCH   9  10
HETATM   10  C4  UNL     1      14.604   2.790  16.413  1.00  0.00     0.010 C
HETATM   11  C5  UNL     1      15.454   1.614  16.090  1.00  0.00     0.032 C
HETATM   12  C6  UNL     1      15.203   0.551  17.168  1.00  0.00     0.168 C
HETATM   13  O1  UNL     1      15.714   1.044  18.353  1.00  0.00    -0.391 OA
HETATM   14  C7  UNL     1      14.878   2.086  18.750  1.00  0.00     0.168 C
HETATM   15  C8  UNL     1      14.930   3.253  17.818  1.00  0.00     0.032 C
ENDBRANCH   9  10
ENDBRANCH   5   9
BRANCH   8  16
HETATM   16  C11 UNL     1      18.435   3.686  12.072  1.00  0.00     0.076 C
BRANCH  16  17
HETATM   17  N4  UNL     1      19.190   2.507  12.095  1.00  0.00    -0.292 NA
HETATM   18  C12 UNL     1      18.526   1.273  11.862  1.00  0.00     0.095 C
HETATM   19  C13 UNL     1      18.679   0.949  10.391  1.00  0.00     0.016 C
HETATM   20  C14 UNL     1      19.660   2.000   9.918  1.00  0.00     0.016 C
HETATM   21  C15 UNL     1      20.275   2.549  11.169  1.00  0.00     0.095 C
ENDBRANCH  16  17
ENDBRANCH   8  16
TORSDOF 4
ENDMDL