MODEL 1
REMARK VINA RESULT: -7.279053448      0.000      0.000
REMARK  4 active torsions:
REMARK  status: ('A' for Active; 'I' for Inactive)
REMARK       I    between atoms: C1_2  and  N1_3
REMARK    1  A    between atoms: C1_2  and  C11_19
REMARK    2  A    between atoms: N1_3  and  C2_5
REMARK    3  A    between atoms: N2_7  and  C4_8
REMARK    4  A    between atoms: C4_8  and  C5_9
ROOT
HETATM    1  C2  UNL     1      19.211   4.496  13.392  1.00  0.00     0.141 A
HETATM    2  C3  UNL     1      17.892   4.126  13.202  1.00  0.00     0.161 A
HETATM    3  N2  UNL     1      17.379   3.625  14.343  1.00  0.00    -0.285 N
HETATM    4  N3  UNL     1      18.369   3.686  15.231  1.00  0.00    -0.239 N
ATOM      5  H3  UNL     1      18.294   3.379  16.201  1.00  0.00     0.208 HD
HETATM    6  N4  UNL     1      19.459   4.196  14.692  1.00  0.00    -0.270 N
ATOM      7  H4  UNL     1      20.346   4.342  15.175  1.00  0.00     0.190 HD
ENDROOT
BRANCH   1   8
HETATM    8  N1  UNL     1      20.113   5.062  12.456  1.00  0.00    -0.310 N
HETATM    9  C1  UNL     1      20.956   4.200  11.716  1.00  0.00     0.229 C
HETATM   10  O1  UNL     1      20.916   2.963  11.879  1.00  0.00    -0.273 OA
ATOM     11  H1  UNL     1      20.153   6.072  12.319  1.00  0.00     0.170 HD
BRANCH   9  12
HETATM   12  C11 UNL     1      21.898   4.772  10.740  1.00  0.00     0.104 C
HETATM   13  C12 UNL     1      21.916   3.972   9.432  1.00  0.00     0.042 C
HETATM   14  C13 UNL     1      23.344   4.257   8.968  1.00  0.00     0.168 C
HETATM   15  O2  UNL     1      24.069   4.183  10.128  1.00  0.00    -0.390 OA
HETATM   16  C14 UNL     1      23.326   4.678  11.168  1.00  0.00     0.181 C
ENDBRANCH   9  12
ENDBRANCH   1   8
BRANCH   3  17
HETATM   17  C4  UNL     1      16.060   3.130  14.584  1.00  0.00     0.154 C
BRANCH  17  18
HETATM   18  C5  UNL     1      15.775   2.836  16.020  1.00  0.00     0.005 C
HETATM   19  C6  UNL     1      15.414   1.357  16.171  1.00  0.00     0.006 C
HETATM   20  C7  UNL     1      15.175   0.995  17.608  1.00  0.00     0.000 C
HETATM   21  C8  UNL     1      15.023   2.131  18.536  1.00  0.00     0.000 C
HETATM   22  C9  UNL     1      14.481   3.390  18.002  1.00  0.00     0.000 C
HETATM   23  C10 UNL     1      14.543   3.574  16.528  1.00  0.00     0.006 C
ENDBRANCH  17  18
ENDBRANCH   3  17
TORSDOF 4
ENDMDL