MODEL 2
REMARK VINA RESULT: -7.597942612      1.650      2.852
REMARK  4 active torsions:
REMARK  status: ('A' for Active; 'I' for Inactive)
REMARK       I    between atoms: C1_2  and  N1_3
REMARK       I    between atoms: C1_2  and  N2_12
REMARK    1  A    between atoms: N1_3  and  C2_5
REMARK    2  A    between atoms: C2_5  and  C3_6
REMARK    3  A    between atoms: C3_6  and  C4_7
REMARK    4  A    between atoms: C11_16  and  C12_17
ROOT
HETATM    1  O1  UNL     1      15.788   2.494  12.441  1.00  0.00    -0.247 OA
HETATM    2  C1  UNL     1      16.403   3.457  12.937  1.00  0.00     0.319 C
HETATM    3  N1  UNL     1      15.907   4.020  14.135  1.00  0.00    -0.343 N
ATOM      4  H1  UNL     1      16.428   4.807  14.520  1.00  0.00     0.164 HD
HETATM    5  N2  UNL     1      17.560   3.915  12.252  1.00  0.00    -0.322 N
HETATM    6  C8  UNL     1      18.438   5.016  12.618  1.00  0.00     0.128 C
HETATM    7  C9  UNL     1      19.801   4.409  12.360  1.00  0.00     0.022 C
HETATM    8  C10 UNL     1      19.569   3.766  11.002  1.00  0.00     0.035 C
HETATM    9  C11 UNL     1      18.106   3.371  11.025  1.00  0.00     0.166 C
ENDROOT
BRANCH   9  10
HETATM   10  C12 UNL     1      17.934   1.909  10.916  1.00  0.00     0.171 A
HETATM   11  N3  UNL     1      18.426   0.981  11.746  1.00  0.00    -0.332 N
HETATM   12  C13 UNL     1      18.046  -0.241  11.302  1.00  0.00     0.206 A
ATOM     13  H3  UNL     1      18.992   1.163  12.574  1.00  0.00     0.168 HD
HETATM   14  N4  UNL     1      17.318  -0.005  10.190  1.00  0.00    -0.255 N
HETATM   15  O3  UNL     1      17.272   1.281   9.989  1.00  0.00    -0.221 OA
ATOM     16  H4  UNL     1      16.878  -0.715   9.605  1.00  0.00     0.195 HD
ENDBRANCH   9  10
BRANCH   3  17
HETATM   17  C2  UNL     1      14.766   3.603  14.854  1.00  0.00     0.125 C
BRANCH  17  18
HETATM   18  C3  UNL     1      14.666   4.073  16.263  1.00  0.00     0.026 C
BRANCH  18  19
HETATM   19  C4  UNL     1      14.968   2.942  17.234  1.00  0.00     0.013 C
HETATM   20  C5  UNL     1      13.939   1.839  17.075  1.00  0.00     0.033 C
HETATM   21  C6  UNL     1      14.741   0.616  17.398  1.00  0.00     0.168 C
HETATM   22  O2  UNL     1      16.064   0.960  17.462  1.00  0.00    -0.391 OA
HETATM   23  C7  UNL     1      16.225   2.190  16.834  1.00  0.00     0.172 C
ENDBRANCH  18  19
ENDBRANCH  17  18
ENDBRANCH   3  17
TORSDOF 4
ENDMDL