MODEL 3
REMARK VINA RESULT: -6.997969981      2.116      6.015
REMARK  5 active torsions:
REMARK  status: ('A' for Active; 'I' for Inactive)
REMARK    1  A    between atoms: O1_1  and  C1_3
REMARK    2  A    between atoms: C1_3  and  C2_4
REMARK    3  A    between atoms: C2_4  and  C3_5
REMARK    4  A    between atoms: C3_5  and  C4_6
REMARK    5  A    between atoms: C4_6  and  C5_7
ROOT
HETATM    1  C5  UNL     1      16.274   4.073  14.598  1.00  0.00     0.028 A
HETATM    2  C6  UNL     1      15.505   5.027  15.221  1.00  0.00     0.114 A
HETATM    3  N1  UNL     1      14.679   4.367  16.071  1.00  0.00    -0.354 N
ATOM      4  H1  UNL     1      13.985   4.802  16.678  1.00  0.00     0.166 HD
HETATM    5  C7  UNL     1      14.923   3.034  15.985  1.00  0.00     0.085 A
HETATM    6  N2  UNL     1      15.919   2.889  15.061  1.00  0.00    -0.337 N
HETATM    7  C8  UNL     1      16.485   1.611  14.665  1.00  0.00     0.156 C
HETATM    8  C9  UNL     1      17.199   1.049  15.894  1.00  0.00     0.187 C
HETATM    9  O2  UNL     1      16.476   1.259  17.044  1.00  0.00    -0.389 OA
HETATM   10  C10 UNL     1      15.166   0.836  16.983  1.00  0.00     0.175 C
HETATM   11  C11 UNL     1      14.209   2.008  16.768  1.00  0.00     0.103 C
ENDROOT
BRANCH   1  12
HETATM   12  C4  UNL     1      17.328   4.328  13.578  1.00  0.00     0.059 C
BRANCH  12  13
HETATM   13  C3  UNL     1      16.789   4.265  12.196  1.00  0.00     0.017 C
BRANCH  13  14
HETATM   14  C2  UNL     1      17.451   3.313  11.252  1.00  0.00    -0.019 C
HETATM   15  C12 UNL     1      18.716   2.824  11.925  1.00  0.00     0.011 C
HETATM   16  C13 UNL     1      19.886   2.720  10.978  1.00  0.00     0.001 C
HETATM   17  C14 UNL     1      20.260   4.055  10.379  1.00  0.00     0.000 C
HETATM   18  C15 UNL     1      19.060   4.962  10.227  1.00  0.00     0.001 C
HETATM   19  C16 UNL     1      17.801   4.149  10.007  1.00  0.00     0.011 C
BRANCH  14  20
HETATM   20  C1  UNL     1      16.612   2.192  10.744  1.00  0.00     0.173 C
BRANCH  20  21
HETATM   21  O1  UNL     1      15.319   2.133  11.185  1.00  0.00    -0.400 OA
ATOM     22  H1  UNL     1      14.799   1.390  10.902  1.00  0.00     0.209 HD
ENDBRANCH  20  21
ENDBRANCH  14  20
ENDBRANCH  13  14
ENDBRANCH  12  13
ENDBRANCH   1  12
TORSDOF 5
ENDMDL