MODEL 5
REMARK VINA RESULT: -6.902451233      2.340      2.995
REMARK  5 active torsions:
REMARK  status: ('A' for Active; 'I' for Inactive)
REMARK    1  A    between atoms: C5_6  and  O1_7
REMARK    2  A    between atoms: N2_9  and  C6_10
REMARK    3  A    between atoms: C6_10  and  C7_11
REMARK    4  A    between atoms: C7_11  and  C8_12
REMARK    5  A    between atoms: C8_12  and  N3_13
ROOT
HETATM    1  N1  UNL     1      15.179   5.436  13.275  1.00  0.00    -0.190 NA
HETATM    2  C1  UNL     1      15.340   4.441  13.866  1.00  0.00     0.118 C
HETATM    3  C2  UNL     1      15.561   3.207  14.579  1.00  0.00     0.125 A
HETATM    4  C3  UNL     1      15.265   3.001  15.896  1.00  0.00    -0.010 A
HETATM    5  C4  UNL     1      15.623   1.714  16.180  1.00  0.00     0.002 A
HETATM    6  C5  UNL     1      16.131   1.136  15.053  1.00  0.00     0.150 A
HETATM    7  N2  UNL     1      16.093   2.059  14.067  1.00  0.00    -0.318 N
HETATM    8  C13 UNL     1      15.433   1.147  17.539  1.00  0.00     0.043 C
HETATM    9  C14 UNL     1      15.027   2.172  18.551  1.00  0.00     0.005 C
HETATM   10  C15 UNL     1      13.994   3.084  17.953  1.00  0.00     0.005 C
HETATM   11  C16 UNL     1      14.666   3.934  16.907  1.00  0.00     0.042 C
ENDROOT
BRANCH   7  12
HETATM   12  C6  UNL     1      16.504   1.955  12.704  1.00  0.00     0.134 C
BRANCH  12  13
HETATM   13  C7  UNL     1      18.006   2.092  12.537  1.00  0.00     0.050 C
BRANCH  13  14
HETATM   14  C8  UNL     1      18.218   3.380  11.767  1.00  0.00     0.274 C
BRANCH  14  15
HETATM   15  N3  UNL     1      18.885   3.135  10.502  1.00  0.00     0.092 N
HETATM   16  C9  UNL     1      19.020   4.396   9.807  1.00  0.00     0.298 C
HETATM   17  C10 UNL     1      20.472   4.683   9.458  1.00  0.00     0.198 C
HETATM   18  O2  UNL     1      21.233   4.819  10.596  1.00  0.00    -0.388 OA
HETATM   19  C11 UNL     1      21.118   3.692  11.376  1.00  0.00     0.198 C
HETATM   20  C12 UNL     1      20.211   2.629  10.814  1.00  0.00     0.298 C
ENDBRANCH  14  15
ENDBRANCH  13  14
ENDBRANCH  12  13
ENDBRANCH   7  12
BRANCH   6  21
HETATM   21  O1  UNL     1      16.606  -0.155  14.916  1.00  0.00    -0.345 OA
ATOM     22  H1  UNL     1      17.354  -0.441  14.404  1.00  0.00     0.219 HD
ENDBRANCH   6  21
TORSDOF 5
ENDMDL