MODEL 4
REMARK VINA RESULT: -7.173200784      0.671      1.512
REMARK  4 active torsions:
REMARK  status: ('A' for Active; 'I' for Inactive)
REMARK    1  A    between atoms: C1_2  and  C2_3
REMARK       I    between atoms: C1_2  and  N5_19
REMARK    2  A    between atoms: C2_3  and  C3_4
REMARK    3  A    between atoms: C5_8  and  N2_9
REMARK    4  A    between atoms: N5_19  and  C11_21
ROOT
HETATM    1  C3  UNL     1      18.470   1.711  11.943  1.00  0.00     0.104 A
HETATM    2  N1  UNL     1      18.371   2.901  12.545  1.00  0.00    -0.351 N
ATOM      3  H1  UNL     1      18.962   3.668  12.226  1.00  0.00     0.166 HD
HETATM    4  C4  UNL     1      17.504   3.116  13.570  1.00  0.00     0.139 A
HETATM    5  C5  UNL     1      16.699   2.103  14.014  1.00  0.00     0.133 A
HETATM    6  N3  UNL     1      16.816   0.896  13.385  1.00  0.00    -0.283 N
ATOM      7  H3  UNL     1      16.237   0.111  13.683  1.00  0.00     0.188 HD
HETATM    8  N4  UNL     1      17.670   0.739  12.400  1.00  0.00    -0.287 N
ATOM      9  H4  UNL     1      17.728  -0.177  11.956  1.00  0.00     0.188 HD
ENDROOT
BRANCH   1  10
HETATM   10  C2  UNL     1      19.430   1.504  10.822  1.00  0.00     0.180 C
BRANCH  10  11
HETATM   11  C1  UNL     1      19.824   2.787  10.215  1.00  0.00     0.225 C
HETATM   12  O1  UNL     1      19.075   3.497   9.499  1.00  0.00    -0.273 OA
HETATM   13  N5  UNL     1      21.140   3.267  10.449  1.00  0.00    -0.356 N
ATOM     14  H5  UNL     1      21.767   2.709  11.028  1.00  0.00     0.162 HD
BRANCH  13  15
HETATM   15  C11 UNL     1      21.632   4.522   9.898  1.00  0.00     0.084 C
HETATM   16  C12 UNL     1      22.091   5.435  11.034  1.00  0.00     0.025 C
HETATM   17  C13 UNL     1      23.475   4.850  11.320  1.00  0.00     0.002 C
HETATM   18  C14 UNL     1      24.045   4.771   9.920  1.00  0.00     0.002 C
HETATM   19  C15 UNL     1      22.890   4.264   9.106  1.00  0.00     0.025 C
ENDBRANCH  13  15
ENDBRANCH  10  11
ENDBRANCH   1  10
BRANCH   5  20
HETATM   20  N2  UNL     1      15.745   2.237  15.087  1.00  0.00    -0.365 N
HETATM   21  C6  UNL     1      14.891   3.409  15.116  1.00  0.00     0.124 C
HETATM   22  C7  UNL     1      14.652   3.938  16.508  1.00  0.00     0.020 C
HETATM   23  C8  UNL     1      14.376   2.787  17.456  1.00  0.00     0.003 C
HETATM   24  C9  UNL     1      15.604   1.925  17.454  1.00  0.00     0.020 C
HETATM   25  C10 UNL     1      15.663   1.224  16.089  1.00  0.00     0.124 C
ENDBRANCH   5  20
TORSDOF 4
ENDMDL