MODEL 4
REMARK VINA RESULT: -6.331542862      2.536      4.481
REMARK  6 active torsions:
REMARK  status: ('A' for Active; 'I' for Inactive)
REMARK    1  A    between atoms: C1_2  and  O2_3
REMARK    2  A    between atoms: C1_2  and  C5_9
REMARK    3  A    between atoms: O2_3  and  C2_4
REMARK    4  A    between atoms: C2_4  and  C3_5
REMARK    5  A    between atoms: C3_5  and  C4_6
REMARK    6  A    between atoms: C4_6  and  O3_7
ROOT
HETATM    1  C5  UNL     1      16.303   1.981  14.318  1.00  0.00     0.115 C
HETATM    2  C6  UNL     1      15.647   2.636  15.520  1.00  0.00     0.025 C
HETATM    3  C7  UNL     1      16.427   3.911  15.685  1.00  0.00     0.024 C
HETATM    4  C8  UNL     1      17.841   3.411  15.335  1.00  0.00     0.040 C
HETATM    5  C9  UNL     1      17.416   2.921  13.938  1.00  0.00     0.136 C
HETATM    6  O4  UNL     1      16.837   4.063  13.410  1.00  0.00    -0.374 OA
HETATM    7  C10 UNL     1      16.196   4.738  14.439  1.00  0.00     0.066 C
HETATM    8  C11 UNL     1      14.733   4.964  14.181  1.00  0.00     0.048 C
HETATM    9  C12 UNL     1      14.433   6.224  13.438  1.00  0.00     0.077 C
HETATM   10  S1  UNL     1      15.775   6.665  12.269  1.00  0.00    -0.169 SA
HETATM   11  C13 UNL     1      17.320   6.540  13.253  1.00  0.00     0.077 C
HETATM   12  C14 UNL     1      16.851   6.109  14.645  1.00  0.00     0.048 C
ENDROOT
BRANCH   1  13
HETATM   13  C1  UNL     1      16.839   0.635  14.669  1.00  0.00     0.265 C
HETATM   14  O1  UNL     1      17.369   0.399  15.786  1.00  0.00    -0.265 OA
BRANCH  13  15
HETATM   15  O2  UNL     1      16.767  -0.407  13.764  1.00  0.00    -0.321 OA
BRANCH  15  16
HETATM   16  C2  UNL     1      17.134  -0.345  12.426  1.00  0.00     0.180 C
BRANCH  16  17
HETATM   17  C3  UNL     1      16.956  -1.602  11.643  1.00  0.00     0.053 C
BRANCH  17  18
HETATM   18  C4  UNL     1      18.280  -2.334  11.462  1.00  0.00     0.166 C
BRANCH  18  19
HETATM   19  O3  UNL     1      18.086  -3.704  11.313  1.00  0.00    -0.401 OA
ATOM     20  H3  UNL     1      17.295  -3.991  11.754  1.00  0.00     0.209 HD
ENDBRANCH  18  19
ENDBRANCH  17  18
ENDBRANCH  16  17
ENDBRANCH  15  16
ENDBRANCH  13  15
ENDBRANCH   1  13
TORSDOF 6
ENDMDL