MODEL 1
REMARK VINA RESULT: -6.361761659      0.000      0.000
REMARK  5 active torsions:
REMARK  status: ('A' for Active; 'I' for Inactive)
REMARK    1  A    between atoms: O1_1  and  C1_3
REMARK    2  A    between atoms: C1_3  and  C2_4
REMARK    3  A    between atoms: C2_4  and  N1_5
REMARK    4  A    between atoms: N3_13  and  C8_14
REMARK    5  A    between atoms: C8_14  and  C9_15
ROOT
HETATM    1  C1  UNL     1      -2.953   2.712  11.714  1.00  0.00     0.077 C
HETATM    2  C6  UNL     1      -3.713   1.476  11.371  1.00  0.00     0.070 C
HETATM    3  C7  UNL     1      -4.189   0.682  12.564  1.00  0.00     0.276 C
HETATM    4  N3  UNL     1      -4.822   1.490  13.557  1.00  0.00     0.094 N
HETATM    5  C13 UNL     1      -4.847   2.887  13.243  1.00  0.00     0.276 C
HETATM    6  C14 UNL     1      -3.466   3.394  12.956  1.00  0.00     0.070 C
ENDROOT
BRANCH   1   7
HETATM    7  O1  UNL     1      -1.589   2.475  11.892  1.00  0.00    -0.388 OA
ATOM      8  H1  UNL     1      -1.464   1.537  11.800  1.00  0.00     0.210 HD
ENDBRANCH   1   7
BRANCH   1   9
HETATM    9  C2  UNL     1      -3.072   3.725  10.564  1.00  0.00     0.167 C
BRANCH   9  10
HETATM   10  N1  UNL     1      -1.759   4.289  10.240  1.00  0.00    -0.349 N
HETATM   11  C3  UNL     1      -0.912   3.839   9.295  1.00  0.00     0.108 A
HETATM   12  C4  UNL     1       0.214   4.633   9.301  1.00  0.00     0.106 A
HETATM   13  N2  UNL     1       0.019   5.555  10.260  1.00  0.00    -0.361 N
HETATM   14  C5  UNL     1      -1.185   5.348  10.836  1.00  0.00     0.182 A
ATOM     15  H2  UNL     1       0.676   6.293  10.513  1.00  0.00     0.166 HD
ENDBRANCH   9  10
ENDBRANCH   1   9
BRANCH   4  16
HETATM   16  C8  UNL     1      -4.258   1.307  14.851  1.00  0.00     0.337 C
BRANCH  16  17
HETATM   17  C9  UNL     1      -5.190   1.569  15.976  1.00  0.00     0.080 A
HETATM   18  C10 UNL     1      -5.218   2.584  16.900  1.00  0.00     0.036 A
HETATM   19  C11 UNL     1      -6.295   2.341  17.718  1.00  0.00     0.027 A
HETATM   20  C12 UNL     1      -6.875   1.184  17.253  1.00  0.00     0.142 A
HETATM   21  O2  UNL     1      -6.194   0.779  16.242  1.00  0.00    -0.325 OA
ENDBRANCH  16  17
ENDBRANCH   4  16
TORSDOF 5
ENDMDL