MODEL 3
REMARK VINA RESULT: -6.668555237      1.471      2.023
REMARK  4 active torsions:
REMARK  status: ('A' for Active; 'I' for Inactive)
REMARK    1  A    between atoms: C3_7  and  C4_8
REMARK    2  A    between atoms: C4_8  and  N3_10
REMARK       I    between atoms: N3_10  and  C6_11
REMARK    3  A    between atoms: N3_10  and  C10_18
REMARK       I    between atoms: C6_11  and  N4_13
REMARK    4  A    between atoms: N4_13  and  C7_15
ROOT
HETATM    1  N3  UNL     1      -3.470   4.244  13.419  1.00  0.00    -0.318 N
HETATM    2  C6  UNL     1      -4.571   3.760  14.153  1.00  0.00     0.319 C
HETATM    3  O1  UNL     1      -5.542   3.213  13.514  1.00  0.00    -0.247 OA
HETATM    4  N4  UNL     1      -4.748   3.803  15.551  1.00  0.00    -0.339 N
ATOM      5  H4  UNL     1      -4.009   4.227  16.111  1.00  0.00     0.164 HD
ENDROOT
BRANCH   1   6
HETATM    6  C4  UNL     1      -3.458   4.113  11.970  1.00  0.00     0.162 C
HETATM    7  C5  UNL     1      -4.408   5.057  11.307  1.00  0.00     0.041 C
BRANCH   6   8
HETATM    8  C3  UNL     1      -3.777   2.731  11.544  1.00  0.00     0.163 A
HETATM    9  N2  UNL     1      -4.827   2.416  10.774  1.00  0.00    -0.280 N
HETATM   10  N1  UNL     1      -4.845   1.126  10.570  1.00  0.00    -0.282 N
ATOM     11  H2  UNL     1      -5.508   3.080  10.405  1.00  0.00     0.189 HD
HETATM   12  C2  UNL     1      -3.772   0.653  11.238  1.00  0.00     0.136 A
ATOM     13  H1  UNL     1      -5.522   0.593  10.026  1.00  0.00     0.189 HD
HETATM   14  C1  UNL     1      -3.407  -0.808  11.272  1.00  0.00     0.099 C
HETATM   15  O2  UNL     1      -3.132   1.616  11.821  1.00  0.00    -0.280 OA
ENDBRANCH   6   8
ENDBRANCH   1   6
BRANCH   1  16
HETATM   16  C10 UNL     1      -2.366   4.859  14.071  1.00  0.00     0.090 A
HETATM   17  C11 UNL     1      -2.558   6.390  14.226  1.00  0.00     0.027 A
HETATM   18  C12 UNL     1      -1.478   5.833  13.408  1.00  0.00     0.027 A
ENDBRANCH   1  16
BRANCH   4  19
HETATM   19  C7  UNL     1      -5.895   3.292  16.237  1.00  0.00     0.078 C
HETATM   20  C8  UNL     1      -5.564   2.166  17.194  1.00  0.00     0.032 C
HETATM   21  C9  UNL     1      -6.692   4.385  16.931  1.00  0.00     0.032 C
ENDBRANCH   4  19
TORSDOF 4
ENDMDL