MODEL 1
REMARK VINA RESULT: -6.411757547      0.000      0.000
REMARK  5 active torsions:
REMARK  status: ('A' for Active; 'I' for Inactive)
REMARK    1  A    between atoms: C4_6  and  C5_7
REMARK    2  A    between atoms: C5_7  and  N2_8
REMARK    3  A    between atoms: C5_7  and  C6_12
REMARK    4  A    between atoms: C6_12  and  N3_13
REMARK    5  A    between atoms: C9_16  and  N4_17
ROOT
HETATM    1  C5  UNL     1      -2.549   4.132  12.016  1.00  0.00     0.280 C
ENDROOT
BRANCH   1   2
HETATM    2  C4  UNL     1      -3.361   2.979  11.659  1.00  0.00     0.105 A
HETATM    3  C3  UNL     1      -4.437   2.924  10.804  1.00  0.00     0.125 A
HETATM    4  N1  UNL     1      -4.864   1.654  10.784  1.00  0.00    -0.348 N
HETATM    5  C2  UNL     1      -4.057   0.969  11.610  1.00  0.00     0.119 A
ATOM      6  H1  UNL     1      -5.647   1.282  10.247  1.00  0.00     0.167 HD
HETATM    7  C1  UNL     1      -4.112  -0.495  11.939  1.00  0.00     0.098 C
HETATM    8  O1  UNL     1      -3.158   1.772  12.130  1.00  0.00    -0.299 OA
ENDBRANCH   1   2
BRANCH   1   9
HETATM    9  N2  UNL     1      -1.901   4.650  10.817  1.00  0.00    -0.065 N
ATOM     10  H23 UNL     1      -0.886   4.550  10.850  1.00  0.00     0.275 HD
ATOM     11  H22 UNL     1      -2.076   4.066   9.999  1.00  0.00     0.275 HD
ATOM     12  H21 UNL     1      -2.191   5.617  10.672  1.00  0.00     0.275 HD
ENDBRANCH   1   9
BRANCH   1  13
HETATM   13  C6  UNL     1      -3.225   5.281  12.676  1.00  0.00     0.102 C
BRANCH  13  14
HETATM   14  N3  UNL     1      -3.784   5.098  13.942  1.00  0.00    -0.371 N
HETATM   15  C7  UNL     1      -3.141   4.322  14.907  1.00  0.00     0.065 C
HETATM   16  C8  UNL     1      -4.128   3.652  15.838  1.00  0.00     0.080 C
HETATM   17  C9  UNL     1      -5.234   2.940  15.110  1.00  0.00     0.229 C
HETATM   18  C13 UNL     1      -5.882   3.854  14.141  1.00  0.00     0.056 C
HETATM   19  C14 UNL     1      -5.204   5.208  14.015  1.00  0.00     0.129 C
BRANCH  17  20
HETATM   20  N4  UNL     1      -6.131   2.431  16.125  1.00  0.00     0.093 N
HETATM   21  C10 UNL     1      -5.503   1.541  17.087  1.00  0.00     0.274 C
HETATM   22  C11 UNL     1      -6.393   2.157  18.145  1.00  0.00     0.060 C
HETATM   23  C12 UNL     1      -6.551   3.311  17.160  1.00  0.00     0.274 C
ENDBRANCH  17  20
ENDBRANCH  13  14
ENDBRANCH   1  13
TORSDOF 5
ENDMDL