MODEL 3
REMARK VINA RESULT: -6.871212853      1.997      3.703
REMARK  4 active torsions:
REMARK  status: ('A' for Active; 'I' for Inactive)
REMARK    1  A    between atoms: C2_5  and  C3_6
REMARK    2  A    between atoms: C3_6  and  C4_7
REMARK    3  A    between atoms: C4_7  and  C5_8
REMARK    4  A    between atoms: C10_15  and  C11_16
ROOT
HETATM    1  C1  UNL     1      -4.034   5.264  10.759  1.00  0.00     0.179 C
HETATM    2  N1  UNL     1      -4.238   4.673  12.060  1.00  0.00    -0.281 N
HETATM    3  N2  UNL     1      -4.497   5.361  13.157  1.00  0.00    -0.286 N
ATOM      4  H2  UNL     1      -4.582   6.376  13.212  1.00  0.00     0.188 HD
HETATM    5  C2  UNL     1      -4.627   4.526  14.172  1.00  0.00     0.097 A
HETATM    6  N3  UNL     1      -4.439   3.286  13.663  1.00  0.00    -0.331 N
ATOM      7  H3  UNL     1      -4.476   2.420  14.201  1.00  0.00     0.168 HD
HETATM    8  C10 UNL     1      -4.195   3.365  12.348  1.00  0.00     0.130 A
ENDROOT
BRANCH   8   9
HETATM    9  C11 UNL     1      -3.939   2.244  11.433  1.00  0.00     0.216 C
HETATM   10  C12 UNL     1      -2.466   1.929  11.301  1.00  0.00     0.272 C
HETATM   11  N4  UNL     1      -2.326   0.492  11.153  1.00  0.00    -0.070 N
HETATM   12  C13 UNL     1      -3.290  -0.040  10.215  1.00  0.00     0.258 C
ATOM     13  H42 UNL     1      -1.373   0.234  10.897  1.00  0.00     0.277 HD
ATOM     14  H41 UNL     1      -2.381   0.017  12.054  1.00  0.00     0.277 HD
HETATM   15  C14 UNL     1      -4.718   0.280  10.629  1.00  0.00     0.196 C
HETATM   16  O1  UNL     1      -4.637   1.085  11.770  1.00  0.00    -0.375 OA
ENDBRANCH   8   9
BRANCH   5  17
HETATM   17  C3  UNL     1      -4.917   4.750  15.604  1.00  0.00     0.078 C
BRANCH  17  18
HETATM   18  C4  UNL     1      -6.327   4.467  15.998  1.00  0.00     0.012 C
BRANCH  18  19
HETATM   19  C5  UNL     1      -6.407   3.459  17.085  1.00  0.00    -0.014 C
HETATM   20  C6  UNL     1      -7.502   2.460  16.675  1.00  0.00     0.004 C
HETATM   21  C7  UNL     1      -7.018   1.111  17.113  1.00  0.00     0.000 C
HETATM   22  C8  UNL     1      -5.732   1.366  17.904  1.00  0.00     0.000 C
HETATM   23  C9  UNL     1      -5.169   2.560  17.122  1.00  0.00     0.004 C
ENDBRANCH  18  19
ENDBRANCH  17  18
ENDBRANCH   5  17
TORSDOF 4
ENDMDL