MODEL 5
REMARK VINA RESULT: -6.531018744      2.116      5.083
REMARK  4 active torsions:
REMARK  status: ('A' for Active; 'I' for Inactive)
REMARK    1  A    between atoms: C3_6  and  C4_7
REMARK    2  A    between atoms: C4_7  and  N3_8
REMARK    3  A    between atoms: N4_14  and  C9_15
REMARK    4  A    between atoms: C9_15  and  C10_16
ROOT
HETATM    1  N1  UNL     1      -1.929   4.947  12.149  1.00  0.00    -0.081 NA
HETATM    2  C1  UNL     1      -2.915   4.854  13.158  1.00  0.00     0.139 A
HETATM    3  C2  UNL     1      -2.925   5.694  14.261  1.00  0.00     0.135 A
HETATM    4  N2  UNL     1      -3.980   5.327  14.994  1.00  0.00    -0.351 N
ATOM      5  H2  UNL     1      -4.271   5.749  15.876  1.00  0.00     0.166 HD
HETATM    6  C3  UNL     1      -4.587   4.315  14.372  1.00  0.00     0.117 A
HETATM    7  N4  UNL     1      -3.952   4.006  13.243  1.00  0.00    -0.301 N
ENDROOT
BRANCH   6   8
HETATM    8  C4  UNL     1      -5.817   3.640  14.930  1.00  0.00     0.349 C
BRANCH   8   9
HETATM    9  N3  UNL     1      -5.479   2.945  16.158  1.00  0.00     0.099 N
HETATM   10  C5  UNL     1      -6.667   2.932  17.024  1.00  0.00     0.299 C
HETATM   11  C6  UNL     1      -7.558   1.774  16.708  1.00  0.00     0.198 C
HETATM   12  O1  UNL     1      -6.925   0.621  17.183  1.00  0.00    -0.388 OA
HETATM   13  C7  UNL     1      -5.547   0.723  17.079  1.00  0.00     0.198 C
HETATM   14  C8  UNL     1      -5.135   1.555  15.882  1.00  0.00     0.299 C
ENDBRANCH   8   9
ENDBRANCH   6   8
BRANCH   7  15
HETATM   15  C9  UNL     1      -4.275   2.991  12.322  1.00  0.00     0.077 C
BRANCH  15  16
HETATM   16  C10 UNL     1      -3.457   1.779  12.237  1.00  0.00     0.025 C
HETATM   17  C11 UNL     1      -4.414   0.575  12.347  1.00  0.00     0.010 C
HETATM   18  C12 UNL     1      -3.867  -0.476  11.443  1.00  0.00     0.001 C
HETATM   19  C13 UNL     1      -2.488   0.017  11.070  1.00  0.00     0.001 C
HETATM   20  C14 UNL     1      -2.758   1.526  10.931  1.00  0.00     0.010 C
ENDBRANCH  15  16
ENDBRANCH   7  15
TORSDOF 4
ENDMDL