MODEL 5
REMARK VINA RESULT: -6.547351858      1.121      1.460
REMARK  3 active torsions:
REMARK  status: ('A' for Active; 'I' for Inactive)
REMARK       I    between atoms: C1_2  and  N1_3
REMARK    1  A    between atoms: C1_2  and  C7_11
REMARK    2  A    between atoms: N1_3  and  N2_5
REMARK    3  A    between atoms: N4_15  and  C9_16
ROOT
HETATM    1  C7  UNL     1      -3.313   3.302  12.292  1.00  0.00     0.191 A
HETATM    2  N3  UNL     1      -3.096   2.603  11.162  1.00  0.00    -0.332 N
ATOM      3  H3  UNL     1      -3.620   1.788  10.846  1.00  0.00     0.168 HD
HETATM    4  C8  UNL     1      -2.042   3.188  10.517  1.00  0.00     0.202 A
HETATM    5  N4  UNL     1      -1.634   4.221  11.247  1.00  0.00    -0.281 N
HETATM    6  N5  UNL     1      -2.407   4.282  12.315  1.00  0.00    -0.277 N
ATOM      7  H5  UNL     1      -2.323   4.980  13.054  1.00  0.00     0.189 HD
ENDROOT
BRANCH   1   8
HETATM    8  C1  UNL     1      -4.345   2.999  13.306  1.00  0.00     0.301 C
HETATM    9  O1  UNL     1      -5.526   3.257  12.962  1.00  0.00    -0.263 OA
HETATM   10  N1  UNL     1      -4.027   2.462  14.568  1.00  0.00    -0.282 N
ATOM     11  H1  UNL     1      -3.062   2.255  14.825  1.00  0.00     0.184 HD
BRANCH  10  12
HETATM   12  N2  UNL     1      -5.069   2.224  15.450  1.00  0.00    -0.229 NA
HETATM   13  C2  UNL     1      -5.131   0.897  15.991  1.00  0.00     0.113 C
HETATM   14  C3  UNL     1      -6.037   0.972  17.225  1.00  0.00     0.016 C
HETATM   15  C4  UNL     1      -7.154   1.959  17.061  1.00  0.00     0.002 C
HETATM   16  C5  UNL     1      -6.676   3.369  16.751  1.00  0.00     0.016 C
HETATM   17  C6  UNL     1      -5.171   3.230  16.500  1.00  0.00     0.113 C
ENDBRANCH  10  12
ENDBRANCH   1   8
BRANCH   5  18
HETATM   18  C9  UNL     1      -0.517   5.100  10.918  1.00  0.00     0.109 C
HETATM   19  C10 UNL     1       0.756   4.320  10.760  1.00  0.00     0.027 C
HETATM   20  C11 UNL     1       1.849   5.286  11.165  1.00  0.00     0.002 C
HETATM   21  C12 UNL     1       1.168   6.444  11.843  1.00  0.00     0.002 C
HETATM   22  C13 UNL     1      -0.204   5.921  12.181  1.00  0.00     0.027 C
ENDBRANCH   5  18
TORSDOF 3
ENDMDL