MODEL 3
REMARK VINA RESULT: -6.796266716      1.221      1.310
REMARK  5 active torsions:
REMARK  status: ('A' for Active; 'I' for Inactive)
REMARK    1  A    between atoms: O1_1  and  C1_3
REMARK    2  A    between atoms: C1_3  and  C2_4
REMARK    3  A    between atoms: C2_4  and  N1_5
REMARK    4  A    between atoms: C6_11  and  C7_12
REMARK    5  A    between atoms: C7_12  and  C8_13
ROOT
HETATM    1  N1  UNL     1      -3.501   5.262   9.598  1.00  0.00    -0.186 NA
HETATM    2  C3  UNL     1      -2.156   4.789   9.496  1.00  0.00     0.127 C
HETATM    3  C4  UNL     1      -1.737   4.420  10.926  1.00  0.00     0.079 C
HETATM    4  C5  UNL     1      -2.852   3.701  11.595  1.00  0.00     0.072 A
HETATM    5  N2  UNL     1      -2.884   3.031  12.783  1.00  0.00    -0.339 N
ATOM      6  H2  UNL     1      -2.098   2.924  13.425  1.00  0.00     0.167 HD
HETATM    7  C6  UNL     1      -4.116   2.537  12.970  1.00  0.00     0.127 A
HETATM    8  O2  UNL     1      -4.835   2.895  11.917  1.00  0.00    -0.272 OA
HETATM    9  C14 UNL     1      -4.122   3.582  11.087  1.00  0.00     0.229 A
HETATM   10  O3  UNL     1      -4.350   4.206   9.839  1.00  0.00    -0.234 OA
ENDROOT
BRANCH   7  11
HETATM   11  C7  UNL     1      -4.558   1.749  14.142  1.00  0.00     0.089 C
BRANCH  11  12
HETATM   12  C8  UNL     1      -4.639   2.647  15.345  1.00  0.00    -0.007 C
HETATM   13  C9  UNL     1      -4.629   1.797  16.602  1.00  0.00     0.005 C
HETATM   14  C10 UNL     1      -5.989   1.205  16.801  1.00  0.00     0.000 C
HETATM   15  C11 UNL     1      -6.972   2.298  17.190  1.00  0.00     0.000 C
HETATM   16  C12 UNL     1      -6.525   3.645  16.653  1.00  0.00     0.000 C
HETATM   17  C13 UNL     1      -5.895   3.494  15.279  1.00  0.00     0.005 C
ENDBRANCH  11  12
ENDBRANCH   7  11
BRANCH   1  18
HETATM   18  C2  UNL     1      -3.940   6.207   8.655  1.00  0.00     0.147 C
BRANCH  18  19
HETATM   19  C1  UNL     1      -5.048   7.119   9.037  1.00  0.00     0.181 C
BRANCH  19  20
HETATM   20  O1  UNL     1      -6.127   6.429   9.576  1.00  0.00    -0.400 OA
ATOM     21  H1  UNL     1      -6.695   6.997  10.083  1.00  0.00     0.209 HD
ENDBRANCH  19  20
ENDBRANCH  18  19
ENDBRANCH   1  18
TORSDOF 5
ENDMDL