MODEL 5
REMARK VINA RESULT: -7.040212629      2.004      3.461
REMARK  4 active torsions:
REMARK  status: ('A' for Active; 'I' for Inactive)
REMARK    1  A    between atoms: N2_6  and  C4_7
REMARK    2  A    between atoms: C4_7  and  C5_8
REMARK    3  A    between atoms: C5_8  and  C6_9
REMARK       I    between atoms: C6_9  and  N3_11
REMARK    4  A    between atoms: N3_11  and  C7_13
ROOT
HETATM    1  C7  UNL     1      -4.720   2.730  15.095  1.00  0.00     0.122 C
HETATM    2  C8  UNL     1      -4.044   4.029  15.221  1.00  0.00     0.091 C
HETATM    3  N4  UNL     1      -3.517   5.063  15.319  1.00  0.00    -0.195 NA
HETATM    4  C9  UNL     1      -6.213   2.983  15.165  1.00  0.00     0.046 C
HETATM    5  C10 UNL     1      -6.567   3.767  16.416  1.00  0.00     0.004 C
HETATM    6  C11 UNL     1      -5.903   3.167  17.641  1.00  0.00     0.000 C
HETATM    7  C12 UNL     1      -5.356   1.783  17.342  1.00  0.00     0.004 C
HETATM    8  C13 UNL     1      -4.290   1.908  16.299  1.00  0.00     0.046 C
ENDROOT
BRANCH   1   9
HETATM    9  N3  UNL     1      -4.337   2.108  13.856  1.00  0.00    -0.339 N
HETATM   10  C6  UNL     1      -4.384   0.725  13.611  1.00  0.00     0.220 C
HETATM   11  O1  UNL     1      -4.784  -0.053  14.514  1.00  0.00    -0.274 OA
ATOM     12  H3  UNL     1      -4.007   2.713  13.104  1.00  0.00     0.164 HD
BRANCH  10  13
HETATM   13  C5  UNL     1      -3.979   0.132  12.317  1.00  0.00     0.124 C
BRANCH  13  14
HETATM   14  C4  UNL     1      -4.279   1.024  11.151  1.00  0.00     0.159 C
BRANCH  14  15
HETATM   15  N2  UNL     1      -3.100   1.845  10.910  1.00  0.00    -0.286 N
HETATM   16  C3  UNL     1      -1.803   1.497  10.918  1.00  0.00     0.201 A
HETATM   17  N1  UNL     1      -1.089   2.611  10.638  1.00  0.00    -0.340 N
HETATM   18  C2  UNL     1      -1.920   3.629  10.460  1.00  0.00     0.092 A
ATOM     19  H1  UNL     1      -0.072   2.659  10.573  1.00  0.00     0.168 HD
HETATM   20  C1  UNL     1      -1.553   5.024  10.138  1.00  0.00     0.090 C
HETATM   21  N5  UNL     1      -3.164   3.154  10.629  1.00  0.00    -0.286 N
ATOM     22  H5  UNL     1      -4.021   3.702  10.555  1.00  0.00     0.188 HD
ENDBRANCH  14  15
ENDBRANCH  13  14
ENDBRANCH  10  13
ENDBRANCH   1   9
TORSDOF 4
ENDMDL