MODEL 5
REMARK VINA RESULT: -5.673995015      1.588      1.796
REMARK  7 active torsions:
REMARK  status: ('A' for Active; 'I' for Inactive)
REMARK    1  A    between atoms: C2_2  and  C3_3
REMARK    2  A    between atoms: C3_3  and  S1_4
REMARK    3  A    between atoms: S1_4  and  C4_5
REMARK    4  A    between atoms: N2_10  and  C7_11
REMARK    5  A    between atoms: C7_11  and  C8_12
REMARK    6  A    between atoms: C9_13  and  C10_14
REMARK    7  A    between atoms: C10_14  and  N3_15
ROOT
HETATM    1  C4  UNL     1      -4.604   2.494  14.731  1.00  0.00     0.148 A
HETATM    2  N1  UNL     1      -4.163   1.318  14.212  1.00  0.00    -0.337 N
ATOM      3  H1  UNL     1      -3.966   0.473  14.749  1.00  0.00     0.168 HD
HETATM    4  C5  UNL     1      -4.028   1.444  12.895  1.00  0.00     0.058 A
HETATM    5  C6  UNL     1      -4.405   2.759  12.609  1.00  0.00     0.041 A
HETATM    6  N2  UNL     1      -4.755   3.389  13.742  1.00  0.00    -0.318 N
HETATM    7  C11 UNL     1      -4.325   3.119  11.162  1.00  0.00     0.085 C
HETATM    8  C12 UNL     1      -2.986   2.596  10.686  1.00  0.00     0.174 C
HETATM    9  O1  UNL     1      -2.824   1.245  10.824  1.00  0.00    -0.385 OA
HETATM   10  C13 UNL     1      -3.616   0.619  11.747  1.00  0.00     0.226 C
ENDROOT
BRANCH   6  11
HETATM   11  C7  UNL     1      -5.198   4.741  13.861  1.00  0.00     0.225 C
BRANCH  11  12
HETATM   12  C8  UNL     1      -4.021   5.600  14.028  1.00  0.00    -0.085 C
HETATM   13  C9  UNL     1      -3.055   6.314  14.148  1.00  0.00    -0.078 C
BRANCH  13  14
HETATM   14  C10 UNL     1      -1.883   7.206  14.290  1.00  0.00     0.323 C
BRANCH  14  15
HETATM   15  N3  UNL     1      -2.243   8.412  15.018  1.00  0.00    -0.069 N
ATOM     16  H33 UNL     1      -2.168   9.244  14.434  1.00  0.00     0.275 HD
ATOM     17  H32 UNL     1      -3.243   8.453  15.214  1.00  0.00     0.275 HD
ATOM     18  H31 UNL     1      -1.688   8.498  15.870  1.00  0.00     0.275 HD
ENDBRANCH  14  15
ENDBRANCH  13  14
ENDBRANCH  11  12
ENDBRANCH   6  11
BRANCH   1  19
HETATM   19  S1  UNL     1      -4.944   2.850  16.445  1.00  0.00    -0.094 SA
BRANCH  19  20
HETATM   20  C3  UNL     1      -6.740   2.916  16.678  1.00  0.00     0.082 C
BRANCH  20  21
HETATM   21  C2  UNL     1      -7.274   1.543  17.061  1.00  0.00     0.006 C
HETATM   22  C1  UNL     1      -6.161   0.692  17.577  1.00  0.00     0.006 C
ENDBRANCH  20  21
ENDBRANCH  19  20
ENDBRANCH   1  19
TORSDOF 7
ENDMDL