MODEL 4
REMARK VINA RESULT: -6.811852280      1.951      3.713
REMARK  5 active torsions:
REMARK  status: ('A' for Active; 'I' for Inactive)
REMARK    1  A    between atoms: C4_4  and  N1_5
REMARK    2  A    between atoms: C6_9  and  C7_10
REMARK    3  A    between atoms: C7_10  and  N4_12
REMARK    4  A    between atoms: N4_12  and  C8_14
REMARK    5  A    between atoms: C8_14  and  C9_15
ROOT
HETATM    1  C9  UNL     1      -4.370   0.312  10.774  1.00  0.00     0.143 C
HETATM    2  C10 UNL     1      -4.789   1.709  10.795  1.00  0.00     0.060 C
HETATM    3  N5  UNL     1      -5.119   2.829  10.832  1.00  0.00    -0.197 NA
ENDROOT
BRANCH   1   4
HETATM    4  C8  UNL     1      -4.268  -0.264  12.178  1.00  0.00     0.135 C
BRANCH   4   5
HETATM    5  N4  UNL     1      -3.807   0.769  13.049  1.00  0.00    -0.375 N
ATOM      6  H4  UNL     1      -2.979   1.292  12.765  1.00  0.00     0.160 HD
BRANCH   5   7
HETATM    7  C7  UNL     1      -4.363   1.087  14.167  1.00  0.00     0.158 C
HETATM    8  N3  UNL     1      -4.752   0.135  15.146  1.00  0.00    -0.079 NA
BRANCH   7   9
HETATM    9  C6  UNL     1      -4.610   2.499  14.458  1.00  0.00     0.162 A
HETATM   10  N2  UNL     1      -5.364   3.010  15.468  1.00  0.00    -0.334 N
HETATM   11  C5  UNL     1      -5.362   4.354  15.420  1.00  0.00     0.202 A
ATOM     12  H2  UNL     1      -5.860   2.453  16.163  1.00  0.00     0.168 HD
HETATM   13  N1  UNL     1      -4.594   4.689  14.362  1.00  0.00    -0.280 N
HETATM   14  N6  UNL     1      -4.152   3.578  13.798  1.00  0.00    -0.279 N
ATOM     15  H6  UNL     1      -3.548   3.543  12.976  1.00  0.00     0.189 HD
BRANCH  13  16
HETATM   16  C4  UNL     1      -4.357   6.068  13.993  1.00  0.00     0.126 A
HETATM   17  C2  UNL     1      -2.964   6.557  14.234  1.00  0.00    -0.015 A
HETATM   18  C1  UNL     1      -2.874   7.890  14.929  1.00  0.00     0.018 C
HETATM   19  C3  UNL     1      -1.859   5.579  14.551  1.00  0.00     0.018 C
HETATM   20  C11 UNL     1      -3.524   6.453  12.861  1.00  0.00    -0.015 A
HETATM   21  C12 UNL     1      -3.803   7.787  12.191  1.00  0.00     0.018 C
HETATM   22  C13 UNL     1      -3.016   5.399  11.920  1.00  0.00     0.018 C
ENDBRANCH  13  16
ENDBRANCH   7   9
ENDBRANCH   5   7
ENDBRANCH   4   5
ENDBRANCH   1   4
TORSDOF 5
ENDMDL