MODEL 2
REMARK VINA RESULT: -4.705197875      1.890      3.377
REMARK  2 active torsions:
REMARK  status: ('A' for Active; 'I' for Inactive)
REMARK    1  A    between atoms: C3_6  and  O3_7
REMARK    2  A    between atoms: C4_9  and  O4_10
ROOT
HETATM    1  O1  UNL     1       2.428  -6.767  26.551  1.00  0.00    -0.228 OA
HETATM    2  S1  UNL     1       3.200  -8.071  26.537  1.00  0.00     0.147 S
HETATM    3  O2  UNL     1       2.222  -9.136  26.132  1.00  0.00    -0.228 OA
HETATM    4  C1  UNL     1       4.608  -8.002  25.509  1.00  0.00     0.143 C
HETATM    5  C2  UNL     1       5.923  -8.178  26.167  1.00  0.00     0.049 C
HETATM    6  C3  UNL     1       6.103  -7.838  27.568  1.00  0.00     0.148 C
HETATM    7  C4  UNL     1       4.918  -7.539  28.412  1.00  0.00     0.160 C
HETATM    8  C5  UNL     1       3.741  -8.444  28.177  1.00  0.00     0.174 C
ENDROOT
BRANCH   7   9
HETATM    9  O4  UNL     1       5.267  -7.697  29.756  1.00  0.00    -0.392 OA
ATOM     10  H4  UNL     1       5.869  -8.428  29.834  1.00  0.00     0.210 HD
ENDBRANCH   7   9
BRANCH   6  11
HETATM   11  O3  UNL     1       6.941  -6.699  27.715  1.00  0.00    -0.393 OA
ATOM     12  H3  UNL     1       6.430  -5.922  27.908  1.00  0.00     0.210 HD
ENDBRANCH   6  11
TORSDOF 2
ENDMDL