MODEL 3
REMARK VINA RESULT: -4.549097902      1.897      3.060
REMARK  2 active torsions:
REMARK  status: ('A' for Active; 'I' for Inactive)
REMARK    1  A    between atoms: N1_1  and  C1_5
REMARK    2  A    between atoms: C5_10  and  O2_11
ROOT
HETATM    1  C1  UNL     1       3.502  -2.291  21.881  1.00  0.00     0.217 C
HETATM    2  C2  UNL     1       3.789  -3.598  21.184  1.00  0.00     0.068 C
HETATM    3  C3  UNL     1       2.486  -4.319  21.328  1.00  0.00     0.133 C
HETATM    4  O1  UNL     1       1.672  -3.524  22.161  1.00  0.00    -0.375 OA
HETATM    5  C4  UNL     1       1.992  -2.224  21.715  1.00  0.00     0.183 C
HETATM    6  C5  UNL     1       1.559  -1.965  20.320  1.00  0.00     0.178 C
HETATM    7  C6  UNL     1       1.293  -3.164  19.485  1.00  0.00     0.161 C
HETATM    8  O3  UNL     1       2.236  -3.351  18.446  1.00  0.00    -0.382 OA
HETATM    9  C7  UNL     1       2.460  -4.688  18.799  1.00  0.00     0.178 C
HETATM   10  C8  UNL     1       1.720  -4.460  20.053  1.00  0.00     0.070 C
ENDROOT
BRANCH   1  11
HETATM   11  N1  UNL     1       4.194  -1.176  21.377  1.00  0.00    -0.072 N
ATOM     12  H13 UNL     1       4.836  -0.814  22.081  1.00  0.00     0.274 HD
ATOM     13  H12 UNL     1       4.860  -1.470  20.662  1.00  0.00     0.274 HD
ATOM     14  H11 UNL     1       3.606  -0.423  21.018  1.00  0.00     0.274 HD
ENDBRANCH   1  11
BRANCH   6  15
HETATM   15  O2  UNL     1       2.442  -1.137  19.615  1.00  0.00    -0.390 OA
ATOM     16  H2  UNL     1       3.222  -1.592  19.319  1.00  0.00     0.210 HD
ENDBRANCH   6  15
TORSDOF 2
ENDMDL