MODEL 2
REMARK VINA RESULT: -4.969516690      1.497      2.958
REMARK  3 active torsions:
REMARK  status: ('A' for Active; 'I' for Inactive)
REMARK    1  A    between atoms: O1_1  and  C1_3
REMARK    2  A    between atoms: C1_3  and  C2_4
REMARK    3  A    between atoms: C4_6  and  O2_7
ROOT
HETATM    1  C2  UNL     1       3.875  -7.947  27.407  1.00  0.00     0.150 C
HETATM    2  C3  UNL     1       4.416  -7.804  26.009  1.00  0.00     0.102 C
HETATM    3  C4  UNL     1       5.913  -7.541  26.142  1.00  0.00     0.166 C
HETATM    4  C5  UNL     1       6.453  -8.823  26.794  1.00  0.00     0.102 C
HETATM    5  C6  UNL     1       5.955  -8.553  28.217  1.00  0.00     0.151 C
HETATM    6  C7  UNL     1       6.207  -7.065  28.309  1.00  0.00     0.203 C
HETATM    7  O3  UNL     1       6.077  -6.536  27.053  1.00  0.00    -0.353 OA
HETATM    8  O4  UNL     1       4.601  -8.770  28.215  1.00  0.00    -0.376 OA
ENDROOT
BRANCH   1   9
HETATM    9  C1  UNL     1       2.494  -8.602  27.258  1.00  0.00     0.196 C
BRANCH   9  10
HETATM   10  O1  UNL     1       2.468  -9.649  28.194  1.00  0.00    -0.398 OA
ATOM     11  H1  UNL     1       1.977 -10.350  27.782  1.00  0.00     0.209 HD
ENDBRANCH   9  10
ENDBRANCH   1   9
BRANCH   3  12
HETATM   12  O2  UNL     1       6.516  -7.263  24.952  1.00  0.00    -0.365 OA
ATOM     13  H2  UNL     1       6.485  -7.989  24.340  1.00  0.00     0.213 HD
ENDBRANCH   3  12
TORSDOF 3
ENDMDL