MODEL 2
REMARK VINA RESULT: -4.706900636      1.803      1.996
REMARK  2 active torsions:
REMARK  status: ('A' for Active; 'I' for Inactive)
REMARK    1  A    between atoms: C2_5  and  O3_6
REMARK    2  A    between atoms: C4_9  and  O4_10
ROOT
HETATM    1  O1  UNL     1       3.068  -6.716  26.547  1.00  0.00    -0.228 OA
HETATM    2  S1  UNL     1       3.592  -8.135  26.617  1.00  0.00     0.149 S
HETATM    3  O2  UNL     1       3.060  -8.959  25.513  1.00  0.00    -0.228 OA
HETATM    4  C1  UNL     1       3.192  -8.798  28.227  1.00  0.00     0.172 C
HETATM    5  C2  UNL     1       4.512  -8.787  29.010  1.00  0.00     0.134 C
HETATM    6  C3  UNL     1       5.013  -7.358  28.967  1.00  0.00     0.065 C
HETATM    7  C4  UNL     1       5.734  -7.032  27.694  1.00  0.00     0.134 C
HETATM    8  C5  UNL     1       5.379  -7.996  26.564  1.00  0.00     0.172 C
ENDROOT
BRANCH   5   9
HETATM    9  O3  UNL     1       4.281  -9.226  30.294  1.00  0.00    -0.395 OA
ATOM     10  H3  UNL     1       4.037  -8.487  30.839  1.00  0.00     0.210 HD
ENDBRANCH   5   9
BRANCH   7  11
HETATM   11  O4  UNL     1       7.092  -6.915  27.878  1.00  0.00    -0.395 OA
ATOM     12  H4  UNL     1       7.429  -6.085  27.562  1.00  0.00     0.210 HD
ENDBRANCH   7  11
TORSDOF 2
ENDMDL