MODEL 5
REMARK VINA RESULT: -4.492447620      2.240      3.422
REMARK  2 active torsions:
REMARK  status: ('A' for Active; 'I' for Inactive)
REMARK    1  A    between atoms: N1_1  and  C1_5
REMARK    2  A    between atoms: C8_14  and  O3_15
ROOT
HETATM    1  C1  UNL     1       3.442  -2.459  22.486  1.00  0.00     0.236 C
HETATM    2  C2  UNL     1       3.779  -1.499  21.382  1.00  0.00     0.203 C
HETATM    3  O1  UNL     1       2.553  -1.140  20.786  1.00  0.00    -0.389 OA
HETATM    4  C3  UNL     1       2.430  -1.889  19.651  1.00  0.00     0.174 C
HETATM    5  C4  UNL     1       1.817  -3.225  19.813  1.00  0.00     0.042 C
HETATM    6  C5  UNL     1       2.534  -4.331  19.082  1.00  0.00     0.174 C
HETATM    7  O2  UNL     1       2.333  -5.499  19.764  1.00  0.00    -0.390 OA
HETATM    8  C6  UNL     1       1.476  -5.247  20.829  1.00  0.00     0.175 C
HETATM    9  C7  UNL     1       1.720  -3.766  21.187  1.00  0.00     0.048 C
HETATM   10  C8  UNL     1       2.945  -3.783  22.004  1.00  0.00     0.157 C
ENDROOT
BRANCH   1  11
HETATM   11  N1  UNL     1       2.551  -1.806  23.401  1.00  0.00    -0.070 N
ATOM     12  H13 UNL     1       3.030  -1.133  24.001  1.00  0.00     0.274 HD
ATOM     13  H12 UNL     1       1.920  -1.155  22.935  1.00  0.00     0.274 HD
ATOM     14  H11 UNL     1       2.054  -2.520  23.933  1.00  0.00     0.274 HD
ENDBRANCH   1  11
BRANCH  10  15
HETATM   15  O3  UNL     1       3.942  -4.474  21.345  1.00  0.00    -0.393 OA
ATOM     16  H3  UNL     1       3.607  -5.282  20.974  1.00  0.00     0.210 HD
ENDBRANCH  10  15
TORSDOF 2
ENDMDL