MODEL 1
REMARK VINA RESULT: -5.032081812      0.000      0.000
REMARK  2 active torsions:
REMARK  status: ('A' for Active; 'I' for Inactive)
REMARK    1  A    between atoms: O1_1  and  C1_3
REMARK    2  A    between atoms: C6_10  and  O4_11
ROOT
HETATM    1  C1  UNL     1       6.379  -8.749  28.587  1.00  0.00     0.145 C
HETATM    2  C2  UNL     1       6.232  -7.283  28.820  1.00  0.00     0.200 C
HETATM    3  O2  UNL     1       5.770  -6.685  27.683  1.00  0.00    -0.373 OA
HETATM    4  C3  UNL     1       5.565  -7.628  26.712  1.00  0.00     0.112 C
HETATM    5  C4  UNL     1       5.946  -7.186  25.327  1.00  0.00     0.208 C
HETATM    6  O3  UNL     1       4.799  -6.614  24.842  1.00  0.00    -0.385 OA
HETATM    7  C5  UNL     1       3.715  -7.345  25.296  1.00  0.00     0.202 C
HETATM    8  C6  UNL     1       4.110  -7.945  26.629  1.00  0.00     0.178 C
HETATM    9  C7  UNL     1       6.424  -8.823  27.062  1.00  0.00     0.077 C
ENDROOT
BRANCH   8  10
HETATM   10  O4  UNL     1       3.390  -7.283  27.626  1.00  0.00    -0.390 OA
ATOM     11  H4  UNL     1       2.535  -7.678  27.754  1.00  0.00     0.210 HD
ENDBRANCH   8  10
BRANCH   1  12
HETATM   12  O1  UNL     1       5.269  -9.491  28.978  1.00  0.00    -0.393 OA
ATOM     13  H1  UNL     1       5.167  -9.559  29.920  1.00  0.00     0.210 HD
ENDBRANCH   1  12
TORSDOF 2
ENDMDL