MODEL 2
REMARK VINA RESULT: -4.753940898      7.733      9.085
REMARK  2 active torsions:
REMARK  status: ('A' for Active; 'I' for Inactive)
REMARK    1  A    between atoms: O1_1  and  C1_3
REMARK    2  A    between atoms: C7_13  and  O3_14
ROOT
HETATM    1  C1  UNL     1       4.271  -7.478  25.545  1.00  0.00     0.285 C
HETATM    2  O2  UNL     1       3.442  -7.360  26.628  1.00  0.00    -0.358 OA
HETATM    3  C2  UNL     1       3.860  -7.976  27.770  1.00  0.00     0.177 C
HETATM    4  C3  UNL     1       5.124  -7.293  28.249  1.00  0.00     0.043 C
HETATM    5  C4  UNL     1       5.721  -8.061  29.414  1.00  0.00     0.239 C
HETATM    6  N1  UNL     1       6.313  -9.226  28.840  1.00  0.00    -0.074 N
ATOM      7  H11 UNL     1       5.786 -10.074  29.046  1.00  0.00     0.277 HD
ATOM      8  H12 UNL     1       7.186  -9.488  29.300  1.00  0.00     0.277 HD
HETATM    9  C5  UNL     1       6.478  -9.007  27.427  1.00  0.00     0.240 C
HETATM   10  C6  UNL     1       6.178  -7.558  27.180  1.00  0.00     0.052 C
HETATM   11  C7  UNL     1       5.714  -7.239  25.814  1.00  0.00     0.179 C
ENDROOT
BRANCH   1  12
HETATM   12  O1  UNL     1       4.120  -8.703  24.881  1.00  0.00    -0.369 OA
ATOM     13  H1  UNL     1       4.295  -8.638  23.950  1.00  0.00     0.212 HD
ENDBRANCH   1  12
BRANCH  11  14
HETATM   14  O3  UNL     1       6.487  -7.947  24.871  1.00  0.00    -0.390 OA
ATOM     15  H3  UNL     1       7.282  -7.460  24.686  1.00  0.00     0.210 HD
ENDBRANCH  11  14
TORSDOF 2
ENDMDL