MODEL 5
REMARK VINA RESULT: -4.728605028      3.525      4.807
REMARK  3 active torsions:
REMARK  status: ('A' for Active; 'I' for Inactive)
REMARK    1  A    between atoms: C1_2  and  C2_3
REMARK    2  A    between atoms: C3_4  and  O2_5
REMARK    3  A    between atoms: C8_12  and  O4_13
ROOT
HETATM    1  C2  UNL     1       5.002  -7.532  23.345  1.00  0.00     0.093 C
HETATM    2  C3  UNL     1       6.044  -7.778  24.405  1.00  0.00     0.203 C
HETATM    3  C4  UNL     1       5.889  -6.270  24.381  1.00  0.00     0.138 C
HETATM    4  O3  UNL     1       6.478  -5.432  25.094  1.00  0.00    -0.299 OA
HETATM    5  C5  UNL     1       4.404  -6.549  24.306  1.00  0.00     0.075 C
HETATM    6  C6  UNL     1       3.786  -5.502  23.444  1.00  0.00     0.017 C
HETATM    7  C7  UNL     1       4.955  -5.265  22.466  1.00  0.00     0.048 C
HETATM    8  C8  UNL     1       5.854  -6.393  22.888  1.00  0.00     0.131 C
ENDROOT
BRANCH   1   9
HETATM    9  C1  UNL     1       4.340  -8.452  22.612  1.00  0.00     0.248 C
HETATM   10  O1  UNL     1       4.667  -8.768  21.455  1.00  0.00    -0.306 OA
ENDBRANCH   1   9
BRANCH   2  11
HETATM   11  O2  UNL     1       7.267  -8.220  23.967  1.00  0.00    -0.387 OA
ATOM     12  H2  UNL     1       7.969  -8.222  24.607  1.00  0.00     0.210 HD
ENDBRANCH   2  11
BRANCH   8  13
HETATM   13  O4  UNL     1       6.981  -6.632  22.210  1.00  0.00    -0.381 OA
ATOM     14  H4  UNL     1       7.673  -5.982  22.196  1.00  0.00     0.211 HD
ENDBRANCH   8  13
TORSDOF 3
ENDMDL