MODEL 3
REMARK VINA RESULT: -4.333831926      8.500      9.726
REMARK  5 active torsions:
REMARK  status: ('A' for Active; 'I' for Inactive)
REMARK    1  A    between atoms: O1_1  and  C1_3
REMARK    2  A    between atoms: C1_3  and  C2_4
REMARK    3  A    between atoms: C2_4  and  C7_13
REMARK    4  A    between atoms: C4_6  and  C6_11
REMARK    5  A    between atoms: C5_8  and  O3_9
ROOT
HETATM    1  C2  UNL     1       2.576  -2.397  20.458  1.00  0.00     0.061 C
HETATM    2  C3  UNL     1       3.722  -1.462  20.878  1.00  0.00     0.054 C
HETATM    3  C4  UNL     1       3.133  -1.222  22.281  1.00  0.00     0.157 C
HETATM    4  O2  UNL     1       1.838  -0.802  21.989  1.00  0.00    -0.353 OA
HETATM    5  C5  UNL     1       1.432  -1.463  20.826  1.00  0.00     0.270 C
ENDROOT
BRANCH   1   6
HETATM    6  C1  UNL     1       2.622  -2.822  19.073  1.00  0.00     0.181 C
BRANCH   6   7
HETATM    7  O1  UNL     1       3.177  -1.801  18.296  1.00  0.00    -0.400 OA
ATOM      8  H1  UNL     1       3.173  -2.066  17.384  1.00  0.00     0.209 HD
ENDBRANCH   6   7
ENDBRANCH   1   6
BRANCH   1   9
HETATM    9  C7  UNL     1       2.669  -3.440  21.512  1.00  0.00     0.169 A
HETATM   10  C6  UNL     1       1.564  -4.437  21.127  1.00  0.00     0.181 A
HETATM   11  O4  UNL     1       2.909  -4.768  21.158  1.00  0.00    -0.372 OA
ENDBRANCH   1   9
BRANCH   5  12
HETATM   12  O3  UNL     1       1.356  -0.508  19.823  1.00  0.00    -0.370 OA
ATOM     13  H3  UNL     1       2.045   0.123  19.993  1.00  0.00     0.212 HD
ENDBRANCH   5  12
TORSDOF 5
ENDMDL