MODEL 4
REMARK VINA RESULT: -5.309009878      3.593      4.258
REMARK  8 active torsions:
REMARK  status: ('A' for Active; 'I' for Inactive)
REMARK    1  A    between atoms: C2_3  and  C3_4
REMARK    2  A    between atoms: C4_5  and  C5_6
REMARK    3  A    between atoms: C5_6  and  O1_7
REMARK    4  A    between atoms: C6_9  and  O2_10
REMARK    5  A    between atoms: C7_12  and  O3_13
REMARK    6  A    between atoms: C8_15  and  O4_16
REMARK    7  A    between atoms: C9_18  and  N2_19
REMARK    8  A    between atoms: N2_19  and  N3_21
ROOT
HETATM    1  N1  UNL     1       7.182  -5.726  23.303  1.00  0.00    -0.197 NA
HETATM    2  C1  UNL     1       6.357  -6.153  23.989  1.00  0.00     0.059 C
HETATM    3  C2  UNL     1       5.329  -6.707  24.828  1.00  0.00     0.131 C
ENDROOT
BRANCH   3   4
HETATM    4  C3  UNL     1       5.322  -6.160  26.202  1.00  0.00     0.034 C
HETATM    5  C4  UNL     1       4.826  -4.723  26.165  1.00  0.00     0.048 C
HETATM    6  C6  UNL     1       4.500  -4.286  27.562  1.00  0.00     0.156 C
HETATM    7  C7  UNL     1       5.828  -4.245  28.324  1.00  0.00     0.178 C
HETATM    8  C8  UNL     1       6.510  -5.562  28.271  1.00  0.00     0.174 C
HETATM    9  C9  UNL     1       6.644  -6.148  26.892  1.00  0.00     0.137 C
BRANCH   5  10
HETATM   10  C5  UNL     1       3.639  -4.546  25.251  1.00  0.00     0.172 C
BRANCH  10  11
HETATM   11  O1  UNL     1       2.491  -4.196  25.916  1.00  0.00    -0.400 OA
ATOM     12  H1  UNL     1       2.213  -3.304  25.741  1.00  0.00     0.209 HD
ENDBRANCH  10  11
ENDBRANCH   5  10
BRANCH   6  13
HETATM   13  O2  UNL     1       3.709  -5.264  28.159  1.00  0.00    -0.392 OA
ATOM     14  H2  UNL     1       2.873  -5.293  27.708  1.00  0.00     0.210 HD
ENDBRANCH   6  13
BRANCH   7  15
HETATM   15  O3  UNL     1       5.520  -3.970  29.665  1.00  0.00    -0.390 OA
ATOM     16  H3  UNL     1       6.054  -3.228  29.925  1.00  0.00     0.210 HD
ENDBRANCH   7  15
BRANCH   8  17
HETATM   17  O4  UNL     1       5.760  -6.469  29.039  1.00  0.00    -0.391 OA
ATOM     18  H4  UNL     1       5.665  -7.270  28.535  1.00  0.00     0.210 HD
ENDBRANCH   8  17
BRANCH   9  19
HETATM   19  N2  UNL     1       7.225  -7.465  27.069  1.00  0.00    -0.315 N
ATOM     20  H2  UNL     1       6.842  -8.288  26.603  1.00  0.00     0.182 HD
BRANCH  19  21
HETATM   21  N3  UNL     1       8.205  -7.538  27.809  1.00  0.00    -0.253 N
HETATM   22  N4  UNL     1       9.354  -7.233  28.197  1.00  0.00    -0.331 N
ATOM     23  H42 UNL     1       9.600  -6.533  27.497  1.00  0.00     0.178 HD
ATOM     24  H41 UNL     1      10.166  -7.293  28.811  1.00  0.00     0.178 HD
ATOM     25  H3  UNL     1       7.920  -8.243  28.489  1.00  0.00     0.207 HD
ENDBRANCH  19  21
ENDBRANCH   9  19
ENDBRANCH   3   4
TORSDOF 8
ENDMDL