MODEL 1
REMARK VINA RESULT: -5.093170491      0.000      0.000
REMARK  6 active torsions:
REMARK  status: ('A' for Active; 'I' for Inactive)
REMARK    1  A    between atoms: C2_2  and  O1_3
REMARK    2  A    between atoms: C2_2  and  O2_5
REMARK    3  A    between atoms: C2_2  and  C3_7
REMARK    4  A    between atoms: C3_7  and  C4_8
REMARK    5  A    between atoms: C5_9  and  O3_10
REMARK    6  A    between atoms: C6_12  and  C7_13
ROOT
HETATM    1  C4  UNL     1       5.331  -4.390  25.196  1.00  0.00     0.056 C
HETATM    2  C5  UNL     1       4.627  -4.457  26.527  1.00  0.00     0.155 C
HETATM    3  C6  UNL     1       4.887  -5.877  27.026  1.00  0.00     0.161 C
HETATM    4  O4  UNL     1       5.372  -6.574  25.966  1.00  0.00    -0.372 OA
HETATM    5  C8  UNL     1       5.302  -5.851  24.804  1.00  0.00     0.060 C
HETATM    6  C9  UNL     1       6.507  -6.223  23.956  1.00  0.00     0.046 C
HETATM    7  C10 UNL     1       4.076  -6.229  24.041  1.00  0.00     0.046 C
ENDROOT
BRANCH   1   8
HETATM    8  C3  UNL     1       4.705  -3.576  24.149  1.00  0.00     0.078 C
BRANCH   8   9
HETATM    9  C2  UNL     1       5.347  -2.319  23.724  1.00  0.00     0.155 C
HETATM   10  C1  UNL     1       4.518  -1.475  22.786  1.00  0.00     0.078 C
BRANCH   9  11
HETATM   11  O1  UNL     1       5.512  -1.516  24.883  1.00  0.00    -0.366 OA
ATOM     12  H1  UNL     1       6.335  -1.802  25.261  1.00  0.00     0.213 HD
ENDBRANCH   9  11
BRANCH   9  13
HETATM   13  O2  UNL     1       6.622  -2.421  23.189  1.00  0.00    -0.366 OA
ATOM     14  H2  UNL     1       7.040  -3.180  23.577  1.00  0.00     0.213 HD
ENDBRANCH   9  13
ENDBRANCH   8   9
ENDBRANCH   1   8
BRANCH   2  15
HETATM   15  O3  UNL     1       3.237  -4.383  26.395  1.00  0.00    -0.392 OA
ATOM     16  H3  UNL     1       2.851  -5.223  26.176  1.00  0.00     0.210 HD
ENDBRANCH   2  15
BRANCH   3  17
HETATM   17  C7  UNL     1       5.913  -5.886  28.138  1.00  0.00     0.120 C
HETATM   18  S1  UNL     1       7.287  -7.013  27.797  1.00  0.00    -0.095 SA
ENDBRANCH   3  17
TORSDOF 6
ENDMDL