MODEL 3
REMARK VINA RESULT: -5.757184405      2.012      2.948
REMARK  8 active torsions:
REMARK  status: ('A' for Active; 'I' for Inactive)
REMARK    1  A    between atoms: N1_1  and  N2_4
REMARK    2  A    between atoms: N3_6  and  C1_8
REMARK    3  A    between atoms: C3_11  and  O2_12
REMARK    4  A    between atoms: O2_12  and  C4_13
REMARK    5  A    between atoms: C4_13  and  N4_15
REMARK    6  A    between atoms: N4_15  and  O3_17
REMARK    7  A    between atoms: C5_19  and  O4_20
REMARK    8  A    between atoms: C6_22  and  O5_23
ROOT
HETATM    1  C1  UNL     1       5.094  -6.118  28.211  1.00  0.00     0.156 C
HETATM    2  C2  UNL     1       3.854  -5.395  27.865  1.00  0.00     0.200 C
HETATM    3  O1  UNL     1       3.629  -5.229  26.507  1.00  0.00    -0.356 OA
HETATM    4  C3  UNL     1       4.714  -4.641  25.908  1.00  0.00     0.300 C
HETATM    5  C5  UNL     1       5.822  -5.674  25.868  1.00  0.00     0.204 C
HETATM    6  C6  UNL     1       6.262  -5.867  27.306  1.00  0.00     0.178 C
ENDROOT
BRANCH   1   7
HETATM    7  N3  UNL     1       5.470  -5.825  29.578  1.00  0.00    -0.313 N
HETATM    8  N2  UNL     1       5.755  -4.668  29.881  1.00  0.00    -0.253 N
ATOM      9  H2  UNL     1       6.363  -4.405  29.106  1.00  0.00     0.207 HD
ATOM     10  H3  UNL     1       5.499  -6.566  30.278  1.00  0.00     0.182 HD
BRANCH   8  11
HETATM   11  N1  UNL     1       5.758  -3.624  30.551  1.00  0.00    -0.331 N
ATOM     12  H12 UNL     1       6.496  -3.874  31.209  1.00  0.00     0.178 HD
ATOM     13  H11 UNL     1       5.478  -2.686  30.839  1.00  0.00     0.178 HD
ENDBRANCH   8  11
ENDBRANCH   1   7
BRANCH   6  14
HETATM   14  O5  UNL     1       6.993  -4.734  27.664  1.00  0.00    -0.391 OA
ATOM     15  H5  UNL     1       7.542  -4.873  28.426  1.00  0.00     0.210 HD
ENDBRANCH   6  14
BRANCH   5  16
HETATM   16  O4  UNL     1       5.238  -6.855  25.368  1.00  0.00    -0.388 OA
ATOM     17  H4  UNL     1       5.643  -7.013  24.524  1.00  0.00     0.210 HD
ENDBRANCH   5  16
BRANCH   4  18
HETATM   18  O2  UNL     1       4.455  -4.104  24.635  1.00  0.00    -0.291 OA
BRANCH  18  19
HETATM   19  C4  UNL     1       3.274  -4.193  23.963  1.00  0.00     0.236 C
HETATM   20  S1  UNL     1       3.199  -5.131  22.617  1.00  0.00    -0.031 SA
BRANCH  19  21
HETATM   21  N4  UNL     1       2.082  -3.530  24.341  1.00  0.00    -0.238 N
ATOM     22  H4  UNL     1       1.822  -2.685  23.831  1.00  0.00     0.197 HD
BRANCH  21  23
HETATM   23  O3  UNL     1       1.271  -3.947  25.331  1.00  0.00    -0.287 OA
ATOM     24  H3  UNL     1       0.338  -3.769  25.363  1.00  0.00     0.244 HD
ENDBRANCH  21  23
ENDBRANCH  19  21
ENDBRANCH  18  19
ENDBRANCH   4  18
TORSDOF 8
ENDMDL