MODEL 3
REMARK VINA RESULT: -5.270035284      2.865      4.635
REMARK  7 active torsions:
REMARK  status: ('A' for Active; 'I' for Inactive)
REMARK    1  A    between atoms: C2_2  and  O1_4
REMARK    2  A    between atoms: O1_4  and  C4_5
REMARK    3  A    between atoms: C5_7  and  C6_8
REMARK    4  A    between atoms: C6_8  and  O3_10
REMARK    5  A    between atoms: C8_12  and  O4_13
REMARK    6  A    between atoms: C9_15  and  O5_16
REMARK    7  A    between atoms: C10_18  and  O6_19
ROOT
HETATM    1  C4  UNL     1       5.433  -6.236  25.186  1.00  0.00     0.292 C
HETATM    2  O2  UNL     1       4.111  -6.574  25.268  1.00  0.00    -0.348 OA
HETATM    3  C5  UNL     1       3.317  -6.360  24.209  1.00  0.00     0.184 C
HETATM    4  C8  UNL     1       3.935  -5.401  23.226  1.00  0.00     0.181 C
HETATM    5  C9  UNL     1       5.157  -6.157  22.690  1.00  0.00     0.183 C
HETATM    6  C10 UNL     1       6.059  -6.412  23.848  1.00  0.00     0.204 C
ENDROOT
BRANCH   1   7
HETATM    7  O1  UNL     1       6.044  -6.972  26.186  1.00  0.00    -0.354 OA
BRANCH   7   8
HETATM    8  C2  UNL     1       6.449  -6.296  27.290  1.00  0.00     0.116 C
HETATM    9  C1  UNL     1       5.392  -6.230  28.382  1.00  0.00     0.039 C
HETATM   10  C3  UNL     1       7.625  -7.089  27.851  1.00  0.00     0.039 C
ENDBRANCH   7   8
ENDBRANCH   1   7
BRANCH   6  11
HETATM   11  O6  UNL     1       7.160  -5.542  23.678  1.00  0.00    -0.388 OA
ATOM     12  H6  UNL     1       7.465  -5.543  22.779  1.00  0.00     0.210 HD
ENDBRANCH   6  11
BRANCH   3  13
HETATM   13  C6  UNL     1       1.910  -5.899  24.539  1.00  0.00     0.145 C
HETATM   14  C7  UNL     1       1.607  -5.943  26.003  1.00  0.00     0.042 C
BRANCH  13  15
HETATM   15  O3  UNL     1       0.950  -6.609  23.847  1.00  0.00    -0.393 OA
ATOM     16  H3  UNL     1       1.048  -6.524  22.905  1.00  0.00     0.210 HD
ENDBRANCH  13  15
ENDBRANCH   3  13
BRANCH   5  17
HETATM   17  O5  UNL     1       4.729  -7.326  22.075  1.00  0.00    -0.390 OA
ATOM     18  H5  UNL     1       5.008  -7.317  21.167  1.00  0.00     0.210 HD
ENDBRANCH   5  17
BRANCH   4  19
HETATM   19  O4  UNL     1       3.025  -5.121  22.227  1.00  0.00    -0.390 OA
ATOM     20  H4  UNL     1       3.248  -4.290  21.823  1.00  0.00     0.210 HD
ENDBRANCH   4  19
TORSDOF 7
ENDMDL