MODEL 2
REMARK VINA RESULT: -4.781318932      6.811      8.593
REMARK  6 active torsions:
REMARK  status: ('A' for Active; 'I' for Inactive)
REMARK    1  A    between atoms: C2_2  and  O1_3
REMARK    2  A    between atoms: O1_3  and  C3_4
REMARK    3  A    between atoms: C3_4  and  C4_5
REMARK    4  A    between atoms: C8_10  and  O2_11
REMARK    5  A    between atoms: C9_13  and  O3_14
REMARK    6  A    between atoms: C10_16  and  O4_17
ROOT
HETATM    1  C4  UNL     1       5.144  -5.687  26.265  1.00  0.00     0.046 C
HETATM    2  C5  UNL     1       5.773  -5.642  24.923  1.00  0.00     0.007 C
HETATM    3  C6  UNL     1       5.691  -6.966  24.195  1.00  0.00     0.012 C
HETATM    4  C7  UNL     1       5.259  -4.575  24.015  1.00  0.00     0.094 C
HETATM    5  S1  UNL     1       5.988  -4.717  22.388  1.00  0.00    -0.089 SA
HETATM    6  C8  UNL     1       3.734  -4.718  23.977  1.00  0.00     0.164 C
HETATM    7  C9  UNL     1       3.298  -4.340  25.394  1.00  0.00     0.177 C
HETATM    8  C10 UNL     1       3.662  -5.496  26.278  1.00  0.00     0.156 C
ENDROOT
BRANCH   1   9
HETATM    9  C3  UNL     1       5.746  -4.683  27.232  1.00  0.00     0.175 C
BRANCH   9  10
HETATM   10  O1  UNL     1       6.997  -5.124  27.646  1.00  0.00    -0.391 OA
BRANCH  10  11
HETATM   11  C2  UNL     1       6.915  -6.354  28.254  1.00  0.00     0.163 C
HETATM   12  C1  UNL     1       8.084  -7.258  27.960  1.00  0.00     0.033 C
ENDBRANCH  10  11
ENDBRANCH   9  10
ENDBRANCH   1   9
BRANCH   8  13
HETATM   13  O4  UNL     1       2.983  -6.663  25.959  1.00  0.00    -0.392 OA
ATOM     14  H4  UNL     1       2.177  -6.490  25.485  1.00  0.00     0.210 HD
ENDBRANCH   8  13
BRANCH   7  15
HETATM   15  O3  UNL     1       1.949  -4.019  25.437  1.00  0.00    -0.390 OA
ATOM     16  H3  UNL     1       1.808  -3.178  25.856  1.00  0.00     0.210 HD
ENDBRANCH   7  15
BRANCH   6  17
HETATM   17  O2  UNL     1       3.169  -3.907  23.021  1.00  0.00    -0.392 OA
ATOM     18  H2  UNL     1       2.265  -3.699  23.224  1.00  0.00     0.210 HD
ENDBRANCH   6  17
TORSDOF 6
ENDMDL