MODEL 1
REMARK VINA RESULT: -5.227757560      0.000      0.000
REMARK  5 active torsions:
REMARK  status: ('A' for Active; 'I' for Inactive)
REMARK    1  A    between atoms: O1_2  and  C2_3
REMARK    2  A    between atoms: C3_5  and  N1_6
REMARK    3  A    between atoms: N1_6  and  C4_9
REMARK    4  A    between atoms: C8_15  and  O2_16
REMARK    5  A    between atoms: C9_18  and  O3_19
ROOT
HETATM    1  C2  UNL     1       5.513  -3.870  22.819  1.00  0.00     0.215 C
HETATM    2  S1  UNL     1       4.440  -2.884  21.746  1.00  0.00    -0.099 SA
HETATM    3  C3  UNL     1       4.589  -1.291  22.657  1.00  0.00     0.283 C
HETATM    4  C8  UNL     1       5.568  -1.609  23.754  1.00  0.00     0.191 C
HETATM    5  C9  UNL     1       5.423  -3.063  24.094  1.00  0.00     0.188 C
ENDROOT
BRANCH   3   6
HETATM    6  N1  UNL     1       3.329  -0.808  23.058  1.00  0.00    -0.039 N
ATOM      7  H12 UNL     1       2.583  -1.409  22.710  1.00  0.00     0.281 HD
ATOM      8  H11 UNL     1       3.195  -0.935  24.061  1.00  0.00     0.281 HD
BRANCH   6   9
HETATM    9  C4  UNL     1       3.103   0.542  22.686  1.00  0.00     0.285 C
HETATM   10  C5  UNL     1       3.863   1.029  21.491  1.00  0.00     0.059 C
HETATM   11  C6  UNL     1       2.930   0.716  20.346  1.00  0.00     0.048 C
HETATM   12  C7  UNL     1       1.605   0.761  21.022  1.00  0.00     0.057 C
HETATM   13  N2  UNL     1       1.737   0.666  22.276  1.00  0.00    -0.376 N
ATOM     14  H2  UNL     1       0.952   0.677  22.928  1.00  0.00     0.160 HD
ENDBRANCH   6   9
ENDBRANCH   3   6
BRANCH   4  15
HETATM   15  O2  UNL     1       6.875  -1.319  23.411  1.00  0.00    -0.390 OA
ATOM     16  H2  UNL     1       7.459  -1.295  24.161  1.00  0.00     0.210 HD
ENDBRANCH   4  15
BRANCH   1  17
HETATM   17  O1  UNL     1       6.823  -3.908  22.347  1.00  0.00    -0.378 OA
HETATM   18  C1  UNL     1       6.807  -3.925  20.944  1.00  0.00     0.203 C
ENDBRANCH   1  17
BRANCH   5  19
HETATM   19  O3  UNL     1       6.452  -3.455  24.928  1.00  0.00    -0.389 OA
ATOM     20  H3  UNL     1       6.216  -3.225  25.819  1.00  0.00     0.210 HD
ENDBRANCH   5  19
TORSDOF 5
ENDMDL