MODEL 2
REMARK VINA RESULT: -5.651804733      1.109      1.524
REMARK  7 active torsions:
REMARK  status: ('A' for Active; 'I' for Inactive)
REMARK    1  A    between atoms: C2_2  and  C4_4
REMARK    2  A    between atoms: C4_4  and  O1_5
REMARK    3  A    between atoms: C4_4  and  C5_7
REMARK    4  A    between atoms: C5_7  and  C6_8
REMARK    5  A    between atoms: C7_9  and  O2_10
REMARK    6  A    between atoms: C8_12  and  O3_13
REMARK    7  A    between atoms: N1_18  and  O5_19
ROOT
HETATM    1  C6  UNL     1       5.324  -4.523  25.473  1.00  0.00     0.150 C
HETATM    2  C7  UNL     1       4.075  -4.545  24.662  1.00  0.00     0.171 C
HETATM    3  C8  UNL     1       4.230  -4.007  23.270  1.00  0.00     0.179 C
HETATM    4  C9  UNL     1       5.326  -3.022  23.103  1.00  0.00     0.175 C
HETATM    5  C10 UNL     1       4.787  -1.602  22.991  1.00  0.00     0.044 C
HETATM    6  O4  UNL     1       6.272  -3.025  24.105  1.00  0.00    -0.271 OA
HETATM    7  N1  UNL     1       6.460  -4.218  24.674  1.00  0.00    -0.064 NA
ENDROOT
BRANCH   1   8
HETATM    8  C5  UNL     1       5.434  -5.784  26.267  1.00  0.00     0.059 C
BRANCH   8   9
HETATM    9  C4  UNL     1       6.427  -5.686  27.403  1.00  0.00     0.123 C
BRANCH   9  10
HETATM   10  C2  UNL     1       5.724  -5.904  28.724  1.00  0.00     0.006 C
HETATM   11  C1  UNL     1       5.975  -4.802  29.699  1.00  0.00     0.012 C
HETATM   12  C3  UNL     1       4.257  -6.207  28.549  1.00  0.00     0.012 C
ENDBRANCH   9  10
BRANCH   9  13
HETATM   13  O1  UNL     1       7.014  -4.422  27.450  1.00  0.00    -0.395 OA
ATOM     14  H1  UNL     1       6.320  -3.783  27.334  1.00  0.00     0.210 HD
ENDBRANCH   9  13
ENDBRANCH   8   9
ENDBRANCH   1   8
BRANCH   2  15
HETATM   15  O2  UNL     1       3.032  -3.908  25.339  1.00  0.00    -0.391 OA
ATOM     16  H2  UNL     1       2.450  -3.472  24.728  1.00  0.00     0.210 HD
ENDBRANCH   2  15
BRANCH   7  17
HETATM   17  O5  UNL     1       6.786  -5.118  23.761  1.00  0.00    -0.288 OA
ATOM     18  H5  UNL     1       7.194  -5.913  24.085  1.00  0.00     0.239 HD
ENDBRANCH   7  17
BRANCH   3  19
HETATM   19  O3  UNL     1       4.284  -5.048  22.313  1.00  0.00    -0.390 OA
ATOM     20  H3  UNL     1       4.115  -4.725  21.436  1.00  0.00     0.210 HD
ENDBRANCH   3  19
TORSDOF 7
ENDMDL