MODEL 1
REMARK VINA RESULT: -5.963243558      0.000      0.000
REMARK  7 active torsions:
REMARK  status: ('A' for Active; 'I' for Inactive)
REMARK    1  A    between atoms: O1_1  and  C1_3
REMARK    2  A    between atoms: C1_3  and  C2_4
REMARK    3  A    between atoms: C4_6  and  O2_7
REMARK    4  A    between atoms: O2_7  and  C5_8
REMARK    5  A    between atoms: C7_10  and  O3_11
REMARK    6  A    between atoms: C10_15  and  O4_16
REMARK    7  A    between atoms: C11_19  and  O6_20
ROOT
HETATM    1  O2  UNL     1       5.999  -7.122  25.498  1.00  0.00    -0.353 OA
ENDROOT
BRANCH   1   2
HETATM    2  C4  UNL     1       6.220  -6.804  26.835  1.00  0.00     0.264 C
HETATM    3  C3  UNL     1       5.729  -5.433  27.198  1.00  0.00     0.072 C
HETATM    4  C2  UNL     1       6.734  -4.994  28.242  1.00  0.00     0.069 C
HETATM    5  C11 UNL     1       7.714  -6.149  28.256  1.00  0.00     0.266 C
HETATM    6  O5  UNL     1       7.613  -6.636  26.969  1.00  0.00    -0.331 OA
BRANCH   4   7
HETATM    7  C1  UNL     1       6.120  -4.925  29.629  1.00  0.00     0.173 C
BRANCH   7   8
HETATM    8  O1  UNL     1       5.836  -3.567  29.856  1.00  0.00    -0.400 OA
ATOM      9  H1  UNL     1       5.322  -3.539  30.655  1.00  0.00     0.209 HD
ENDBRANCH   7   8
ENDBRANCH   4   7
BRANCH   5  10
HETATM   10  O6  UNL     1       9.017  -5.724  28.488  1.00  0.00    -0.371 OA
ATOM     11  H6  UNL     1       9.558  -6.415  28.850  1.00  0.00     0.212 HD
ENDBRANCH   5  10
ENDBRANCH   1   2
BRANCH   1  12
HETATM   12  C5  UNL     1       5.453  -6.066  24.783  1.00  0.00     0.159 C
HETATM   13  C6  UNL     1       6.423  -5.718  23.647  1.00  0.00     0.070 C
HETATM   14  C7  UNL     1       6.019  -4.377  23.092  1.00  0.00     0.143 C
HETATM   15  C8  UNL     1       4.527  -4.270  22.959  1.00  0.00     0.003 C
HETATM   16  C9  UNL     1       3.676  -5.164  23.426  1.00  0.00     0.005 C
HETATM   17  C10 UNL     1       4.144  -6.382  24.142  1.00  0.00     0.170 C
BRANCH  14  18
HETATM   18  O3  UNL     1       6.504  -3.393  23.972  1.00  0.00    -0.392 OA
ATOM     19  H3  UNL     1       7.349  -3.108  23.642  1.00  0.00     0.210 HD
ENDBRANCH  14  18
BRANCH  17  20
HETATM   20  O4  UNL     1       3.159  -6.719  25.067  1.00  0.00    -0.389 OA
ATOM     21  H4  UNL     1       3.501  -7.210  25.805  1.00  0.00     0.210 HD
ENDBRANCH  17  20
ENDBRANCH   1  12
TORSDOF 7
ENDMDL