MODEL 3
REMARK VINA RESULT: -4.633289430      2.921      4.838
REMARK  9 active torsions:
REMARK  status: ('A' for Active; 'I' for Inactive)
REMARK    1  A    between atoms: C2_2  and  O1_4
REMARK    2  A    between atoms: C2_2  and  C4_6
REMARK    3  A    between atoms: C4_6  and  N1_7
REMARK    4  A    between atoms: N1_7  and  N2_9
REMARK    5  A    between atoms: N2_9  and  N3_10
REMARK    6  A    between atoms: C5_14  and  C6_15
REMARK    7  A    between atoms: C6_15  and  O2_16
REMARK    8  A    between atoms: C7_18  and  O3_19
REMARK    9  A    between atoms: C8_21  and  O4_22
ROOT
HETATM    1  C4  UNL     1       1.923  -1.234  21.925  1.00  0.00     0.166 C
HETATM    2  S1  UNL     1       1.354  -0.920  20.209  1.00  0.00    -0.120 SA
HETATM    3  C5  UNL     1      -0.096   0.082  20.659  1.00  0.00     0.105 C
HETATM    4  C7  UNL     1       0.430   0.693  21.941  1.00  0.00     0.166 C
HETATM    5  C8  UNL     1       1.045  -0.389  22.743  1.00  0.00     0.192 C
ENDROOT
BRANCH   1   6
HETATM    6  C2  UNL     1       3.382  -1.057  22.073  1.00  0.00     0.090 C
HETATM    7  C1  UNL     1       4.237  -2.074  21.399  1.00  0.00     0.049 C
HETATM    8  C3  UNL     1       3.745   0.352  21.656  1.00  0.00     0.049 C
BRANCH   6   9
HETATM    9  O1  UNL     1       3.668  -1.131  23.458  1.00  0.00    -0.387 OA
ATOM     10  H1  UNL     1       2.982  -0.652  23.908  1.00  0.00     0.210 HD
ENDBRANCH   6   9
ENDBRANCH   1   6
BRANCH   1  11
HETATM   11  N1  UNL     1       1.649  -2.661  22.156  1.00  0.00    -0.227 N
ATOM     12  H1  UNL     1       1.528  -3.327  21.393  1.00  0.00     0.199 HD
BRANCH  11  13
HETATM   13  N2  UNL     1       1.575  -2.991  23.341  1.00  0.00    -0.247 NA
BRANCH  13  14
HETATM   14  N3  UNL     1       1.654  -3.399  24.498  1.00  0.00    -0.261 N
ATOM     15  H32 UNL     1       1.044  -4.160  24.198  1.00  0.00     0.193 HD
ATOM     16  H31 UNL     1       1.806  -3.623  25.481  1.00  0.00     0.193 HD
ENDBRANCH  13  14
ENDBRANCH  11  13
ENDBRANCH   1  11
BRANCH   5  17
HETATM   17  O4  UNL     1       1.640   0.173  23.864  1.00  0.00    -0.389 OA
ATOM     18  H4  UNL     1       1.417   1.082  24.028  1.00  0.00     0.210 HD
ENDBRANCH   5  17
BRANCH   3  19
HETATM   19  C6  UNL     1      -0.388   1.123  19.615  1.00  0.00     0.181 C
BRANCH  19  20
HETATM   20  O2  UNL     1       0.431   2.227  19.896  1.00  0.00    -0.400 OA
ATOM     21  H2  UNL     1       0.970   1.990  20.641  1.00  0.00     0.209 HD
ENDBRANCH  19  20
ENDBRANCH   3  19
BRANCH   4  22
HETATM   22  O3  UNL     1      -0.713   1.145  22.645  1.00  0.00    -0.392 OA
ATOM     23  H3  UNL     1      -0.761   2.079  22.480  1.00  0.00     0.210 HD
ENDBRANCH   4  22
TORSDOF 9
ENDMDL