MODEL 1
REMARK VINA RESULT: -6.020215210      0.000      0.000
REMARK  8 active torsions:
REMARK  status: ('A' for Active; 'I' for Inactive)
REMARK    1  A    between atoms: C2_2  and  C4_5
REMARK    2  A    between atoms: C5_6  and  O1_7
REMARK    3  A    between atoms: C6_9  and  C7_10
REMARK    4  A    between atoms: C7_10  and  O2_11
REMARK    5  A    between atoms: C8_14  and  N2_15
REMARK    6  A    between atoms: N2_15  and  N3_17
REMARK    7  A    between atoms: N3_17  and  N4_18
REMARK    8  A    between atoms: C9_21  and  O4_22
ROOT
HETATM    1  C1  UNL     1       6.110  -4.866  29.383  1.00  0.00     0.026 C
HETATM    2  C2  UNL     1       6.006  -5.890  28.312  1.00  0.00     0.098 C
HETATM    3  C3  UNL     1       7.190  -6.715  28.162  1.00  0.00     0.064 C
HETATM    4  N1  UNL     1       8.129  -7.390  28.054  1.00  0.00    -0.197 NA
ENDROOT
BRANCH   2   5
HETATM    5  C4  UNL     1       5.581  -5.307  26.984  1.00  0.00     0.067 C
HETATM    6  C5  UNL     1       4.077  -5.373  26.817  1.00  0.00     0.157 C
HETATM    7  C6  UNL     1       3.743  -4.369  25.704  1.00  0.00     0.177 C
HETATM    8  O3  UNL     1       4.788  -4.227  24.818  1.00  0.00    -0.352 OA
HETATM    9  C8  UNL     1       5.804  -3.472  25.406  1.00  0.00     0.279 C
HETATM   10  C9  UNL     1       5.972  -3.854  26.868  1.00  0.00     0.177 C
BRANCH   6  11
HETATM   11  O1  UNL     1       3.458  -4.914  27.958  1.00  0.00    -0.392 OA
ATOM     12  H1  UNL     1       2.699  -5.452  28.153  1.00  0.00     0.210 HD
ENDBRANCH   6  11
BRANCH   7  13
HETATM   13  C7  UNL     1       2.477  -4.854  25.060  1.00  0.00     0.198 C
BRANCH  13  14
HETATM   14  O2  UNL     1       1.382  -4.192  25.602  1.00  0.00    -0.398 OA
ATOM     15  H2  UNL     1       0.579  -4.633  25.354  1.00  0.00     0.209 HD
ENDBRANCH  13  14
ENDBRANCH   7  13
BRANCH   9  16
HETATM   16  N2  UNL     1       5.540  -2.040  25.282  1.00  0.00    -0.220 N
ATOM     17  H2  UNL     1       5.745  -1.382  26.034  1.00  0.00     0.200 HD
BRANCH  16  18
HETATM   18  N3  UNL     1       5.050  -1.680  24.203  1.00  0.00    -0.246 NA
BRANCH  18  19
HETATM   19  N4  UNL     1       4.297  -1.514  23.240  1.00  0.00    -0.261 N
ATOM     20  H42 UNL     1       3.633  -0.944  23.764  1.00  0.00     0.193 HD
ATOM     21  H41 UNL     1       3.871  -1.538  22.313  1.00  0.00     0.193 HD
ENDBRANCH  18  19
ENDBRANCH  16  18
ENDBRANCH   9  16
BRANCH  10  22
HETATM   22  O4  UNL     1       7.240  -3.592  27.334  1.00  0.00    -0.391 OA
ATOM     23  H4  UNL     1       7.735  -4.376  27.540  1.00  0.00     0.210 HD
ENDBRANCH  10  22
ENDBRANCH   2   5
TORSDOF 8
ENDMDL