MODEL 5
REMARK VINA RESULT: -6.535522798      2.168      2.573
REMARK  5 active torsions:
REMARK  status: ('A' for Active; 'I' for Inactive)
REMARK       I    between atoms: N1_2  and  C2_4
REMARK       I    between atoms: C2_4  and  N2_6
REMARK    1  A    between atoms: N2_6  and  C3_8
REMARK    2  A    between atoms: C6_11  and  C7_12
REMARK    3  A    between atoms: C7_12  and  N3_13
REMARK    4  A    between atoms: N3_13  and  C8_15
REMARK    5  A    between atoms: C14_21  and  O2_22
ROOT
HETATM    1  C3  UNL     1       3.335  -4.853  25.426  1.00  0.00     0.263 C
HETATM    2  C4  UNL     1       1.813  -4.857  25.460  1.00  0.00     0.063 C
HETATM    3  C5  UNL     1       1.390  -3.692  24.521  1.00  0.00     0.073 C
HETATM    4  C6  UNL     1       1.675  -4.201  23.170  1.00  0.00     0.099 C
HETATM    5  O3  UNL     1       2.924  -4.897  23.203  1.00  0.00    -0.199 OA
HETATM    6  O4  UNL     1       3.660  -4.313  24.161  1.00  0.00    -0.209 OA
ENDROOT
BRANCH   4   7
HETATM    7  C7  UNL     1       1.459  -3.437  21.915  1.00  0.00     0.119 C
BRANCH   7   8
HETATM    8  N3  UNL     1       2.548  -2.613  21.636  1.00  0.00    -0.392 N
ATOM      9  H3  UNL     1       3.396  -3.031  21.253  1.00  0.00     0.159 HD
BRANCH   8  10
HETATM   10  C8  UNL     1       2.518  -1.260  21.857  1.00  0.00     0.087 C
HETATM   11  C9  UNL     1       1.271  -0.507  21.593  1.00  0.00     0.030 C
HETATM   12  C10 UNL     1       1.556   0.995  21.559  1.00  0.00    -0.010 C
HETATM   13  C11 UNL     1       2.107   1.265  20.167  1.00  0.00     0.005 C
HETATM   14  C15 UNL     1       2.667   1.262  22.566  1.00  0.00     0.037 C
HETATM   15  C12 UNL     1       3.060   0.109  19.830  1.00  0.00     0.009 C
HETATM   16  C13 UNL     1       3.610  -0.491  21.097  1.00  0.00     0.037 C
HETATM   17  C14 UNL     1       3.936   0.707  22.003  1.00  0.00     0.124 C
BRANCH  17  18
HETATM   18  O2  UNL     1       4.674   1.640  21.297  1.00  0.00    -0.395 OA
ATOM     19  H2  UNL     1       4.279   2.499  21.390  1.00  0.00     0.210 HD
ENDBRANCH  17  18
ENDBRANCH   8  10
ENDBRANCH   7   8
ENDBRANCH   4   7
BRANCH   1  20
HETATM   20  N2  UNL     1       3.866  -4.029  26.460  1.00  0.00    -0.314 N
HETATM   21  C2  UNL     1       4.888  -4.563  27.348  1.00  0.00     0.317 C
HETATM   22  N1  UNL     1       5.352  -3.741  28.377  1.00  0.00    -0.347 N
HETATM   23  O1  UNL     1       5.281  -5.705  27.156  1.00  0.00    -0.247 OA
HETATM   24  C1  UNL     1       6.382  -4.215  29.287  1.00  0.00     0.151 C
ATOM     25  H1  UNL     1       4.965  -2.803  28.490  1.00  0.00     0.163 HD
ATOM     26  H2  UNL     1       3.532  -3.072  26.578  1.00  0.00     0.167 HD
ENDBRANCH   1  20
TORSDOF 5
ENDMDL