MODEL 2
REMARK VINA RESULT: -5.662379074      1.019      1.117
REMARK  8 active torsions:
REMARK  status: ('A' for Active; 'I' for Inactive)
REMARK    1  A    between atoms: C2_2  and  C3_3
REMARK    2  A    between atoms: C3_3  and  C4_4
REMARK    3  A    between atoms: C5_5  and  O1_6
REMARK    4  A    between atoms: C6_8  and  O2_9
REMARK    5  A    between atoms: C8_12  and  O3_14
REMARK    6  A    between atoms: C12_17  and  N1_18
REMARK    7  A    between atoms: N1_18  and  C13_21
REMARK    8  A    between atoms: C15_23  and  O4_24
ROOT
HETATM    1  C4  UNL     1       4.584  -3.421  23.251  1.00  0.00     0.028 C
HETATM    2  C5  UNL     1       5.354  -4.238  22.261  1.00  0.00     0.152 C
HETATM    3  C6  UNL     1       5.536  -5.607  22.843  1.00  0.00     0.155 C
HETATM    4  C7  UNL     1       4.698  -5.592  24.094  1.00  0.00     0.062 C
HETATM    5  C8  UNL     1       5.117  -6.565  25.128  1.00  0.00     0.065 C
HETATM    6  C9  UNL     1       5.713  -7.834  24.541  1.00  0.00     0.046 C
HETATM    7  C11 UNL     1       6.233  -6.028  26.036  1.00  0.00     0.073 C
HETATM    8  C12 UNL     1       5.766  -4.751  26.642  1.00  0.00     0.218 C
HETATM    9  C15 UNL     1       5.681  -3.740  25.486  1.00  0.00     0.158 C
HETATM   10  C16 UNL     1       4.614  -4.162  24.559  1.00  0.00    -0.001 C
HETATM   11  C17 UNL     1       3.278  -3.900  25.228  1.00  0.00     0.019 C
ENDROOT
BRANCH   8  12
HETATM   12  N1  UNL     1       6.736  -4.146  27.531  1.00  0.00    -0.069 N
ATOM     13  H12 UNL     1       7.217  -4.860  28.077  1.00  0.00     0.277 HD
ATOM     14  H11 UNL     1       7.525  -3.775  27.001  1.00  0.00     0.277 HD
BRANCH  12  15
HETATM   15  C13 UNL     1       6.186  -3.137  28.390  1.00  0.00     0.228 C
HETATM   16  C14 UNL     1       6.768  -1.763  28.041  1.00  0.00     0.034 C
ENDBRANCH  12  15
ENDBRANCH   8  12
BRANCH   9  17
HETATM   17  O4  UNL     1       6.964  -3.701  24.953  1.00  0.00    -0.393 OA
ATOM     18  H4  UNL     1       6.836  -3.554  24.023  1.00  0.00     0.210 HD
ENDBRANCH   9  17
BRANCH   5  19
HETATM   19  O3  UNL     1       4.114  -6.968  25.993  1.00  0.00    -0.385 OA
HETATM   20  C10 UNL     1       3.098  -7.701  25.451  1.00  0.00     0.202 C
ENDBRANCH   5  19
BRANCH   1  21
HETATM   21  C3  UNL     1       4.967  -1.986  23.330  1.00  0.00     0.008 C
BRANCH  21  22
HETATM   22  C2  UNL     1       3.987  -1.074  22.621  1.00  0.00    -0.004 C
HETATM   23  C1  UNL     1       3.223  -0.226  23.632  1.00  0.00     0.005 C
ENDBRANCH  21  22
ENDBRANCH   1  21
BRANCH   3  24
HETATM   24  O2  UNL     1       6.863  -5.849  23.034  1.00  0.00    -0.392 OA
ATOM     25  H2  UNL     1       7.003  -6.782  23.152  1.00  0.00     0.210 HD
ENDBRANCH   3  24
BRANCH   2  26
HETATM   26  O1  UNL     1       6.578  -3.643  21.920  1.00  0.00    -0.393 OA
ATOM     27  H1  UNL     1       6.503  -3.075  21.161  1.00  0.00     0.210 HD
ENDBRANCH   2  26
TORSDOF 8
ENDMDL