MODEL 5
REMARK VINA RESULT: -6.039641414      3.134      5.343
REMARK  7 active torsions:
REMARK  status: ('A' for Active; 'I' for Inactive)
REMARK    1  A    between atoms: C6_7  and  N1_8
REMARK    2  A    between atoms: N1_8  and  C7_10
REMARK    3  A    between atoms: C8_12  and  N2_13
REMARK    4  A    between atoms: N2_13  and  O2_14
REMARK    5  A    between atoms: C9_16  and  O3_17
REMARK    6  A    between atoms: C9_16  and  N3_19
REMARK       I    between atoms: N3_19  and  C10_21
REMARK    7  A    between atoms: C10_21  and  C11_23
ROOT
HETATM    1  C1  UNL     1       1.757  -3.341  23.766  1.00  0.00     0.029 C
HETATM    2  C2  UNL     1       3.272  -3.265  23.519  1.00  0.00     0.022 A
HETATM    3  C3  UNL     1       3.470  -3.675  22.080  1.00  0.00     0.029 C
HETATM    4  S1  UNL     1       3.737  -1.540  23.808  1.00  0.00    -0.147 SA
HETATM    5  C4  UNL     1       5.013  -1.824  25.058  1.00  0.00     0.113 A
HETATM    6  C5  UNL     1       4.993  -3.267  25.284  1.00  0.00     0.055 A
HETATM    7  C6  UNL     1       4.049  -4.032  24.502  1.00  0.00     0.108 A
HETATM    8  C8  UNL     1       6.459  -3.347  25.013  1.00  0.00     0.170 C
HETATM    9  C9  UNL     1       6.408  -1.954  24.498  1.00  0.00     0.167 C
ENDROOT
BRANCH   9  10
HETATM   10  O3  UNL     1       6.422  -1.835  23.100  1.00  0.00    -0.368 OA
ATOM     11  H3  UNL     1       5.620  -1.446  22.771  1.00  0.00     0.212 HD
ENDBRANCH   9  10
BRANCH   9  12
HETATM   12  N3  UNL     1       7.292  -1.040  25.165  1.00  0.00    -0.327 N
HETATM   13  C10 UNL     1       8.462  -0.463  24.649  1.00  0.00     0.224 C
HETATM   14  O4  UNL     1       8.855  -0.724  23.492  1.00  0.00    -0.273 OA
ATOM     15  H3  UNL     1       7.041  -0.781  26.119  1.00  0.00     0.165 HD
BRANCH  13  16
HETATM   16  C11 UNL     1       9.256   0.465  25.455  1.00  0.00     0.078 C
HETATM   17  C12 UNL     1      10.580   0.836  24.789  1.00  0.00     0.014 C
HETATM   18  C13 UNL     1      11.218   0.717  26.163  1.00  0.00     0.002 C
HETATM   19  C14 UNL     1      10.089  -0.223  26.537  1.00  0.00     0.014 C
ENDBRANCH  13  16
ENDBRANCH   9  12
BRANCH   8  20
HETATM   20  N2  UNL     1       6.840  -4.232  23.918  1.00  0.00    -0.093 NA
BRANCH  20  21
HETATM   21  O2  UNL     1       7.541  -5.289  24.401  1.00  0.00    -0.295 OA
ATOM     22  H2  UNL     1       8.129  -5.620  23.732  1.00  0.00     0.238 HD
ENDBRANCH  20  21
ENDBRANCH   8  20
BRANCH   7  23
HETATM   23  N1  UNL     1       3.086  -4.650  25.423  1.00  0.00    -0.362 N
ATOM     24  H1  UNL     1       2.094  -4.469  25.266  1.00  0.00     0.162 HD
BRANCH  23  25
HETATM   25  C7  UNL     1       3.436  -5.461  26.491  1.00  0.00     0.348 C
HETATM   26  O1  UNL     1       4.045  -6.535  26.297  1.00  0.00    -0.284 OA
ENDBRANCH  23  25
ENDBRANCH   7  23
TORSDOF 7
ENDMDL