MODEL 1
REMARK VINA RESULT: -6.567098454      0.000      0.000
REMARK  7 active torsions:
REMARK  status: ('A' for Active; 'I' for Inactive)
REMARK    1  A    between atoms: C5_5  and  O1_6
REMARK    2  A    between atoms: C6_8  and  O2_9
REMARK    3  A    between atoms: C7_11  and  C8_12
REMARK    4  A    between atoms: C8_12  and  C9_13
REMARK    5  A    between atoms: C9_13  and  C10_14
REMARK    6  A    between atoms: C10_14  and  C11_15
REMARK    7  A    between atoms: C16_23  and  O6_24
ROOT
HETATM    1  C1  UNL     1       3.528  -1.514  19.808  1.00  0.00     0.018 C
HETATM    2  C2  UNL     1       3.206  -0.082  20.203  1.00  0.00    -0.007 A
HETATM    3  C3  UNL     1       3.250   0.838  18.975  1.00  0.00     0.018 C
HETATM    4  C4  UNL     1       2.161   0.172  21.108  1.00  0.00     0.063 A
HETATM    5  C5  UNL     1       1.752   1.349  21.932  1.00  0.00     0.155 C
HETATM    6  C6  UNL     1       2.369   0.841  23.275  1.00  0.00     0.154 C
HETATM    7  C7  UNL     1       3.539  -0.001  22.855  1.00  0.00     0.053 C
HETATM    8  C16 UNL     1       3.682   0.373  21.449  1.00  0.00     0.078 A
ENDROOT
BRANCH   7   9
HETATM    9  C8  UNL     1       3.525  -1.430  23.202  1.00  0.00     0.014 C
BRANCH   9  10
HETATM   10  C9  UNL     1       4.319  -1.838  24.406  1.00  0.00     0.050 C
BRANCH  10  11
HETATM   11  C10 UNL     1       5.446  -2.802  24.045  1.00  0.00     0.148 C
HETATM   12  C12 UNL     1       5.549  -2.957  22.536  1.00  0.00     0.049 C
HETATM   13  C13 UNL     1       6.773  -3.861  22.317  1.00  0.00     0.006 C
HETATM   14  C14 UNL     1       6.590  -5.166  23.047  1.00  0.00     0.026 C
HETATM   15  C15 UNL     1       6.160  -5.007  24.465  1.00  0.00     0.169 C
HETATM   16  O5  UNL     1       5.274  -4.008  24.614  1.00  0.00    -0.369 OA
BRANCH  11  17
HETATM   17  C11 UNL     1       6.686  -2.143  24.483  1.00  0.00     0.209 C
HETATM   18  O3  UNL     1       7.158  -2.426  25.605  1.00  0.00    -0.646 OA
HETATM   19  O4  UNL     1       7.339  -1.230  23.698  1.00  0.00    -0.646 OA
ENDBRANCH  11  17
ENDBRANCH  10  11
ENDBRANCH   9  10
ENDBRANCH   7   9
BRANCH   6  20
HETATM   20  O2  UNL     1       1.403   0.238  24.018  1.00  0.00    -0.393 OA
ATOM     21  H2  UNL     1       1.786  -0.475  24.516  1.00  0.00     0.210 HD
ENDBRANCH   6  20
BRANCH   8  22
HETATM   22  O6  UNL     1       4.132   1.727  21.423  1.00  0.00    -0.388 OA
ATOM     23  H6  UNL     1       5.070   1.815  21.544  1.00  0.00     0.210 HD
ENDBRANCH   8  22
BRANCH   5  24
HETATM   24  O1  UNL     1       0.380   1.324  22.104  1.00  0.00    -0.392 OA
ATOM     25  H1  UNL     1       0.162   1.766  22.916  1.00  0.00     0.210 HD
ENDBRANCH   5  24
TORSDOF 7
ENDMDL