MODEL 5
REMARK VINA RESULT: -6.530350390      2.593      7.520
REMARK  9 active torsions:
REMARK  status: ('A' for Active; 'I' for Inactive)
REMARK    1  A    between atoms: N1_4  and  C4_5
REMARK    2  A    between atoms: C4_5  and  C5_6
REMARK    3  A    between atoms: C6_7  and  C7_8
REMARK    4  A    between atoms: C7_8  and  C8_9
REMARK    5  A    between atoms: C8_9  and  C9_10
REMARK    6  A    between atoms: C9_10  and  O1_11
REMARK    7  A    between atoms: C16_22  and  C17_23
REMARK    8  A    between atoms: C17_23  and  O2_24
REMARK    9  A    between atoms: N3_26  and  O3_28
ROOT
HETATM    1  C4  UNL     1       2.443  -4.636  25.324  1.00  0.00     0.365 C
ENDROOT
BRANCH   1   2
HETATM    2  N1  UNL     1       3.768  -5.192  25.222  1.00  0.00     0.099 N
HETATM    3  C3  UNL     1       4.744  -4.321  24.688  1.00  0.00     0.278 C
HETATM    4  C2  UNL     1       5.731  -3.711  25.600  1.00  0.00     0.022 C
HETATM    5  C1  UNL     1       5.582  -2.182  25.622  1.00  0.00     0.012 C
HETATM    6  C16 UNL     1       5.833  -4.294  26.962  1.00  0.00     0.069 C
HETATM    7  C15 UNL     1       4.506  -4.854  27.451  1.00  0.00     0.043 C
HETATM    8  C14 UNL     1       4.146  -5.915  26.405  1.00  0.00     0.274 C
BRANCH   6   9
HETATM    9  C17 UNL     1       6.316  -3.345  27.961  1.00  0.00     0.140 C
HETATM   10  N3  UNL     1       5.594  -3.069  28.984  1.00  0.00    -0.251 N
ATOM     11  H3  UNL     1       4.682  -3.508  29.107  1.00  0.00     0.196 HD
BRANCH   9  12
HETATM   12  O2  UNL     1       7.546  -2.740  27.810  1.00  0.00    -0.348 OA
ATOM     13  H2  UNL     1       8.076  -2.535  28.570  1.00  0.00     0.219 HD
ENDBRANCH   9  12
BRANCH  10  14
HETATM   14  O3  UNL     1       6.064  -2.179  29.909  1.00  0.00    -0.288 OA
ATOM     15  H3  UNL     1       5.605  -2.085  30.736  1.00  0.00     0.244 HD
ENDBRANCH  10  14
ENDBRANCH   6   9
ENDBRANCH   1   2
BRANCH   1  16
HETATM   16  C5  UNL     1       2.291  -3.705  24.204  1.00  0.00    -0.076 C
HETATM   17  C6  UNL     1       2.180  -2.914  23.281  1.00  0.00    -0.104 C
BRANCH  17  18
HETATM   18  C7  UNL     1       2.065  -1.947  22.192  1.00  0.00     0.105 C
BRANCH  18  19
HETATM   19  C8  UNL     1       3.305  -1.122  22.039  1.00  0.00    -0.006 C
HETATM   20  C10 UNL     1       3.466  -0.301  23.301  1.00  0.00     0.040 C
HETATM   21  C11 UNL     1       2.673   0.978  23.253  1.00  0.00     0.233 C
HETATM   22  N2  UNL     1       2.963   1.764  22.085  1.00  0.00    -0.075 N
HETATM   23  C12 UNL     1       3.858   1.066  21.156  1.00  0.00     0.233 C
ATOM     24  H22 UNL     1       2.106   2.061  21.618  1.00  0.00     0.277 HD
ATOM     25  H21 UNL     1       3.336   2.679  22.338  1.00  0.00     0.277 HD
HETATM   26  C13 UNL     1       3.174  -0.248  20.818  1.00  0.00     0.040 C
BRANCH  19  27
HETATM   27  C9  UNL     1       4.564  -1.944  21.899  1.00  0.00     0.174 C
BRANCH  27  28
HETATM   28  O1  UNL     1       4.602  -2.724  20.761  1.00  0.00    -0.400 OA
ATOM     29  H1  UNL     1       3.810  -2.686  20.238  1.00  0.00     0.209 HD
ENDBRANCH  27  28
ENDBRANCH  19  27
ENDBRANCH  18  19
ENDBRANCH  17  18
ENDBRANCH   1  16
TORSDOF 9
ENDMDL