MODEL 1
REMARK VINA RESULT: -5.673345304      0.000      0.000
REMARK  8 active torsions:
REMARK  status: ('A' for Active; 'I' for Inactive)
REMARK    1  A    between atoms: C2_2  and  C3_3
REMARK    2  A    between atoms: C5_6  and  C6_7
REMARK    3  A    between atoms: C6_7  and  C7_8
REMARK    4  A    between atoms: C7_8  and  N1_10
REMARK    5  A    between atoms: N1_10  and  C9_12
REMARK    6  A    between atoms: C9_12  and  N2_14
REMARK    7  A    between atoms: N2_14  and  N3_16
REMARK       I    between atoms: N3_16  and  C10_18
REMARK       I    between atoms: C10_18  and  N4_20
REMARK    8  A    between atoms: N4_20  and  O3_22
ROOT
HETATM    1  N1  UNL     1       5.226  -4.497  24.739  1.00  0.00    -0.362 N
ATOM      2  H1  UNL     1       4.301  -4.908  24.618  1.00  0.00     0.162 HD
ENDROOT
BRANCH   1   3
HETATM    3  C7  UNL     1       6.232  -4.684  23.691  1.00  0.00     0.082 C
HETATM    4  C8  UNL     1       7.092  -5.867  23.884  1.00  0.00     0.032 C
BRANCH   3   5
HETATM    5  C6  UNL     1       5.507  -4.637  22.393  1.00  0.00     0.062 C
BRANCH   5   6
HETATM    6  C5  UNL     1       5.319  -3.321  21.726  1.00  0.00     0.186 C
HETATM    7  C4  UNL     1       4.023  -3.081  21.017  1.00  0.00     0.206 C
HETATM    8  O1  UNL     1       3.914  -1.668  20.854  1.00  0.00    -0.356 OA
HETATM    9  C3  UNL     1       3.644  -1.156  22.120  1.00  0.00     0.296 C
HETATM   10  O5  UNL     1       4.156  -2.047  23.066  1.00  0.00    -0.208 OA
HETATM   11  O4  UNL     1       5.418  -2.329  22.738  1.00  0.00    -0.231 OA
BRANCH   9  12
HETATM   12  C2  UNL     1       4.143   0.236  22.339  1.00  0.00     0.059 C
HETATM   13  C1  UNL     1       3.822   1.205  21.247  1.00  0.00     0.010 C
ENDBRANCH   9  12
ENDBRANCH   5   6
ENDBRANCH   3   5
ENDBRANCH   1   3
BRANCH   1  14
HETATM   14  C9  UNL     1       5.498  -3.771  25.899  1.00  0.00     0.186 C
HETATM   15  S1  UNL     1       5.822  -4.571  27.316  1.00  0.00    -0.040 SA
BRANCH  14  16
HETATM   16  N2  UNL     1       5.529  -2.352  25.877  1.00  0.00    -0.272 N
ATOM     17  H2  UNL     1       4.796  -1.825  26.351  1.00  0.00     0.189 HD
BRANCH  16  18
HETATM   18  N3  UNL     1       6.545  -1.675  25.217  1.00  0.00    -0.248 N
HETATM   19  C10 UNL     1       7.643  -1.179  26.006  1.00  0.00     0.360 C
HETATM   20  O2  UNL     1       7.657  -1.372  27.223  1.00  0.00    -0.243 OA
HETATM   21  N4  UNL     1       8.701  -0.476  25.379  1.00  0.00    -0.214 N
HETATM   22  C11 UNL     1       9.797   0.013  26.181  1.00  0.00     0.190 C
ATOM     23  H3  UNL     1       6.514  -1.532  24.208  1.00  0.00     0.192 HD
BRANCH  21  24
HETATM   24  O3  UNL     1       8.736  -0.226  24.043  1.00  0.00    -0.284 OA
ATOM     25  H3  UNL     1       9.455  -0.497  23.484  1.00  0.00     0.245 HD
ENDBRANCH  21  24
ENDBRANCH  16  18
ENDBRANCH  14  16
ENDBRANCH   1  14
TORSDOF 8
ENDMDL