MODEL 2
REMARK VINA RESULT: -6.063359852      3.507      6.342
REMARK  7 active torsions:
REMARK  status: ('A' for Active; 'I' for Inactive)
REMARK    1  A    between atoms: N1_2  and  C2_5
REMARK    2  A    between atoms: C3_6  and  O1_7
REMARK    3  A    between atoms: C4_9  and  O2_10
REMARK    4  A    between atoms: N2_12  and  C5_13
REMARK    5  A    between atoms: C10_18  and  C11_19
REMARK    6  A    between atoms: C11_19  and  C12_20
REMARK    7  A    between atoms: C18_26  and  O3_27
ROOT
HETATM    1  C2  UNL     1       4.869  -5.175  25.711  1.00  0.00     0.252 C
HETATM    2  C3  UNL     1       6.168  -4.902  24.953  1.00  0.00     0.200 C
HETATM    3  C4  UNL     1       5.931  -5.458  23.597  1.00  0.00     0.256 C
HETATM    4  N2  UNL     1       4.759  -4.770  22.962  1.00  0.00    -0.323 N
HETATM    5  C10 UNL     1       3.724  -4.198  23.705  1.00  0.00     0.042 C
HETATM    6  C18 UNL     1       3.903  -4.142  25.214  1.00  0.00     0.201 C
ENDROOT
BRANCH   5   7
HETATM    7  C11 UNL     1       3.096  -2.917  23.314  1.00  0.00     0.006 C
BRANCH   7   8
HETATM    8  C12 UNL     1       3.477  -1.636  23.923  1.00  0.00     0.010 C
HETATM    9  C13 UNL     1       2.257  -0.707  23.705  1.00  0.00     0.008 C
HETATM   10  C14 UNL     1       2.684   0.731  23.553  1.00  0.00     0.001 C
HETATM   11  C15 UNL     1       3.251   0.907  22.147  1.00  0.00     0.000 C
HETATM   12  C16 UNL     1       3.988  -0.376  21.794  1.00  0.00     0.001 C
HETATM   13  C17 UNL     1       4.564  -0.954  23.047  1.00  0.00     0.008 C
ENDBRANCH   7   8
ENDBRANCH   5   7
BRANCH   4  14
HETATM   14  C5  UNL     1       4.867  -4.809  21.558  1.00  0.00     0.011 C
HETATM   15  C6  UNL     1       4.419  -5.775  20.785  1.00  0.00    -0.002 C
HETATM   16  C7  UNL     1       4.717  -5.467  19.360  1.00  0.00     0.029 C
HETATM   17  C8  UNL     1       4.609  -3.930  19.381  1.00  0.00     0.010 C
HETATM   18  C9  UNL     1       5.436  -3.715  20.673  1.00  0.00     0.057 C
ENDBRANCH   4  14
BRANCH   6  19
HETATM   19  O3  UNL     1       2.683  -4.372  25.830  1.00  0.00    -0.387 OA
ATOM     20  H3  UNL     1       2.083  -3.691  25.548  1.00  0.00     0.210 HD
ENDBRANCH   6  19
BRANCH   3  21
HETATM   21  O2  UNL     1       6.996  -5.394  22.752  1.00  0.00    -0.374 OA
ATOM     22  H2  UNL     1       6.851  -5.770  21.892  1.00  0.00     0.212 HD
ENDBRANCH   3  21
BRANCH   1  23
HETATM   23  N1  UNL     1       5.114  -4.994  27.110  1.00  0.00    -0.069 N
HETATM   24  C1  UNL     1       5.621  -3.648  27.384  1.00  0.00     0.267 C
ATOM     25  H12 UNL     1       5.737  -5.713  27.478  1.00  0.00     0.277 HD
ATOM     26  H11 UNL     1       4.287  -5.204  27.667  1.00  0.00     0.277 HD
ENDBRANCH   1  23
BRANCH   2  27
HETATM   27  O1  UNL     1       7.164  -5.646  25.587  1.00  0.00    -0.389 OA
ATOM     28  H1  UNL     1       7.533  -5.088  26.261  1.00  0.00     0.210 HD
ENDBRANCH   2  27
TORSDOF 7
ENDMDL