MODEL 4
REMARK VINA RESULT: -5.898768920      1.966      3.507
REMARK  6 active torsions:
REMARK  status: ('A' for Active; 'I' for Inactive)
REMARK    1  A    between atoms: N1_2  and  C2_5
REMARK    2  A    between atoms: C2_5  and  C3_6
REMARK    3  A    between atoms: C3_6  and  C4_7
REMARK       I    between atoms: C4_7  and  N2_9
REMARK    4  A    between atoms: N2_9  and  C5_11
REMARK    5  A    between atoms: C14_21  and  O3_22
REMARK    6  A    between atoms: C16_25  and  O4_26
ROOT
HETATM    1  C5  UNL     1       5.144  -4.205  24.593  1.00  0.00     0.252 C
HETATM    2  O2  UNL     1       6.158  -3.714  23.759  1.00  0.00    -0.364 OA
HETATM    3  C6  UNL     1       5.752  -2.486  23.240  1.00  0.00     0.178 C
HETATM    4  C7  UNL     1       4.929  -2.651  21.981  1.00  0.00     0.048 C
HETATM    5  C8  UNL     1       3.675  -1.810  22.017  1.00  0.00    -0.010 C
HETATM    6  C9  UNL     1       4.044  -0.374  22.380  1.00  0.00     0.010 C
HETATM    7  C10 UNL     1       3.063  -1.815  20.649  1.00  0.00     0.005 C
HETATM    8  C11 UNL     1       3.703  -2.795  19.713  1.00  0.00     0.007 C
HETATM    9  C12 UNL     1       3.953  -4.140  20.316  1.00  0.00     0.016 C
HETATM   10  C13 UNL     1       4.879  -4.892  19.362  1.00  0.00     0.013 C
HETATM   11  C14 UNL     1       4.622  -4.074  21.670  1.00  0.00     0.069 C
HETATM   12  C15 UNL     1       3.749  -4.760  22.659  1.00  0.00     0.074 C
HETATM   13  C16 UNL     1       4.488  -5.350  23.829  1.00  0.00     0.169 C
ENDROOT
BRANCH   1  14
HETATM   14  N2  UNL     1       5.651  -4.741  25.816  1.00  0.00    -0.332 N
HETATM   15  C4  UNL     1       4.918  -4.582  27.015  1.00  0.00     0.221 C
HETATM   16  O1  UNL     1       3.825  -3.966  26.980  1.00  0.00    -0.274 OA
ATOM     17  H2  UNL     1       6.541  -5.238  25.825  1.00  0.00     0.165 HD
BRANCH  15  18
HETATM   18  C3  UNL     1       5.421  -5.129  28.301  1.00  0.00     0.130 C
BRANCH  18  19
HETATM   19  C2  UNL     1       6.402  -4.160  28.907  1.00  0.00     0.241 C
BRANCH  19  20
HETATM   20  N1  UNL     1       5.878  -2.823  28.935  1.00  0.00    -0.079 N
HETATM   21  C1  UNL     1       6.700  -1.961  28.136  1.00  0.00     0.267 C
ATOM     22  H12 UNL     1       5.768  -2.474  29.887  1.00  0.00     0.276 HD
ATOM     23  H11 UNL     1       4.898  -2.791  28.651  1.00  0.00     0.276 HD
ENDBRANCH  19  20
ENDBRANCH  18  19
ENDBRANCH  15  18
ENDBRANCH   1  14
BRANCH  13  24
HETATM   24  O4  UNL     1       3.564  -6.021  24.627  1.00  0.00    -0.391 OA
ATOM     25  H4  UNL     1       2.674  -5.818  24.365  1.00  0.00     0.210 HD
ENDBRANCH  13  24
BRANCH  11  26
HETATM   26  O3  UNL     1       5.854  -4.770  21.647  1.00  0.00    -0.389 OA
ATOM     27  H3  UNL     1       5.934  -5.167  20.788  1.00  0.00     0.210 HD
ENDBRANCH  11  26
TORSDOF 6
ENDMDL