MODEL 5
REMARK VINA RESULT: -6.715038248      1.895      2.720
REMARK  6 active torsions:
REMARK  status: ('A' for Active; 'I' for Inactive)
REMARK    1  A    between atoms: N1_10  and  C9_11
REMARK    2  A    between atoms: C9_11  and  C10_13
REMARK    3  A    between atoms: C10_13  and  C11_14
REMARK    4  A    between atoms: C11_14  and  C12_15
REMARK    5  A    between atoms: C12_15  and  N2_16
REMARK       I    between atoms: N2_16  and  C13_18
REMARK    6  A    between atoms: N4_20  and  O2_22
ROOT
HETATM    1  C9  UNL     1       6.981  -1.790  26.473  1.00  0.00     0.102 C
HETATM    2  S1  UNL     1       6.628  -1.719  28.063  1.00  0.00    -0.063 SA
ENDROOT
BRANCH   1   3
HETATM    3  N1  UNL     1       6.344  -2.823  25.711  1.00  0.00    -0.241 N
HETATM    4  C8  UNL     1       5.135  -3.416  26.226  1.00  0.00     0.144 C
HETATM    5  C4  UNL     1       4.299  -3.795  25.025  1.00  0.00     0.150 C
HETATM    6  C7  UNL     1       5.334  -4.697  26.970  1.00  0.00     0.030 C
HETATM    7  O1  UNL     1       4.999  -4.517  24.092  1.00  0.00    -0.346 OA
HETATM    8  C5  UNL     1       3.287  -4.744  25.657  1.00  0.00     0.034 C
HETATM    9  C2  UNL     1       6.231  -4.062  23.763  1.00  0.00     0.183 C
HETATM   10  C1  UNL     1       7.128  -5.301  23.588  1.00  0.00     0.081 C
HETATM   11  C3  UNL     1       6.151  -3.452  22.356  1.00  0.00     0.081 C
HETATM   12  O3  UNL     1       6.865  -3.210  24.568  1.00  0.00    -0.238 OA
HETATM   13  C6  UNL     1       4.045  -5.463  26.748  1.00  0.00     0.005 C
ENDBRANCH   1   3
BRANCH   1  14
HETATM   14  C10 UNL     1       7.918  -0.889  25.781  1.00  0.00     0.073 C
BRANCH  14  15
HETATM   15  C11 UNL     1       9.231  -0.676  26.437  1.00  0.00     0.026 C
BRANCH  15  16
HETATM   16  C12 UNL     1       9.861   0.669  26.222  1.00  0.00     0.122 C
BRANCH  16  17
HETATM   17  N2  UNL     1      10.884   0.519  25.203  1.00  0.00    -0.363 N
HETATM   18  C13 UNL     1      10.543   0.749  23.864  1.00  0.00     0.208 C
HETATM   19  N3  UNL     1      10.072  -0.249  22.976  1.00  0.00    -0.062 NA
HETATM   20  N4  UNL     1      10.670   1.948  23.423  1.00  0.00    -0.241 N
ATOM     21  H4  UNL     1      11.008   2.683  24.045  1.00  0.00     0.197 HD
ATOM     22  H2  UNL     1      11.835   0.249  25.458  1.00  0.00     0.162 HD
BRANCH  20  23
HETATM   23  O2  UNL     1      10.356   2.249  22.124  1.00  0.00    -0.287 OA
ATOM     24  H2  UNL     1       9.681   2.887  21.926  1.00  0.00     0.244 HD
ENDBRANCH  20  23
ENDBRANCH  16  17
ENDBRANCH  15  16
ENDBRANCH  14  15
ENDBRANCH   1  14
TORSDOF 6
ENDMDL