MODEL 1
REMARK VINA RESULT: -6.152643039      0.000      0.000
REMARK  8 active torsions:
REMARK  status: ('A' for Active; 'I' for Inactive)
REMARK    1  A    between atoms: C2_2  and  C12_22
REMARK    2  A    between atoms: C3_3  and  C4_4
REMARK       I    between atoms: C4_4  and  N1_6
REMARK    3  A    between atoms: N1_6  and  C5_8
REMARK    4  A    between atoms: C6_9  and  C7_10
REMARK    5  A    between atoms: C7_10  and  O2_11
REMARK    6  A    between atoms: C10_16  and  O4_17
REMARK    7  A    between atoms: C11_19  and  O5_20
REMARK    8  A    between atoms: C12_22  and  C13_23
ROOT
HETATM    1  C5  UNL     1       4.574  -4.724  26.544  1.00  0.00     0.147 C
HETATM    2  C6  UNL     1       5.568  -5.553  25.810  1.00  0.00     0.170 C
HETATM    3  O3  UNL     1       6.437  -6.270  26.585  1.00  0.00    -0.374 OA
HETATM    4  C8  UNL     1       7.076  -5.581  27.576  1.00  0.00     0.149 C
HETATM    5  C9  UNL     1       7.861  -6.609  28.402  1.00  0.00     0.042 C
HETATM    6  C10 UNL     1       6.087  -4.950  28.545  1.00  0.00     0.177 C
HETATM    7  C11 UNL     1       5.054  -4.148  27.842  1.00  0.00     0.174 C
ENDROOT
BRANCH   1   8
HETATM    8  N1  UNL     1       4.176  -3.612  25.705  1.00  0.00    -0.348 N
HETATM    9  C4  UNL     1       2.820  -3.564  25.181  1.00  0.00     0.241 C
HETATM   10  O1  UNL     1       2.052  -4.497  25.483  1.00  0.00    -0.269 OA
ATOM     11  H1  UNL     1       4.840  -2.870  25.485  1.00  0.00     0.163 HD
BRANCH   9  12
HETATM   12  C3  UNL     1       2.425  -2.463  24.351  1.00  0.00     0.076 C
HETATM   13  C2  UNL     1       2.569  -2.429  23.052  1.00  0.00    -0.078 C
HETATM   14  C1  UNL     1       3.166  -3.545  22.321  1.00  0.00     0.043 C
BRANCH  13  15
HETATM   15  C12 UNL     1       2.125  -1.187  22.373  1.00  0.00     0.042 C
BRANCH  15  16
HETATM   16  C13 UNL     1       3.164  -0.166  22.124  1.00  0.00    -0.048 C
HETATM   17  C14 UNL     1       4.484  -0.465  22.733  1.00  0.00     0.015 C
HETATM   18  C15 UNL     1       3.404   0.048  20.630  1.00  0.00     0.015 C
HETATM   19  C16 UNL     1       2.599   1.166  22.665  1.00  0.00     0.015 C
ENDBRANCH  15  16
ENDBRANCH  13  15
ENDBRANCH   9  12
ENDBRANCH   1   8
BRANCH   2  20
HETATM   20  C7  UNL     1       6.300  -4.747  24.730  1.00  0.00     0.198 C
BRANCH  20  21
HETATM   21  O2  UNL     1       7.416  -5.481  24.270  1.00  0.00    -0.398 OA
ATOM     22  H2  UNL     1       7.312  -5.666  23.344  1.00  0.00     0.209 HD
ENDBRANCH  20  21
ENDBRANCH   2  20
BRANCH   7  23
HETATM   23  O5  UNL     1       5.569  -2.877  27.599  1.00  0.00    -0.391 OA
ATOM     24  H5  UNL     1       5.230  -2.282  28.258  1.00  0.00     0.210 HD
ENDBRANCH   7  23
BRANCH   6  25
HETATM   25  O4  UNL     1       5.548  -5.938  29.349  1.00  0.00    -0.390 OA
ATOM     26  H4  UNL     1       4.827  -5.574  29.848  1.00  0.00     0.210 HD
ENDBRANCH   6  25
TORSDOF 8
ENDMDL