MODEL 2
REMARK VINA RESULT: -6.446546242      2.567      4.255
REMARK  7 active torsions:
REMARK  status: ('A' for Active; 'I' for Inactive)
REMARK    1  A    between atoms: O1_1  and  C1_3
REMARK    2  A    between atoms: C1_3  and  C2_4
REMARK    3  A    between atoms: C3_6  and  O3_7
REMARK    4  A    between atoms: O3_7  and  C4_8
REMARK    5  A    between atoms: C9_13  and  O4_14
REMARK    6  A    between atoms: C10_16  and  O5_17
REMARK    7  A    between atoms: C11_19  and  O6_20
ROOT
HETATM    1  C2  UNL     1       4.628  -3.693  25.351  1.00  0.00     0.179 C
HETATM    2  O2  UNL     1       3.945  -2.725  24.733  1.00  0.00    -0.348 OA
HETATM    3  C3  UNL     1       4.534  -1.732  24.044  1.00  0.00     0.292 C
HETATM    4  C9  UNL     1       5.958  -1.420  24.427  1.00  0.00     0.204 C
HETATM    5  C10 UNL     1       6.763  -2.670  24.703  1.00  0.00     0.183 C
HETATM    6  C11 UNL     1       6.034  -3.431  25.760  1.00  0.00     0.180 C
ENDROOT
BRANCH   3   7
HETATM    7  O3  UNL     1       3.834  -0.541  24.064  1.00  0.00    -0.353 OA
BRANCH   7   8
HETATM    8  C4  UNL     1       3.266  -0.157  22.889  1.00  0.00     0.124 C
HETATM    9  C5  UNL     1       3.632   1.277  22.583  1.00  0.00     0.032 C
HETATM   10  C6  UNL     1       3.934   1.363  21.120  1.00  0.00     0.002 C
HETATM   11  C7  UNL     1       3.294   0.099  20.563  1.00  0.00     0.002 C
HETATM   12  C8  UNL     1       3.670  -0.892  21.668  1.00  0.00     0.032 C
ENDBRANCH   7   8
ENDBRANCH   3   7
BRANCH   4  13
HETATM   13  O4  UNL     1       6.634  -0.709  23.446  1.00  0.00    -0.388 OA
ATOM     14  H4  UNL     1       6.331   0.188  23.367  1.00  0.00     0.210 HD
ENDBRANCH   4  13
BRANCH   1  15
HETATM   15  C1  UNL     1       3.906  -4.245  26.594  1.00  0.00     0.198 C
BRANCH  15  16
HETATM   16  O1  UNL     1       4.497  -3.675  27.720  1.00  0.00    -0.398 OA
ATOM     17  H1  UNL     1       4.247  -4.194  28.476  1.00  0.00     0.209 HD
ENDBRANCH  15  16
ENDBRANCH   1  15
BRANCH   5  18
HETATM   18  O5  UNL     1       6.984  -3.404  23.544  1.00  0.00    -0.390 OA
ATOM     19  H5  UNL     1       7.736  -3.079  23.062  1.00  0.00     0.210 HD
ENDBRANCH   5  18
BRANCH   6  20
HETATM   20  O6  UNL     1       6.704  -4.630  26.029  1.00  0.00    -0.390 OA
ATOM     21  H6  UNL     1       6.782  -5.157  25.242  1.00  0.00     0.210 HD
ENDBRANCH   6  20
TORSDOF 7
ENDMDL