MODEL 2
REMARK VINA RESULT: -6.909680176      2.548      4.227
REMARK  7 active torsions:
REMARK  status: ('A' for Active; 'I' for Inactive)
REMARK    1  A    between atoms: O1_1  and  C1_3
REMARK    2  A    between atoms: C1_3  and  C2_4
REMARK    3  A    between atoms: C3_6  and  N1_7
REMARK    4  A    between atoms: C4_9  and  C5_10
REMARK    5  A    between atoms: C10_15  and  O3_16
REMARK    6  A    between atoms: C11_18  and  O4_19
REMARK    7  A    between atoms: C12_21  and  O5_22
ROOT
HETATM    1  C2  UNL     1       6.867  -4.959  28.095  1.00  0.00     0.179 C
HETATM    2  O2  UNL     1       6.716  -4.192  26.960  1.00  0.00    -0.354 OA
HETATM    3  C3  UNL     1       5.882  -4.889  26.087  1.00  0.00     0.252 C
HETATM    4  C10 UNL     1       4.471  -4.654  26.582  1.00  0.00     0.198 C
HETATM    5  C11 UNL     1       4.373  -5.272  27.954  1.00  0.00     0.182 C
HETATM    6  C12 UNL     1       5.663  -5.687  28.538  1.00  0.00     0.180 C
ENDROOT
BRANCH   3   7
HETATM    7  N1  UNL     1       6.068  -4.545  24.730  1.00  0.00    -0.374 N
HETATM    8  C4  UNL     1       6.349  -3.344  24.391  1.00  0.00     0.062 C
ATOM      9  H1  UNL     1       5.977  -5.263  24.012  1.00  0.00     0.161 HD
BRANCH   8  10
HETATM   10  C5  UNL     1       6.525  -3.091  22.928  1.00  0.00     0.024 C
HETATM   11  C6  UNL     1       6.417  -4.392  22.203  1.00  0.00     0.010 C
HETATM   12  C7  UNL     1       5.787  -3.993  20.886  1.00  0.00     0.001 C
HETATM   13  C8  UNL     1       4.746  -2.974  21.296  1.00  0.00     0.001 C
HETATM   14  C9  UNL     1       5.348  -2.235  22.480  1.00  0.00     0.010 C
ENDBRANCH   8  10
ENDBRANCH   3   7
BRANCH   4  15
HETATM   15  O3  UNL     1       4.196  -3.276  26.674  1.00  0.00    -0.389 OA
ATOM     16  H3  UNL     1       3.942  -2.926  25.828  1.00  0.00     0.210 HD
ENDBRANCH   4  15
BRANCH   1  17
HETATM   17  C1  UNL     1       8.062  -5.885  27.825  1.00  0.00     0.198 C
BRANCH  17  18
HETATM   18  O1  UNL     1       9.255  -5.303  28.187  1.00  0.00    -0.398 OA
ATOM     19  H1  UNL     1       9.763  -5.863  28.762  1.00  0.00     0.209 HD
ENDBRANCH  17  18
ENDBRANCH   1  17
BRANCH   5  20
HETATM   20  O4  UNL     1       3.573  -6.431  27.804  1.00  0.00    -0.390 OA
ATOM     21  H4  UNL     1       3.356  -6.716  28.685  1.00  0.00     0.210 HD
ENDBRANCH   5  20
BRANCH   6  22
HETATM   22  O5  UNL     1       5.563  -5.560  29.944  1.00  0.00    -0.390 OA
ATOM     23  H5  UNL     1       4.649  -5.423  30.164  1.00  0.00     0.210 HD
ENDBRANCH   6  22
TORSDOF 7
ENDMDL