MODEL 3
REMARK VINA RESULT: -6.561534470      1.443      1.853
REMARK  7 active torsions:
REMARK  status: ('A' for Active; 'I' for Inactive)
REMARK    1  A    between atoms: O1_1  and  C1_3
REMARK    2  A    between atoms: C1_3  and  C2_4
REMARK    3  A    between atoms: C3_6  and  O3_7
REMARK    4  A    between atoms: O3_7  and  C4_8
REMARK    5  A    between atoms: C10_14  and  O4_15
REMARK    6  A    between atoms: C11_17  and  O5_18
REMARK    7  A    between atoms: C12_20  and  O6_21
ROOT
HETATM    1  C2  UNL     1       6.257  -4.378  26.441  1.00  0.00     0.179 C
HETATM    2  O2  UNL     1       5.205  -3.937  25.655  1.00  0.00    -0.348 OA
HETATM    3  C3  UNL     1       5.459  -4.048  24.298  1.00  0.00     0.292 C
HETATM    4  C10 UNL     1       6.637  -4.967  24.042  1.00  0.00     0.204 C
HETATM    5  C11 UNL     1       6.534  -6.256  24.830  1.00  0.00     0.183 C
HETATM    6  C12 UNL     1       6.480  -5.878  26.292  1.00  0.00     0.180 C
ENDROOT
BRANCH   3   7
HETATM    7  O3  UNL     1       5.780  -2.825  23.717  1.00  0.00    -0.353 OA
BRANCH   7   8
HETATM    8  C4  UNL     1       4.662  -2.074  23.384  1.00  0.00     0.124 C
HETATM    9  C5  UNL     1       3.956  -2.585  22.152  1.00  0.00     0.032 C
HETATM   10  C6  UNL     1       4.203  -1.698  20.945  1.00  0.00     0.002 C
HETATM   11  C7  UNL     1       3.614  -0.333  21.214  1.00  0.00     0.000 C
HETATM   12  C8  UNL     1       4.086   0.207  22.524  1.00  0.00     0.002 C
HETATM   13  C9  UNL     1       5.168  -0.669  23.073  1.00  0.00     0.032 C
ENDBRANCH   7   8
ENDBRANCH   3   7
BRANCH   4  14
HETATM   14  O4  UNL     1       6.742  -5.217  22.676  1.00  0.00    -0.388 OA
ATOM     15  H4  UNL     1       7.632  -5.477  22.470  1.00  0.00     0.210 HD
ENDBRANCH   4  14
BRANCH   1  16
HETATM   16  C1  UNL     1       5.882  -4.155  27.888  1.00  0.00     0.198 C
BRANCH  16  17
HETATM   17  O1  UNL     1       4.795  -3.313  28.038  1.00  0.00    -0.398 OA
ATOM     18  H1  UNL     1       3.968  -3.737  27.841  1.00  0.00     0.209 HD
ENDBRANCH  16  17
ENDBRANCH   1  16
BRANCH   5  19
HETATM   19  O5  UNL     1       5.389  -6.933  24.434  1.00  0.00    -0.390 OA
ATOM     20  H5  UNL     1       4.636  -6.535  24.856  1.00  0.00     0.210 HD
ENDBRANCH   5  19
BRANCH   6  21
HETATM   21  O6  UNL     1       7.729  -6.168  26.845  1.00  0.00    -0.390 OA
ATOM     22  H6  UNL     1       7.749  -5.784  27.713  1.00  0.00     0.210 HD
ENDBRANCH   6  21
TORSDOF 7
ENDMDL