MODEL 3
REMARK VINA RESULT: -5.314675704      1.691      2.632
REMARK  7 active torsions:
REMARK  status: ('A' for Active; 'I' for Inactive)
REMARK    1  A    between atoms: O1_1  and  C1_3
REMARK    2  A    between atoms: C1_3  and  C2_4
REMARK    3  A    between atoms: C2_4  and  C3_5
REMARK    4  A    between atoms: C3_5  and  O2_6
REMARK    5  A    between atoms: C4_9  and  N1_10
REMARK    6  A    between atoms: C9_15  and  O3_16
REMARK    7  A    between atoms: C10_18  and  O4_19
ROOT
HETATM    1  C2  UNL     1       5.978  -4.534  26.955  1.00  0.00     0.081 C
HETATM    2  S1  UNL     1       5.761  -3.295  25.640  1.00  0.00    -0.123 SA
HETATM    3  C4  UNL     1       5.545  -4.539  24.318  1.00  0.00     0.182 C
HETATM    4  C9  UNL     1       6.531  -5.568  24.813  1.00  0.00     0.181 C
HETATM    5  C10 UNL     1       6.301  -5.796  26.245  1.00  0.00     0.172 C
ENDROOT
BRANCH   1   6
HETATM    6  C1  UNL     1       7.028  -4.112  27.949  1.00  0.00     0.189 C
BRANCH   6   7
HETATM    7  O1  UNL     1       6.617  -4.423  29.233  1.00  0.00    -0.399 OA
ATOM      8  H1  UNL     1       6.573  -3.634  29.760  1.00  0.00     0.209 HD
ENDBRANCH   6   7
ENDBRANCH   1   6
BRANCH   1   9
HETATM    9  C3  UNL     1       4.639  -4.657  27.668  1.00  0.00     0.189 C
BRANCH   9  10
HETATM   10  O2  UNL     1       4.360  -5.958  28.028  1.00  0.00    -0.399 OA
ATOM     11  H2  UNL     1       3.621  -6.014  28.623  1.00  0.00     0.209 HD
ENDBRANCH   9  10
ENDBRANCH   1   9
BRANCH   5  12
HETATM   12  O4  UNL     1       7.464  -6.325  26.842  1.00  0.00    -0.391 OA
ATOM     13  H4  UNL     1       8.037  -6.609  26.139  1.00  0.00     0.210 HD
ENDBRANCH   5  12
BRANCH   3  14
HETATM   14  N1  UNL     1       5.825  -4.032  23.028  1.00  0.00    -0.350 N
HETATM   15  C5  UNL     1       6.935  -4.139  22.292  1.00  0.00     0.092 A
HETATM   16  C6  UNL     1       6.791  -3.500  21.097  1.00  0.00     0.019 A
HETATM   17  C7  UNL     1       5.515  -2.958  21.080  1.00  0.00     0.019 A
HETATM   18  C8  UNL     1       4.959  -3.309  22.284  1.00  0.00     0.092 A
ENDBRANCH   3  14
BRANCH   4  19
HETATM   19  O3  UNL     1       6.271  -6.752  24.098  1.00  0.00    -0.390 OA
ATOM     20  H3  UNL     1       5.333  -6.782  23.953  1.00  0.00     0.210 HD
ENDBRANCH   4  19
TORSDOF 7
ENDMDL