MODEL 5
REMARK VINA RESULT: -5.470124995      4.862      7.046
REMARK  6 active torsions:
REMARK  status: ('A' for Active; 'I' for Inactive)
REMARK    1  A    between atoms: O1_1  and  C1_3
REMARK    2  A    between atoms: C1_3  and  C2_4
REMARK    3  A    between atoms: C2_4  and  O2_5
REMARK    4  A    between atoms: C2_4  and  C3_7
REMARK    5  A    between atoms: C6_11  and  O4_12
REMARK    6  A    between atoms: C10_18  and  O5_19
ROOT
HETATM    1  C3  UNL     1       6.164  -3.511  25.327  1.00  0.00     0.182 C
HETATM    2  O3  UNL     1       6.989  -4.394  24.702  1.00  0.00    -0.380 OA
HETATM    3  C4  UNL     1       6.416  -4.790  23.479  1.00  0.00     0.176 C
HETATM    4  C5  UNL     1       6.686  -3.594  22.555  1.00  0.00     0.054 C
HETATM    5  C6  UNL     1       6.443  -4.045  21.164  1.00  0.00     0.126 C
HETATM    6  C7  UNL     1       5.012  -4.169  20.767  1.00  0.00     0.042 C
HETATM    7  C8  UNL     1       4.313  -2.866  20.577  1.00  0.00     0.077 C
HETATM    8  S1  UNL     1       4.599  -1.854  22.023  1.00  0.00    -0.161 SA
HETATM    9  C9  UNL     1       5.955  -2.432  23.056  1.00  0.00     0.087 C
HETATM   10  C10 UNL     1       5.372  -2.616  24.461  1.00  0.00     0.164 C
ENDROOT
BRANCH   1  11
HETATM   11  C2  UNL     1       5.194  -4.325  26.194  1.00  0.00     0.173 C
BRANCH  11  12
HETATM   12  C1  UNL     1       5.965  -5.272  27.058  1.00  0.00     0.198 C
BRANCH  12  13
HETATM   13  O1  UNL     1       7.127  -4.661  27.514  1.00  0.00    -0.398 OA
ATOM     14  H1  UNL     1       7.532  -5.193  28.188  1.00  0.00     0.209 HD
ENDBRANCH  12  13
ENDBRANCH  11  12
BRANCH  11  15
HETATM   15  O2  UNL     1       4.426  -3.507  27.003  1.00  0.00    -0.391 OA
ATOM     16  H2  UNL     1       4.956  -2.772  27.287  1.00  0.00     0.210 HD
ENDBRANCH  11  15
ENDBRANCH   1  11
BRANCH  10  17
HETATM   17  O5  UNL     1       4.053  -3.060  24.335  1.00  0.00    -0.392 OA
ATOM     18  H5  UNL     1       3.524  -2.446  23.839  1.00  0.00     0.210 HD
ENDBRANCH  10  17
BRANCH   5  19
HETATM   19  O4  UNL     1       7.107  -3.242  20.209  1.00  0.00    -0.395 OA
ATOM     20  H4  UNL     1       7.200  -3.676  19.369  1.00  0.00     0.210 HD
ENDBRANCH   5  19
TORSDOF 6
ENDMDL