MODEL 4
REMARK VINA RESULT: -6.340973786      2.641      3.878
REMARK  7 active torsions:
REMARK  status: ('A' for Active; 'I' for Inactive)
REMARK    1  A    between atoms: O1_1  and  C1_3
REMARK    2  A    between atoms: C4_6  and  O2_7
REMARK    3  A    between atoms: O2_7  and  C5_8
REMARK    4  A    between atoms: C5_8  and  C6_9
REMARK    5  A    between atoms: C8_12  and  O4_13
REMARK    6  A    between atoms: C9_15  and  O5_16
REMARK    7  A    between atoms: C10_18  and  O6_19
ROOT
HETATM    1  O2  UNL     1       4.914  -2.989  26.265  1.00  0.00    -0.381 OA
ENDROOT
BRANCH   1   2
HETATM    2  C4  UNL     1       5.128  -3.822  27.329  1.00  0.00     0.150 C
HETATM    3  C3  UNL     1       6.508  -3.437  27.884  1.00  0.00     0.037 C
HETATM    4  C2  UNL     1       7.040  -4.562  28.751  1.00  0.00     0.034 C
HETATM    5  C1  UNL     1       7.402  -5.743  27.874  1.00  0.00     0.120 C
HETATM    6  C11 UNL     1       6.519  -5.804  26.642  1.00  0.00     0.066 C
HETATM    7  C10 UNL     1       5.121  -5.289  26.949  1.00  0.00     0.149 C
BRANCH   5   8
HETATM    8  O1  UNL     1       7.271  -6.894  28.648  1.00  0.00    -0.395 OA
ATOM      9  H1  UNL     1       7.510  -7.633  28.102  1.00  0.00     0.210 HD
ENDBRANCH   5   8
BRANCH   7  10
HETATM   10  O6  UNL     1       4.523  -6.074  27.943  1.00  0.00    -0.393 OA
ATOM     11  H6  UNL     1       5.131  -6.715  28.293  1.00  0.00     0.210 HD
ENDBRANCH   7  10
ENDBRANCH   1   2
BRANCH   1  12
HETATM   12  C5  UNL     1       4.367  -3.530  25.148  1.00  0.00     0.203 C
BRANCH  12  13
HETATM   13  C6  UNL     1       4.915  -3.074  23.849  1.00  0.00     0.176 C
HETATM   14  O3  UNL     1       4.363  -3.534  22.706  1.00  0.00    -0.378 OA
HETATM   15  C7  UNL     1       5.286  -3.551  21.698  1.00  0.00     0.202 C
HETATM   16  C8  UNL     1       6.589  -3.038  22.242  1.00  0.00     0.173 C
HETATM   17  C9  UNL     1       6.424  -3.319  23.722  1.00  0.00     0.180 C
BRANCH  16  18
HETATM   18  O4  UNL     1       7.698  -3.662  21.697  1.00  0.00    -0.391 OA
ATOM     19  H4  UNL     1       8.462  -3.100  21.649  1.00  0.00     0.210 HD
ENDBRANCH  16  18
BRANCH  17  20
HETATM   20  O5  UNL     1       7.134  -2.409  24.501  1.00  0.00    -0.390 OA
ATOM     21  H5  UNL     1       7.468  -1.701  23.963  1.00  0.00     0.210 HD
ENDBRANCH  17  20
ENDBRANCH  12  13
ENDBRANCH   1  12
TORSDOF 7
ENDMDL