MODEL 4
REMARK VINA RESULT: -6.055630871      1.835      2.974
REMARK  7 active torsions:
REMARK  status: ('A' for Active; 'I' for Inactive)
REMARK    1  A    between atoms: O1_1  and  C1_3
REMARK    2  A    between atoms: C1_3  and  C2_4
REMARK    3  A    between atoms: C8_11  and  O3_12
REMARK    4  A    between atoms: C9_14  and  O4_15
REMARK    5  A    between atoms: C10_17  and  O5_18
REMARK    6  A    between atoms: O5_18  and  C11_19
REMARK    7  A    between atoms: N1_20  and  O6_22
ROOT
HETATM    1  C2  UNL     1       5.646  -5.025  24.705  1.00  0.00     0.178 C
HETATM    2  O2  UNL     1       4.989  -4.090  24.036  1.00  0.00    -0.363 OA
HETATM    3  C3  UNL     1       5.150  -2.783  24.235  1.00  0.00     0.107 C
HETATM    4  C4  UNL     1       3.856  -1.999  24.210  1.00  0.00     0.009 C
HETATM    5  C5  UNL     1       3.980  -0.931  23.432  1.00  0.00    -0.027 C
HETATM    6  C6  UNL     1       5.338  -0.832  22.830  1.00  0.00     0.030 C
HETATM    7  C7  UNL     1       5.872  -2.214  22.998  1.00  0.00     0.049 C
HETATM    8  C8  UNL     1       5.916  -2.324  25.412  1.00  0.00     0.188 C
HETATM    9  C9  UNL     1       5.935  -3.429  26.494  1.00  0.00     0.182 C
HETATM   10  C10 UNL     1       6.568  -4.569  25.838  1.00  0.00     0.192 C
ENDROOT
BRANCH  10  11
HETATM   11  O5  UNL     1       7.001  -5.669  26.506  1.00  0.00    -0.334 OA
BRANCH  11  12
HETATM   12  C11 UNL     1       6.938  -5.837  27.858  1.00  0.00     0.248 C
HETATM   13  N1  UNL     1       5.769  -5.939  28.311  1.00  0.00    -0.259 N
ATOM     14  H1  UNL     1       5.009  -5.886  27.633  1.00  0.00     0.195 HD
BRANCH  13  15
HETATM   15  O6  UNL     1       5.413  -6.114  29.616  1.00  0.00    -0.289 OA
ATOM     16  H6  UNL     1       4.606  -5.827  30.027  1.00  0.00     0.244 HD
ENDBRANCH  13  15
ENDBRANCH  11  12
ENDBRANCH  10  11
BRANCH   1  17
HETATM   17  C1  UNL     1       6.422  -5.891  23.708  1.00  0.00     0.198 C
BRANCH  17  18
HETATM   18  O1  UNL     1       7.629  -5.337  23.360  1.00  0.00    -0.398 OA
ATOM     19  H1  UNL     1       7.680  -5.131  22.434  1.00  0.00     0.209 HD
ENDBRANCH  17  18
ENDBRANCH   1  17
BRANCH   9  20
HETATM   20  O4  UNL     1       4.596  -3.572  26.826  1.00  0.00    -0.390 OA
ATOM     21  H4  UNL     1       4.627  -3.997  27.676  1.00  0.00     0.210 HD
ENDBRANCH   9  20
BRANCH   8  22
HETATM   22  O3  UNL     1       7.275  -2.099  25.118  1.00  0.00    -0.390 OA
ATOM     23  H3  UNL     1       7.564  -1.231  25.374  1.00  0.00     0.210 HD
ENDBRANCH   8  22
TORSDOF 7
ENDMDL